#    Name: 1sb9_UPG_1_ligand
#    Modification time : Tue Mar 25 02:13:27 2014

@<TRIPOS>MOLECULE
1sb9_UPG_1_ligand
   58    60     1     0     0
SMALL
NO_CHARGES


@<TRIPOS>ATOM
      1 N1         40.1190   11.5350   94.4840 N.am      1 UPG343      0.0000 
      2 C2         40.0400   12.6060   95.3790 C.2       1 UPG343      0.0000 
      3 N3         41.1970   12.9550   96.0400 N.am      1 UPG343      0.0000 
      4 C4         42.4320   12.3380   95.8990 C.2       1 UPG343      0.0000 
      5 C5         42.4590   11.1970   94.9260 C.2       1 UPG343      0.0000 
      6 C6         41.3040   10.8750   94.2860 C.2       1 UPG343      0.0000 
      7 O2         39.0100   13.2130   95.5790 O.2       1 UPG343      0.0000 
      8 O4         43.4170   12.7010   96.5240 O.2       1 UPG343      0.0000 
      9 C1C        38.9060   11.1250   93.7710 C.3       1 UPG343      0.0000 
     10 C2C        39.0550   11.0520   92.2730 C.3       1 UPG343      0.0000 
     11 O2C        38.7890   12.3230   91.6850 O.3       1 UPG343      0.0000 
     12 C3C        38.0610   10.0350   91.8490 C.3       1 UPG343      0.0000 
     13 C4C        37.8880    9.1600   93.0710 C.3       1 UPG343      0.0000 
     14 O4C        38.4750    9.8360   94.1910 O.3       1 UPG343      0.0000 
     15 O3C        36.8130   10.6730   91.5920 O.3       1 UPG343      0.0000 
     16 C5C        38.5880    7.8270   92.8860 C.3       1 UPG343      0.0000 
     17 O5C        39.9630    8.0740   92.6550 O.3       1 UPG343      0.0000 
     18 PA         40.8200    6.8990   91.9480 P.3       1 UPG343      0.0000 
     19 O1A        42.0940    7.4140   91.1040 O.co2     1 UPG343      0.0000 
     20 O2A        41.1750    5.8770   93.1400 O.co2     1 UPG343      0.0000 
     21 O3A        39.7270    6.1100   91.0840 O.3       1 UPG343      0.0000 
     22 PB         39.5110    6.0880   89.5070 P.3       1 UPG343      0.0000 
     23 O1B        39.5960    7.5330   88.7950 O.co2     1 UPG343      0.0000 
     24 O2B        38.1030    5.3230   89.3220 O.co2     1 UPG343      0.0000 
     25 O3B        40.6390    5.0400   89.0170 O.3       1 UPG343      0.0000 
     26 C1'        40.5360    3.7070   89.4940 C.3       1 UPG343      0.0000 
     27 C2'        41.9130    3.1750   89.8700 C.3       1 UPG343      0.0000 
     28 C3'        42.8440    3.1350   88.6610 C.3       1 UPG343      0.0000 
     29 C4'        42.1630    2.5150   87.4480 C.3       1 UPG343      0.0000 
     30 C5'        40.8180    3.1990   87.2060 C.3       1 UPG343      0.0000 
     31 C6'        40.1060    2.6060   86.0100 C.3       1 UPG343      0.0000 
     32 O2'        42.4800    4.0420   90.8440 O.3       1 UPG343      0.0000 
     33 O3'        43.9710    2.3380   88.9950 O.3       1 UPG343      0.0000 
     34 O4'        42.9990    2.7800   86.3300 O.3       1 UPG343      0.0000 
     35 O5'        39.9880    3.0300   88.3640 O.3       1 UPG343      0.0000 
     36 O6'        39.2280    1.5790   86.4620 O.3       1 UPG343      0.0000 
     37 H          41.1426   13.7772   96.7265 H         1 UPG343      0.0000 
     38 H          43.3357   10.7263   94.7967 H         1 UPG343      0.0000 
     39 H          41.3152   10.0697   93.5946 H         1 UPG343      0.0000 
     40 H          38.0990   11.8477   93.9765 H         1 UPG343      0.0000 
     41 H          40.0378   10.6927   92.0550 H         1 UPG343      0.0000 
     42 H          38.4218    9.4662   91.0604 H         1 UPG343      0.0000 
     43 H          36.8436    8.9870   93.2316 H         1 UPG343      0.0000 
     44 H          38.1164    7.3125   92.0448 H         1 UPG343      0.0000 
     45 H          38.4237    7.2320   93.7881 H         1 UPG343      0.0000 
     46 H          39.8839    3.6526   90.3271 H         1 UPG343      0.0000 
     47 H          41.8052    2.1784   90.2530 H         1 UPG343      0.0000 
     48 H          43.1362    4.1382   88.4188 H         1 UPG343      0.0000 
     49 H          42.0171    1.4872   87.6107 H         1 UPG343      0.0000 
     50 H          40.9981    4.2454   87.0174 H         1 UPG343      0.0000 
     51 H          40.8620    2.2183   85.3208 H         1 UPG343      0.0000 
     52 H          39.5629    3.4094   85.5036 H         1 UPG343      0.0000 
     53 H          39.3611   12.3536   90.8653 H         1 UPG343      0.0000 
     54 H          36.8655   10.9693   90.6383 H         1 UPG343      0.0000 
     55 H          41.7007    4.3917   91.3640 H         1 UPG343      0.0000 
     56 H          44.7426    2.7742   88.5320 H         1 UPG343      0.0000 
     57 H          42.9516    1.9530   85.7698 H         1 UPG343      0.0000 
     58 H          39.0686    1.0034   85.6599 H         1 UPG343      0.0000 
@<TRIPOS>BOND
     1    2    1 1    
     2    6    1 1    
     3    9    1 1    
     4    3    2 1    
     5    7    2 2    
     6    4    3 1    
     7   37    3 1    
     8    5    4 1    
     9    8    4 2    
    10    6    5 2    
    11   38    5 1    
    12   39    6 1    
    13   10    9 1    
    14   14    9 1    
    15   40    9 1    
    16   11   10 1    
    17   12   10 1    
    18   41   10 1    
    19   53   11 1    
    20   13   12 1    
    21   15   12 1    
    22   42   12 1    
    23   14   13 1    
    24   16   13 1    
    25   43   13 1    
    26   54   15 1    
    27   17   16 1    
    28   44   16 1    
    29   45   16 1    
    30   18   17 1    
    31   19   18 ar   
    32   20   18 ar   
    33   21   18 1    
    34   22   21 1    
    35   23   22 ar   
    36   24   22 ar   
    37   25   22 1    
    38   26   25 1    
    39   27   26 1    
    40   35   26 1    
    41   46   26 1    
    42   28   27 1    
    43   32   27 1    
    44   47   27 1    
    45   29   28 1    
    46   33   28 1    
    47   48   28 1    
    48   30   29 1    
    49   34   29 1    
    50   49   29 1    
    51   31   30 1    
    52   35   30 1    
    53   50   30 1    
    54   36   31 1    
    55   51   31 1    
    56   52   31 1    
    57   55   32 1    
    58   56   33 1    
    59   57   34 1    
    60   58   36 1    
@<TRIPOS>SUBSTRUCTURE
     1 UPG343      1 GROUP   
@<TRIPOS>SET

