#    Name: 2ejt_SAM_1_INTS_M
#    Modification time : Tue Mar 25 11:10:39 2014

@<TRIPOS>MOLECULE
2ejt_SAM_1_INTS_M
   82     0    15     0     0
SMALL
NO_CHARGES


@<TRIPOS>ATOM
      1 OD1        15.0740   24.9025   34.8370 O.co2     3 ASC3        0.0000 
      2 OD1        14.9650   24.0480   36.5770 O.co2    13 ASL3        0.0000 
      3 OD1        15.1830   25.7570   33.0970 O.co2     8 ASP3        0.0000 
      4 OD1        15.0230   22.4950   36.9410 O.co2     3 ASC3        0.0000 
      5 OD1        15.0810   20.9420   37.3050 O.co2     8 ASP3        0.0000 
      6 O          13.8150   24.5825   36.1755 O.2       1 ALC1        0.0000 
      7 O          14.9650   24.0480   36.5770 O.2      11 ALL1        0.0000 
      8 O          12.6650   25.1170   35.7740 O.2       6 ALP1        0.0000 
      9 O          15.0230   22.4950   36.9410 O.2       1 ALC1        0.0000 
     10 O          15.0810   20.9420   37.3050 O.2       6 ALP1        0.0000 
     11 O          15.8885   25.4650   36.4560 O.2       1 ALC1        0.0000 
     12 O          16.8120   26.8820   36.3350 O.2       6 ALP1        0.0000 
     13 CA         14.9145   22.2350   36.4450 C.3       5 GLC5        0.0000 
     14 CA         15.4860   23.9140   37.8190 C.3      15 GLL5        0.0000 
     15 CA         14.3430   20.5560   35.0710 C.3      10 GLP5        0.0000 
     16 NZ         18.5900   22.9760   38.7510 N.4       4 LYC4        0.0000 
     17 NZ         17.7470   23.3130   37.8280 N.4      14 LYL4        0.0000 
     18 NZ         20.6570   23.0700   39.9520 N.4       9 LYP4        0.0000 
     19 NZ         17.7520   22.0650   37.0140 N.4       4 LYC4        0.0000 
     20 NZ         18.0290   21.3480   35.0150 N.4       9 LYP4        0.0000 
     21 N          18.5900   22.9760   38.7510 N.am      2 SEC2        0.0000 
     22 N          17.7470   23.3130   37.8280 N.am     12 SEL2        0.0000 
     23 N          19.4330   22.6390   39.6740 N.am      7 SEP2        0.0000 
     24 N          17.6805   22.9470   36.2805 N.am      2 SEC2        0.0000 
     25 N          17.6140   22.5810   34.7330 N.am      7 SEP2        0.0000 
     26 N          17.7520   22.0650   37.0140 N.am      2 SEC2        0.0000 
     27 N          17.7570   20.8170   36.2000 N.am      7 SEP2        0.0000 
     28 CA         12.3045   25.4385   40.1455 C.3       5 GLC5        0.0000 
     29 CA         11.4730   23.4230   40.0200 C.3      15 GLL5        0.0000 
     30 CA         13.1360   27.4540   40.2710 C.3      10 GLP5        0.0000 
     31 CA         10.1625   20.9105   41.0770 C.3       5 GLC5        0.0000 
     32 CA         11.8360   21.9040   40.8770 C.3      15 GLL5        0.0000 
     33 CA          8.4890   19.9170   41.2770 C.3      10 GLP5        0.0000 
     34 CA          9.8905   21.6305   37.8680 C.3       5 GLC5        0.0000 
     35 CA         10.0380   23.4440   39.0950 C.3      15 GLL5        0.0000 
     36 CA          9.7430   19.8170   36.6410 C.3      10 GLP5        0.0000 
     37 CA          9.2635   21.6805   40.1860 C.3       5 GLC5        0.0000 
     38 CA         11.0490   26.7690   40.1620 C.3       5 GLC5        0.0000 
     39 CA          8.9620   26.0840   40.0530 C.3      15 GLL5        0.0000 
     40 O           9.8165   27.8335   38.9760 O.2       1 ALC1        0.0000 
     41 O           9.8640   27.2420   40.1120 O.2      11 ALL1        0.0000 
     42 O           9.7690   28.4250   37.8400 O.2       6 ALP1        0.0000 
     43 O           8.9135   28.3995   39.2290 O.2       1 ALC1        0.0000 
     44 O           7.9630   29.5570   38.3460 O.2       6 ALP1        0.0000 
     45 O           7.3900   28.5275   39.1745 O.2       1 ALC1        0.0000 
     46 O           6.8170   27.4980   40.0030 O.2      11 ALL1        0.0000 
     47 CA          7.5050   24.5230   36.7760 C.3       5 GLC5        0.0000 
     48 CA          7.2170   25.5960   38.4180 C.3      15 GLL5        0.0000 
     49 CA          7.7930   23.4500   35.1340 C.3      10 GLP5        0.0000 
     50 CA          3.9345   27.6345   35.3825 C.3       5 GLC5        0.0000 
     51 CA          4.0620   25.8670   34.5490 C.3      15 GLL5        0.0000 
     52 CA          3.8070   29.4020   36.2160 C.3      10 GLP5        0.0000 
     53 CA          3.4535   27.3440   33.2120 C.3       5 GLC5        0.0000 
     54 CA          2.8450   28.8210   31.8750 C.3      10 GLP5        0.0000 
     55 CA          5.1825   25.7260   32.6635 C.3       5 GLC5        0.0000 
     56 CA          6.3030   25.5850   30.7780 C.3      10 GLP5        0.0000 
     57 O           2.4720   25.8035   32.9070 O.2       1 ALC1        0.0000 
     58 O           2.8830   25.4370   34.1080 O.2      11 ALL1        0.0000 
     59 O           2.0610   26.1700   31.7060 O.2       6 ALP1        0.0000 
     60 N           4.7200   27.0125   32.4435 N.am      2 SEC2        0.0000 
     61 N           4.8340   26.7070   33.7650 N.am     12 SEL2        0.0000 
     62 N           4.6060   27.3180   31.1220 N.am      7 SEP2        0.0000 
     63 CA          6.9190   25.3065   34.6660 C.3       5 GLC5        0.0000 
     64 CA          6.0450   27.1630   34.1980 C.3      15 GLL5        0.0000 
     65 CA          7.2590   28.6645   34.7595 C.3       5 GLC5        0.0000 
     66 CA          8.4730   30.1660   35.3210 C.3      10 GLP5        0.0000 
     67 CA          4.9260   28.2825   35.2070 C.3       5 GLC5        0.0000 
     68 CA          4.4450   27.9920   33.0365 C.3       5 GLC5        0.0000 
     69 CA          6.1740   26.3740   32.4880 C.3       5 GLC5        0.0000 
     70 N           6.3365   28.4270   35.6995 N.am      2 SEC2        0.0000 
     71 N           6.5170   26.7920   35.4180 N.am     12 SEL2        0.0000 
     72 N           6.1560   30.0620   35.9810 N.am      7 SEP2        0.0000 
     73 CA         13.2707   25.5700   39.4845 C.3       5 GLC5        0.0000 
     74 CA         12.6570   23.6350   38.7810 C.3      15 GLL5        0.0000 
     75 CA         12.5877   22.9612   42.0358 C.3       5 GLC5        0.0000 
     76 CA         13.5210   23.2590   43.6230 C.3      10 GLP5        0.0000 
     77 CA          9.8310   24.3115   37.1335 C.3       5 GLC5        0.0000 
     78 CA         10.0510   24.5280   35.0400 C.3      10 GLP5        0.0000 
     79 CA          4.5183   27.1950   36.7957 C.3       5 GLC5        0.0000 
     80 CA          5.7830   25.9520   36.2490 C.3      15 GLL5        0.0000 
     81 CA          3.8810   28.6770   37.5600 C.3      10 GLP5        0.0000 
     82 CA          6.4160   24.6306   35.4246 C.3       5 GLC5        0.0000 
@<TRIPOS>BOND
@<TRIPOS>SUBSTRUCTURE
     1 ALC1        6 GROUP        1 X    ALC  0     ROOT ALC X 1
     2 SEC2       21 GROUP        1 X    SEC  0     **** SEC X 2
     3 ASC3        1 GROUP        1 X    ASC  0     **** ASC X 3
     4 LYC4       16 GROUP        1 X    LYC  0     **** LYC X 4
     5 GLC5       13 GROUP        1 X    GLC  0     **** GLC X 6
     6 ALP1        8 GROUP        1 Y    ALP  0     ROOT ALP Y 8
     7 SEP2       23 GROUP        1 Y    SEP  0     **** SEP Y 9
     8 ASP3        3 GROUP        1 Y    ASP  0     **** ASP Y 10
     9 LYP4       18 GROUP        1 Y    LYP  0     **** LYP Y 11
    10 GLP5       15 GROUP        1 Y    GLP  0     **** GLP Y 13
    11 ALL1        7 GROUP        1 Z    ALL  0     ROOT ALL Z 15
    12 SEL2       22 GROUP        1 Z    SEL  0     **** SEL Z 16
    13 ASL3        2 GROUP        1 Z    ASL  0     **** ASL Z 17
    14 LYL4       17 GROUP        1 Z    LYL  0     **** LYL Z 18
    15 GLL5       14 GROUP        1 Z    GLL  0     **** GLL Z 20
@<TRIPOS>SET

