#    Name: 2ejt_SAM_1_ligand
#    Modification time : Tue Mar 25 11:10:39 2014

@<TRIPOS>MOLECULE
2ejt_SAM_1_ligand
   50    52     1     0     0
SMALL
NO_CHARGES


@<TRIPOS>ATOM
      1 N          14.9650   24.0480   36.5770 N.4       1 SAM501      0.0000 
      2 CA         15.4860   23.9140   37.8190 C.3       1 SAM501      0.0000 
      3 C          16.7880   23.9010   38.3930 C.2       1 SAM501      0.0000 
      4 O          16.7570   24.5650   39.5200 O.co2     1 SAM501      0.0000 
      5 OXT        17.7470   23.3130   37.8280 O.co2     1 SAM501      0.0000 
      6 CB         14.1540   23.7370   38.6150 C.3       1 SAM501      0.0000 
      7 CG         12.6570   23.6350   38.7810 C.3       1 SAM501      0.0000 
      8 SD         11.4730   23.4230   40.0200 S.3       1 SAM501      0.0000 
      9 CE         11.8360   21.9040   40.8770 C.3       1 SAM501      0.0000 
     10 C5'        10.0380   23.4440   39.0950 C.3       1 SAM501      0.0000 
     11 C4'         9.1840   24.7460   39.3590 C.3       1 SAM501      0.0000 
     12 O4'         8.2990   24.6900   38.2380 O.3       1 SAM501      0.0000 
     13 C3'         8.9620   26.0840   40.0530 C.3       1 SAM501      0.0000 
     14 O3'         9.8640   27.2420   40.1120 O.3       1 SAM501      0.0000 
     15 C2'         7.5810   26.5290   39.5550 C.3       1 SAM501      0.0000 
     16 O2'         6.8170   27.4980   40.0030 O.3       1 SAM501      0.0000 
     17 C1'         7.2170   25.5960   38.4180 C.3       1 SAM501      0.0000 
     18 N9          5.9630   25.4130   37.4550 N.pl3     1 SAM501      0.0000 
     19 C8          4.9050   24.6710   37.7520 C.2       1 SAM501      0.0000 
     20 N7          4.0480   24.7090   36.7670 N.2       1 SAM501      0.0000 
     21 C5          4.5280   25.4740   35.8140 C.ar      1 SAM501      0.0000 
     22 C6          4.0620   25.8670   34.5490 C.ar      1 SAM501      0.0000 
     23 N6          2.8830   25.4370   34.1080 N.pl3     1 SAM501      0.0000 
     24 N1          4.8340   26.7070   33.7650 N.ar      1 SAM501      0.0000 
     25 C2          6.0450   27.1630   34.1980 C.ar      1 SAM501      0.0000 
     26 N3          6.5170   26.7920   35.4180 N.ar      1 SAM501      0.0000 
     27 C4          5.7830   25.9520   36.2490 C.ar      1 SAM501      0.0000 
     28 H          15.3025   25.3344   38.0311 H         1 SAM501      0.0000 
     29 H          14.4469   24.5088   39.6590 H         1 SAM501      0.0000 
     30 H          14.5406   22.7547   39.4257 H         1 SAM501      0.0000 
     31 H          12.2572   22.8167   37.9613 H         1 SAM501      0.0000 
     32 H          12.1606   24.5737   38.1696 H         1 SAM501      0.0000 
     33 H           9.4942   22.5687   39.3840 H         1 SAM501      0.0000 
     34 H          10.3515   23.3969   38.0728 H         1 SAM501      0.0000 
     35 H           8.2231   24.0544   40.0889 H         1 SAM501      0.0000 
     36 H           8.6943   25.7940   41.1567 H         1 SAM501      0.0000 
     37 H           8.2531   27.3576   38.5826 H         1 SAM501      0.0000 
     38 H           7.8545   26.4787   37.4704 H         1 SAM501      0.0000 
     39 H           4.7926   24.1692   38.5947 H         1 SAM501      0.0000 
     40 H           2.2025   25.2231   34.8088 H         1 SAM501      0.0000 
     41 H           2.7835   25.3665   33.1155 H         1 SAM501      0.0000 
     42 H           6.6054   27.7943   33.5932 H         1 SAM501      0.0000 
     43 H          15.5401   24.6207   35.9928 H         1 SAM501      0.0000 
     44 H          14.8680   23.1650   36.1177 H         1 SAM501      0.0000 
     45 H          14.0580   24.4686   36.5981 H         1 SAM501      0.0000 
     46 H          12.7456   21.9200   41.2921 H         1 SAM501      0.0000 
     47 H          11.1815   21.7267   41.6120 H         1 SAM501      0.0000 
     48 H          11.8079   21.1153   40.2629 H         1 SAM501      0.0000 
     49 H           9.4855   27.8982   39.4592 H         1 SAM501      0.0000 
     50 H           7.1366   28.3191   39.5300 H         1 SAM501      0.0000 
@<TRIPOS>BOND
     1    2    1 1    
     2   43    1 1    
     3   44    1 1    
     4   45    1 1    
     5    3    2 1    
     6    6    2 1    
     7   28    2 1    
     8    4    3 ar   
     9    5    3 ar   
    10    7    6 1    
    11   29    6 1    
    12   30    6 1    
    13    8    7 1    
    14   31    7 1    
    15   32    7 1    
    16    9    8 1    
    17   10    8 1    
    18   46    9 1    
    19   47    9 1    
    20   48    9 1    
    21   11   10 1    
    22   33   10 1    
    23   34   10 1    
    24   12   11 1    
    25   13   11 1    
    26   35   11 1    
    27   17   12 1    
    28   14   13 1    
    29   15   13 1    
    30   36   13 1    
    31   49   14 1    
    32   16   15 1    
    33   17   15 1    
    34   37   15 1    
    35   50   16 1    
    36   18   17 1    
    37   38   17 1    
    38   19   18 1    
    39   27   18 1    
    40   20   19 2    
    41   39   19 1    
    42   21   20 1    
    43   22   21 ar   
    44   27   21 ar   
    45   23   22 1    
    46   24   22 ar   
    47   40   23 1    
    48   41   23 1    
    49   25   24 ar   
    50   26   25 ar   
    51   42   25 1    
    52   27   26 ar   
@<TRIPOS>SUBSTRUCTURE
     1 SAM501      1 GROUP   
@<TRIPOS>SET

