#    Name: 3FGU_1_CAVITY_N1_6.mol2
#    Modification time : Mon Mar 10 16:19:58 2014

@<TRIPOS>MOLECULE
3FGU_1_CAVITY_N1_6.mol2
   78     0     6     0     0
SMALL
NO_CHARGES


@<TRIPOS>ATOM
      1 O         -21.3573   -4.2424   -1.2726 O.2       2 ALA2        0.0000 
      2 O         -20.1494   -1.1082    0.2166 O.2       2 ALA2        0.0000 
      3 DU        -21.1460    0.0122    0.1777 H         6 CUB7        0.0000 
      4 O         -21.2699   -2.1053    0.2023 O.2       2 ALA2        0.0000 
      5 DU        -22.2665   -0.9849    0.1634 H         6 CUB7        0.0000 
      6 O         -22.3904   -3.1025    0.1879 O.2       2 ALA2        0.0000 
      7 DU        -23.3870   -1.9821    0.1491 H         6 CUB7        0.0000 
      8 CA        -24.3836   -0.8617    0.1102 C.3       5 GLY6        0.0000 
      9 N         -22.5143   -5.2201    0.2125 N.2       2 ALA2        0.0000 
     10 OG        -23.5109   -4.0997    0.1736 O.2       1 SER1        0.0000 
     11 DU        -24.5075   -2.9792    0.1347 H         6 CUB7        0.0000 
     12 OG        -25.5041   -1.8588    0.0959 O.2       1 SER1        0.0000 
     13 OG        -24.6314   -5.0968    0.1592 O.2       1 SER1        0.0000 
     14 OG        -25.6280   -3.9764    0.1204 O.2       1 SER1        0.0000 
     15 DU        -17.9450    0.9056    1.7447 H         6 CUB7        0.0000 
     16 NZ        -18.9416    2.0260    1.7059 N.2       4 LYS4        0.0000 
     17 OD1       -18.0689   -1.2119    1.7692 O.3       3 ASP3        0.0000 
     18 O         -19.0655   -0.0915    1.7304 O.2       2 ALA2        0.0000 
     19 DU        -20.0621    1.0289    1.6915 H         6 CUB7        0.0000 
     20 O         -21.0587    2.1493    1.6526 O.2       2 ALA2        0.0000 
     21 O         -20.1860   -1.0887    1.7160 O.2       2 ALA2        0.0000 
     22 DU        -21.1826    0.0317    1.6772 H         6 CUB7        0.0000 
     23 O         -22.1792    1.1521    1.6383 O.2       2 ALA2        0.0000 
     24 O         -21.3065   -2.0858    1.7017 O.2       2 ALA2        0.0000 
     25 DU        -22.3031   -0.9654    1.6628 H         6 CUB7        0.0000 
     26 CA        -23.2996    0.1550    1.6240 C.3       5 GLY6        0.0000 
     27 O         -22.4270   -3.0830    1.6874 O.2       2 ALA2        0.0000 
     28 DU        -23.4235   -1.9626    1.6485 H         6 CUB7        0.0000 
     29 OG        -24.4201   -0.8422    1.6096 O.2       1 SER1        0.0000 
     30 CA        -22.5509   -5.2006    1.7119 C.3       5 GLY6        0.0000 
     31 OG        -23.5474   -4.0801    1.6730 O.2       1 SER1        0.0000 
     32 OG        -24.5440   -2.9597    1.6342 O.2       1 SER1        0.0000 
     33 OG        -24.6679   -5.0773    1.6587 O.2       1 SER1        0.0000 
     34 NZ        -17.9816    0.9251    3.2441 N.2       4 LYS4        0.0000 
     35 NZ        -18.9782    2.0455    3.2053 N.2       4 LYS4        0.0000 
     36 CA        -17.1089   -2.3128    3.3075 C.3       5 GLY6        0.0000 
     37 O         -18.1055   -1.1924    3.2687 O.2       2 ALA2        0.0000 
     38 NZ        -19.1021   -0.0720    3.2298 N.2       4 LYS4        0.0000 
     39 NZ        -20.0986    1.0484    3.1909 N.2       4 LYS4        0.0000 
     40 O         -19.2260   -2.1896    3.2543 O.2       2 ALA2        0.0000 
     41 O         -20.2225   -1.0692    3.2155 O.2       2 ALA2        0.0000 
     42 DU        -21.2191    0.0512    3.1766 H         6 CUB7        0.0000 
     43 CA        -22.2157    1.1716    3.1377 C.3       5 GLY6        0.0000 
     44 O         -21.3430   -2.0663    3.2011 O.2       2 ALA2        0.0000 
     45 DU        -22.3396   -0.9459    3.1623 H         6 CUB7        0.0000 
     46 O         -23.3362    0.1745    3.1234 O.2       2 ALA2        0.0000 
     47 O         -21.4669   -4.1839    3.2257 O.2       2 ALA2        0.0000 
     48 O         -22.4635   -3.0635    3.1868 O.2       2 ALA2        0.0000 
     49 OG        -23.4601   -1.9431    3.1479 O.2       1 SER1        0.0000 
     50 CA        -24.4567   -0.8227    3.1091 C.3       5 GLY6        0.0000 
     51 CA        -22.5874   -5.1811    3.2113 C.3       5 GLY6        0.0000 
     52 OG        -23.5840   -4.0606    3.1724 O.2       1 SER1        0.0000 
     53 O         -25.5772   -1.8198    3.0947 O.2       2 ALA2        0.0000 
     54 NZ        -17.1454   -2.2933    4.8070 N.2       4 LYS4        0.0000 
     55 NZ        -18.1420   -1.1729    4.7681 N.2       4 LYS4        0.0000 
     56 NZ        -19.1386   -0.0525    4.7292 N.2       4 LYS4        0.0000 
     57 NZ        -18.2659   -3.2905    4.7926 N.2       4 LYS4        0.0000 
     58 OD1       -19.2625   -2.1701    4.7538 O.3       3 ASP3        0.0000 
     59 OD1       -20.2591   -1.0497    4.7149 O.3       3 ASP3        0.0000 
     60 CA        -21.2557    0.0707    4.6760 C.3       5 GLY6        0.0000 
     61 OD1       -20.3830   -3.1672    4.7394 O.3       3 ASP3        0.0000 
     62 OD1       -21.3796   -2.0468    4.7006 O.3       3 ASP3        0.0000 
     63 OD1       -22.3762   -0.9264    4.6617 O.3       3 ASP3        0.0000 
     64 CA        -23.3727    0.1940    4.6228 C.3       5 GLY6        0.0000 
     65 OD1       -21.5035   -4.1644    4.7251 O.3       3 ASP3        0.0000 
     66 OD1       -22.5001   -3.0440    4.6862 O.3       3 ASP3        0.0000 
     67 O         -23.4966   -1.9236    4.6473 O.2       2 ALA2        0.0000 
     68 CA        -24.4932   -0.8032    4.6085 C.3       5 GLY6        0.0000 
     69 OG        -23.6205   -4.0411    4.6719 O.2       1 SER1        0.0000 
     70 OG        -24.6171   -2.9207    4.6330 O.2       1 SER1        0.0000 
     71 OD1       -18.1786   -1.1534    6.2675 O.3       3 ASP3        0.0000 
     72 OD1       -21.2922    0.0902    6.1755 O.3       3 ASP3        0.0000 
     73 OD1       -22.4127   -0.9069    6.1611 O.3       3 ASP3        0.0000 
     74 OD1       -23.5332   -1.9041    6.1468 O.3       3 ASP3        0.0000 
     75 OD1       -23.6571   -4.0216    6.1713 O.3       3 ASP3        0.0000 
     76 O         -24.6537   -2.9012    6.1324 O.2       2 ALA2        0.0000 
     77 CA        -24.7776   -5.0188    6.1570 C.3       5 GLY6        0.0000 
     78 CA        -24.6902   -2.8817    7.6319 C.3       5 GLY6        0.0000 
@<TRIPOS>BOND
@<TRIPOS>SUBSTRUCTURE
     1 SER1       10 GROUP   
     2 ALA2        1 GROUP   
     3 ASP3       17 GROUP   
     4 LYS4       16 GROUP   
     5 GLY6        8 GROUP   
     6 CUB7        3 GROUP   
@<TRIPOS>SET

