#    Name: 3fgu_ANP_1_INTS_M
#    Modification time : Tue Mar 25 04:06:04 2014

@<TRIPOS>MOLECULE
3fgu_ANP_1_INTS_M
   57     0    12     0     0
SMALL
NO_CHARGES


@<TRIPOS>ATOM
      1 NZ        -25.4270   -5.2150    8.5260 N.4       3 LYC4        0.0000 
      2 NZ        -26.0390   -3.8240    7.5360 N.4      11 LYL4        0.0000 
      3 NZ        -24.8150   -6.6060    9.5160 N.4       7 LYP4        0.0000 
      4 N         -27.0885   -3.3965    7.4750 N.am      2 SEC2        0.0000 
      5 N         -26.0390   -3.8240    7.5360 N.am     10 SEL2        0.0000 
      6 N         -28.1380   -2.9690    7.4140 N.am      6 SEP2        0.0000 
      7 NZ        -24.1820   -5.4130    8.3990 N.4       3 LYC4        0.0000 
      8 NZ        -23.5490   -4.2200    7.2820 N.4      11 LYL4        0.0000 
      9 N         -24.1340    1.3945    3.0780 N.am      2 SEC2        0.0000 
     10 N         -23.5550    0.1790    3.2080 N.am     10 SEL2        0.0000 
     11 N         -24.7130    2.6100    2.9480 N.am      6 SEP2        0.0000 
     12 N         -25.8895    0.0675    1.5455 N.am      2 SEC2        0.0000 
     13 N         -25.2920   -0.9940    1.8400 N.am     10 SEL2        0.0000 
     14 N         -26.4870    1.1290    1.2510 N.am      6 SEP2        0.0000 
     15 CA        -26.7140   -3.2405    3.0200 C.3       4 GLC5        0.0000 
     16 CA        -25.9700   -2.0990    1.2380 C.3      12 GLL5        0.0000 
     17 CA        -27.4580   -4.3820    4.8020 C.3       8 GLP5        0.0000 
     18 O         -31.0505   -2.8265    1.6780 O.2       1 ALC1        0.0000 
     19 O         -29.4830   -3.2270    1.5650 O.2       9 ALL1        0.0000 
     20 O         -32.6180   -2.4260    1.7910 O.2       5 ALP1        0.0000 
     21 CA        -30.1755   -0.7630    1.6210 C.3       4 GLC5        0.0000 
     22 CA        -28.7520   -0.6710   -0.0570 C.3      12 GLL5        0.0000 
     23 CA        -31.5990   -0.8550    3.2990 C.3       8 GLP5        0.0000 
     24 CA        -27.0935    0.6335    0.3355 C.3       4 GLC5        0.0000 
     25 CA        -25.4350    1.9380    0.7280 C.3       8 GLP5        0.0000 
     26 CA        -26.2270    3.2575   -2.5925 C.3       4 GLC5        0.0000 
     27 CA        -28.0670    2.0710   -2.3480 C.3      12 GLL5        0.0000 
     28 CA        -24.3870    4.4440   -2.8370 C.3       8 GLP5        0.0000 
     29 CA        -29.7000    4.9480   -3.0460 C.3       4 GLC5        0.0000 
     30 CA        -28.3010    3.4150   -2.6360 C.3      12 GLL5        0.0000 
     31 CA        -31.0990    6.4810   -3.4560 C.3       8 GLP5        0.0000 
     32 CA        -27.0875    4.8120   -2.2210 C.3       4 GLC5        0.0000 
     33 CA        -25.8740    6.2090   -1.8060 C.3       8 GLP5        0.0000 
     34 N         -30.0175    5.0230   -1.9960 N.am      2 SEC2        0.0000 
     35 N         -29.0820    4.1450   -1.8030 N.am     10 SEL2        0.0000 
     36 N         -30.9530    5.9010   -2.1890 N.am      6 SEP2        0.0000 
     37 CA        -31.0045    2.4085   -0.2845 C.3       4 GLC5        0.0000 
     38 CA        -29.6400    3.5850   -0.7190 C.3      12 GLL5        0.0000 
     39 CA        -32.3690    1.2320    0.1500 C.3       8 GLP5        0.0000 
     40 CA        -30.3985    2.8050   -2.5820 C.3       4 GLC5        0.0000 
     41 CA        -31.1570    2.0250   -4.4450 C.3       8 GLP5        0.0000 
     42 CA        -30.3695    5.0330   -2.0875 C.3       4 GLC5        0.0000 
     43 CA        -29.0560    4.0670    1.1085 C.3       4 GLC5        0.0000 
     44 CA        -28.4720    4.5490    2.9360 C.3       8 GLP5        0.0000 
     45 CA        -30.5100    1.3760   -0.5350 C.3       4 GLC5        0.0000 
     46 CA        -28.6510    1.5200   -1.2200 C.3      12 GLL5        0.0000 
     47 CA        -29.9040    1.7725   -2.8325 C.3       4 GLC5        0.0000 
     48 CA        -26.0757   -0.0340    1.0455 C.3       4 GLC5        0.0000 
     49 CA        -27.4630   -1.9130    1.4880 C.3      12 GLL5        0.0000 
     50 CA        -28.0715   -2.7275    3.0633 C.3       4 GLC5        0.0000 
     51 CA        -28.2300   -3.0550    5.0090 C.3       8 GLP5        0.0000 
     52 CA        -30.7660   -0.7412   -0.4455 C.3       4 GLC5        0.0000 
     53 CA        -28.8620   -2.1380   -0.4630 C.3      12 GLL5        0.0000 
     54 CA        -32.7250   -0.0780   -0.6310 C.3       8 GLP5        0.0000 
     55 CA        -29.0690    2.1240   -3.8670 C.3       4 GLC5        0.0000 
     56 CA        -29.9540    1.5050   -5.2420 C.3       8 GLP5        0.0000 
     57 CA        -26.8970    1.8668   -0.5280 C.3       4 GLC5        0.0000 
@<TRIPOS>BOND
@<TRIPOS>SUBSTRUCTURE
     1 ALC1       18 GROUP        1 X    ALC  0     ROOT ALC X 1
     2 SEC2        4 GROUP        1 X    SEC  0     **** SEC X 2
     3 LYC4        1 GROUP        1 X    LYC  0     **** LYC X 4
     4 GLC5       15 GROUP        1 X    GLC  0     **** GLC X 6
     5 ALP1       20 GROUP        1 Y    ALP  0     ROOT ALP Y 8
     6 SEP2        6 GROUP        1 Y    SEP  0     **** SEP Y 9
     7 LYP4        3 GROUP        1 Y    LYP  0     **** LYP Y 11
     8 GLP5       17 GROUP        1 Y    GLP  0     **** GLP Y 13
     9 ALL1       19 GROUP        1 Z    ALL  0     ROOT ALL Z 15
    10 SEL2        5 GROUP        1 Z    SEL  0     **** SEL Z 16
    11 LYL4        2 GROUP        1 Z    LYL  0     **** LYL Z 18
    12 GLL5       16 GROUP        1 Z    GLL  0     **** GLL Z 20
@<TRIPOS>SET

