#    Name: 3fgu_ANP_1_ligand
#    Modification time : Tue Mar 25 04:06:04 2014

@<TRIPOS>MOLECULE
3fgu_ANP_1_ligand
   43    45     1     0     0
SMALL
NO_CHARGES


@<TRIPOS>ATOM
      1 PG        -24.6900   -3.2340    7.2080 P.3       1 ANP600      0.0000 
      2 O1G       -26.0390   -3.8240    7.5360 O.co2     1 ANP600      0.0000 
      3 O2G       -24.4060   -1.9120    7.8830 O.co2     1 ANP600      0.0000 
      4 O3G       -23.5490   -4.2200    7.2820 O.co2     1 ANP600      0.0000 
      5 PB        -23.4280   -2.3950    4.8430 P.3       1 ANP600      0.0000 
      6 O1B       -23.0230   -1.0200    5.3350 O.co2     1 ANP600      0.0000 
      7 O2B       -22.4450   -3.5520    4.9510 O.co2     1 ANP600      0.0000 
      8 N3B       -24.7990   -2.8380    5.6610 N.4       1 ANP600      0.0000 
      9 PA        -23.7710   -1.0440    2.3700 P.3       1 ANP600      0.0000 
     10 O1A       -23.5550    0.1790    3.2080 O.co2     1 ANP600      0.0000 
     11 O2A       -22.8340   -1.3400    1.2200 O.co2     1 ANP600      0.0000 
     12 O3A       -23.8230   -2.3530    3.2940 O.3       1 ANP600      0.0000 
     13 O5'       -25.2920   -0.9940    1.8400 O.3       1 ANP600      0.0000 
     14 C5'       -25.9700   -2.0990    1.2380 C.3       1 ANP600      0.0000 
     15 C4'       -27.4630   -1.9130    1.4880 C.3       1 ANP600      0.0000 
     16 O4'       -27.8410   -0.6140    1.0440 O.3       1 ANP600      0.0000 
     17 C3'       -28.3630   -2.8870    0.7470 C.3       1 ANP600      0.0000 
     18 O3'       -29.4830   -3.2270    1.5650 O.3       1 ANP600      0.0000 
     19 C2'       -28.8620   -2.1380   -0.4630 C.3       1 ANP600      0.0000 
     20 O2'       -30.2100   -2.5060   -0.7620 O.3       1 ANP600      0.0000 
     21 C1'       -28.7520   -0.6710   -0.0570 C.3       1 ANP600      0.0000 
     22 N9        -28.2970    0.2350   -1.1530 N.pl3     1 ANP600      0.0000 
     23 C8        -27.4980   -0.0330   -2.2060 C.2       1 ANP600      0.0000 
     24 N7        -27.3460    1.0930   -2.9430 N.2       1 ANP600      0.0000 
     25 C5        -28.0670    2.0710   -2.3480 C.ar      1 ANP600      0.0000 
     26 C6        -28.3010    3.4150   -2.6360 C.ar      1 ANP600      0.0000 
     27 N6        -27.7470    3.9930   -3.7290 N.pl3     1 ANP600      0.0000 
     28 N1        -29.0820    4.1450   -1.8030 N.ar      1 ANP600      0.0000 
     29 C2        -29.6400    3.5850   -0.7190 C.ar      1 ANP600      0.0000 
     30 N3        -29.4260    2.2910   -0.4250 N.ar      1 ANP600      0.0000 
     31 C4        -28.6510    1.5200   -1.2200 C.ar      1 ANP600      0.0000 
     32 H         -25.6705   -3.0475    1.6769 H         1 ANP600      0.0000 
     33 H         -25.8106   -2.1369    0.1632 H         1 ANP600      0.0000 
     34 H         -27.6564   -2.0071    2.5485 H         1 ANP600      0.0000 
     35 H         -27.8009   -3.7182    0.4385 H         1 ANP600      0.0000 
     36 H         -28.1876   -2.3111   -1.2678 H         1 ANP600      0.0000 
     37 H         -29.7430   -0.3542    0.2820 H         1 ANP600      0.0000 
     38 H         -27.0960   -0.8915   -2.4058 H         1 ANP600      0.0000 
     39 H         -27.9836    4.9516   -3.8874 H         1 ANP600      0.0000 
     40 H         -27.1506    3.4098   -4.2805 H         1 ANP600      0.0000 
     41 H         -30.2515    4.1637   -0.0920 H         1 ANP600      0.0000 
     42 H         -30.2814   -3.0986    0.9767 H         1 ANP600      0.0000 
     43 H         -30.1415   -3.1272   -1.5427 H         1 ANP600      0.0000 
@<TRIPOS>BOND
     1    2    1 ar   
     2    3    1 ar   
     3    4    1 ar   
     4    8    1 1    
     5    6    5 ar   
     6    7    5 ar   
     7    8    5 1    
     8   12    5 1    
     9   10    9 ar   
    10   11    9 ar   
    11   12    9 1    
    12   13    9 1    
    13   14   13 1    
    14   15   14 1    
    15   32   14 1    
    16   33   14 1    
    17   16   15 1    
    18   17   15 1    
    19   34   15 1    
    20   21   16 1    
    21   18   17 1    
    22   19   17 1    
    23   35   17 1    
    24   42   18 1    
    25   20   19 1    
    26   21   19 1    
    27   36   19 1    
    28   43   20 1    
    29   22   21 1    
    30   37   21 1    
    31   23   22 1    
    32   31   22 1    
    33   24   23 2    
    34   38   23 1    
    35   25   24 1    
    36   26   25 ar   
    37   31   25 ar   
    38   27   26 1    
    39   28   26 ar   
    40   39   27 1    
    41   40   27 1    
    42   29   28 ar   
    43   30   29 ar   
    44   41   29 1    
    45   31   30 ar   
@<TRIPOS>SUBSTRUCTURE
     1 ANP600      1 GROUP   
@<TRIPOS>SET

