#    Name: 3qox_SAH_1_INTS_M
#    Modification time : Tue Mar 25 09:59:36 2014

@<TRIPOS>MOLECULE
3qox_SAH_1_INTS_M
   75     0    12     0     0
SMALL
NO_CHARGES


@<TRIPOS>ATOM
      1 OD1        41.8635   49.9025    0.7885 O.co2     3 ASC3        0.0000 
      2 OD1        41.8560   51.3360    1.4430 O.co2    11 ASL3        0.0000 
      3 OD1        41.8710   48.4690    0.1340 O.co2     7 ASP3        0.0000 
      4 OD1        40.9965   50.5680    0.6585 O.co2     3 ASC3        0.0000 
      5 OD1        40.1370   49.8000   -0.1260 O.co2     7 ASP3        0.0000 
      6 O          40.9965   50.5680    0.6585 O.2       1 ALC1        0.0000 
      7 O          41.8560   51.3360    1.4430 O.2       9 ALL1        0.0000 
      8 O          40.1370   49.8000   -0.1260 O.2       5 ALP1        0.0000 
      9 O          42.0455   50.4845    2.5390 O.2       1 ALC1        0.0000 
     10 O          42.2350   49.6330    3.6350 O.2       5 ALP1        0.0000 
     11 CA         40.5550   50.9265    2.5620 C.3       4 GLC5        0.0000 
     12 CA         41.5950   52.7270    1.9560 C.3      12 GLL5        0.0000 
     13 CA         39.5150   49.1260    3.1680 C.3       8 GLP5        0.0000 
     14 CA         41.4715   54.2375    4.9540 C.3       4 GLC5        0.0000 
     15 CA         42.2760   52.9610    3.3260 C.3      12 GLL5        0.0000 
     16 CA         40.6670   55.5140    6.5820 C.3       8 GLP5        0.0000 
     17 CA         45.0770   52.5270    1.9435 C.3       4 GLC5        0.0000 
     18 CA         43.8070   52.8570    3.3140 C.3      12 GLL5        0.0000 
     19 CA         46.3470   52.1970    0.5730 C.3       8 GLP5        0.0000 
     20 CA         44.7420   54.5805    6.4680 C.3       4 GLC5        0.0000 
     21 CA         44.4650   53.1980    4.9230 C.3      12 GLL5        0.0000 
     22 CA         45.0190   55.9630    8.0130 C.3       8 GLP5        0.0000 
     23 CA         44.8365   55.3870    4.7420 C.3       4 GLC5        0.0000 
     24 CA         45.2080   57.5760    4.5610 C.3       8 GLP5        0.0000 
     25 N          42.2625   55.8805    0.1755 N.am      2 SEC2        0.0000 
     26 N          41.5410   54.8350    0.7830 N.am     10 SEL2        0.0000 
     27 N          42.9840   56.9260   -0.4320 N.am      6 SEP2        0.0000 
     28 N          40.2455   55.4095    0.3685 N.am      2 SEC2        0.0000 
     29 N          38.9500   55.9840   -0.0460 N.am      6 SEP2        0.0000 
     30 N          43.5655   54.0705   -0.7725 N.am      2 SEC2        0.0000 
     31 N          43.0140   53.4450    0.1850 N.am     10 SEL2        0.0000 
     32 N          44.1170   54.6960   -1.7300 N.am      6 SEP2        0.0000 
     33 CA         43.3775   49.1820    5.4380 C.3       4 GLC5        0.0000 
     34 CA         44.1380   50.8630    6.2410 C.3      12 GLL5        0.0000 
     35 CA         42.6170   47.5010    4.6350 C.3       8 GLP5        0.0000 
     36 O          41.6825   50.6300    7.6320 O.2       1 ALC1        0.0000 
     37 O          42.5650   51.5950    7.9370 O.2       9 ALL1        0.0000 
     38 O          40.8000   49.6650    7.3270 O.2       5 ALP1        0.0000 
     39 CA         45.6365   50.7300    9.9810 C.3       4 GLC5        0.0000 
     40 CA         44.4170   50.1910    8.5490 C.3      12 GLL5        0.0000 
     41 CA         46.8560   51.2690   11.4130 C.3       8 GLP5        0.0000 
     42 O          42.2975   49.6485    9.5795 O.2       1 ALC1        0.0000 
     43 O          43.5890   50.0310    9.6960 O.2       9 ALL1        0.0000 
     44 O          41.0060   49.2660    9.4630 O.2       5 ALP1        0.0000 
     45 CA         43.3960   48.2675    6.1245 C.3       4 GLC5        0.0000 
     46 CA         44.1750   49.0340    7.6140 C.3      12 GLL5        0.0000 
     47 CA         46.1220   48.9825    6.5865 C.3       4 GLC5        0.0000 
     48 CA         48.0690   48.9310    5.5590 C.3       8 GLP5        0.0000 
     49 CA         44.5050   44.3595   10.6380 C.3       4 GLC5        0.0000 
     50 CA         44.9950   44.2720    8.7310 C.3      12 GLL5        0.0000 
     51 CA         44.0150   44.4470   12.5450 C.3       8 GLP5        0.0000 
     52 CA         43.5975   42.6455    9.2690 C.3       4 GLC5        0.0000 
     53 CA         42.2000   41.0190    9.8070 C.3       8 GLP5        0.0000 
     54 O          45.4400   42.0530    9.6265 O.2       1 ALC1        0.0000 
     55 O          45.8930   43.3580    9.1770 O.2       9 ALL1        0.0000 
     56 O          44.9870   40.7480   10.0760 O.2       5 ALP1        0.0000 
     57 N          43.4840   42.4140    8.0085 N.am      2 SEC2        0.0000 
     58 N          43.7220   43.9090    8.4150 N.am     10 SEL2        0.0000 
     59 N          43.2460   40.9190    7.6020 N.am      6 SEP2        0.0000 
     60 CA         42.7160   46.1550    6.3015 C.3       4 GLC5        0.0000 
     61 CA         42.8150   44.8090    7.9680 C.3      12 GLL5        0.0000 
     62 CA         41.0235   45.6910    7.8000 C.3       4 GLC5        0.0000 
     63 CA         39.2320   46.5730    7.6320 C.3       8 GLP5        0.0000 
     64 CA         42.4680   45.0945    9.5860 C.3       4 GLC5        0.0000 
     65 CA         42.1210   45.3800   11.2040 C.3       8 GLP5        0.0000 
     66 CA         42.5075   42.9140    8.8875 C.3       4 GLC5        0.0000 
     67 N          41.7500   46.2135    8.7665 N.am      2 SEC2        0.0000 
     68 N          43.0870   46.1190    7.8160 N.am     10 SEL2        0.0000 
     69 N          40.4130   46.3080    9.7170 N.am      6 SEP2        0.0000 
     70 CA         43.4670   47.0575    6.3620 C.3       4 GLC5        0.0000 
     71 CA         44.3170   46.6140    8.0890 C.3      12 GLL5        0.0000 
     72 CA         40.5423   52.4235    4.1500 C.3       4 GLC5        0.0000 
     73 CA         39.1490   52.0030    5.6590 C.3       8 GLP5        0.0000 
     74 CA         46.3618   50.0970    5.7020 C.3       4 GLC5        0.0000 
     75 CA         43.4815   45.7700    9.7685 C.3       4 GLC5        0.0000 
@<TRIPOS>BOND
@<TRIPOS>SUBSTRUCTURE
     1 ALC1        6 GROUP        1 X    ALC  0     ROOT ALC X 1
     2 SEC2       25 GROUP        1 X    SEC  0     **** SEC X 2
     3 ASC3        1 GROUP        1 X    ASC  0     **** ASC X 3
     4 GLC5       11 GROUP        1 X    GLC  0     **** GLC X 6
     5 ALP1        8 GROUP        1 Y    ALP  0     ROOT ALP Y 8
     6 SEP2       27 GROUP        1 Y    SEP  0     **** SEP Y 9
     7 ASP3        3 GROUP        1 Y    ASP  0     **** ASP Y 10
     8 GLP5       13 GROUP        1 Y    GLP  0     **** GLP Y 13
     9 ALL1        7 GROUP        1 Z    ALL  0     ROOT ALL Z 15
    10 SEL2       26 GROUP        1 Z    SEL  0     **** SEL Z 16
    11 ASL3        2 GROUP        1 Z    ASL  0     **** ASL Z 17
    12 GLL5       12 GROUP        1 Z    GLL  0     **** GLL Z 20
@<TRIPOS>SET

