#    Name: 3qox_SAH_1_ligand
#    Modification time : Tue Mar 25 09:59:36 2014

@<TRIPOS>MOLECULE
3qox_SAH_1_ligand
   46    48     1     0     0
SMALL
NO_CHARGES


@<TRIPOS>ATOM
      1 N          41.8560   51.3360    1.4430 N.4       1 SAH417      0.0000 
      2 CA         41.5950   52.7270    1.9560 C.3       1 SAH417      0.0000 
      3 CB         42.2760   52.9610    3.3260 C.3       1 SAH417      0.0000 
      4 CG         43.8070   52.8570    3.3140 C.3       1 SAH417      0.0000 
      5 SD         44.4650   53.1980    4.9230 S.3       1 SAH417      0.0000 
      6 C          42.0710   53.7240    0.9240 C.2       1 SAH417      0.0000 
      7 O          41.5410   54.8350    0.7830 O.co2     1 SAH417      0.0000 
      8 OXT        43.0140   53.4450    0.1850 O.co2     1 SAH417      0.0000 
      9 C5'        45.1710   51.6630    5.4490 C.3       1 SAH417      0.0000 
     10 C4'        44.1380   50.8630    6.2410 C.3       1 SAH417      0.0000 
     11 O4'        44.6050   49.5150    6.3440 O.3       1 SAH417      0.0000 
     12 C3'        43.9540   51.3520    7.6820 C.3       1 SAH417      0.0000 
     13 O3'        42.5650   51.5950    7.9370 O.3       1 SAH417      0.0000 
     14 C2'        44.4170   50.1910    8.5490 C.3       1 SAH417      0.0000 
     15 O2'        43.5890   50.0310    9.6960 O.3       1 SAH417      0.0000 
     16 C1'        44.1750   49.0340    7.6140 C.3       1 SAH417      0.0000 
     17 N9         44.8820   47.8210    8.0420 N.pl3     1 SAH417      0.0000 
     18 C8         46.1780   47.7380    8.4470 C.2       1 SAH417      0.0000 
     19 N7         46.4740   46.4620    8.7670 N.2       1 SAH417      0.0000 
     20 C5         45.3670   45.7060    8.5770 C.ar      1 SAH417      0.0000 
     21 C6         44.9950   44.2720    8.7310 C.ar      1 SAH417      0.0000 
     22 N6         45.8930   43.3580    9.1770 N.pl3     1 SAH417      0.0000 
     23 N1         43.7220   43.9090    8.4150 N.ar      1 SAH417      0.0000 
     24 C2         42.8150   44.8090    7.9680 C.ar      1 SAH417      0.0000 
     25 N3         43.0870   46.1190    7.8160 N.ar      1 SAH417      0.0000 
     26 C4         44.3170   46.6140    8.0890 C.ar      1 SAH417      0.0000 
     27 H          40.5233   52.8531    2.0869 H         1 SAH417      0.0000 
     28 H          41.8723   52.2285    4.0465 H         1 SAH417      0.0000 
     29 H          41.9872   53.9611    3.6934 H         1 SAH417      0.0000 
     30 H          44.2674   53.5916    2.6955 H         1 SAH417      0.0000 
     31 H          44.1538   51.8717    3.1065 H         1 SAH417      0.0000 
     32 H          46.0058   51.9616    6.0355 H         1 SAH417      0.0000 
     33 H          45.4521   51.1936    4.5376 H         1 SAH417      0.0000 
     34 H          43.1957   50.8978    5.7409 H         1 SAH417      0.0000 
     35 H          44.5695   52.1792    7.8486 H         1 SAH417      0.0000 
     36 H          45.4318   50.2768    8.7344 H         1 SAH417      0.0000 
     37 H          43.1010   48.8618    7.5960 H         1 SAH417      0.0000 
     38 H          46.7928   48.4895    8.4960 H         1 SAH417      0.0000 
     39 H          45.5721   42.4120    9.2228 H         1 SAH417      0.0000 
     40 H          46.7963   43.7111    9.4205 H         1 SAH417      0.0000 
     41 H          41.8390   44.4609    7.7254 H         1 SAH417      0.0000 
     42 H          41.1022   51.0011    0.8777 H         1 SAH417      0.0000 
     43 H          42.6831   51.2961    0.8823 H         1 SAH417      0.0000 
     44 H          41.9760   50.6814    2.1893 H         1 SAH417      0.0000 
     45 H          42.0944   50.7765    7.6074 H         1 SAH417      0.0000 
     46 H          42.7111   49.7122    9.3388 H         1 SAH417      0.0000 
@<TRIPOS>BOND
     1    2    1 1    
     2   42    1 1    
     3   43    1 1    
     4   44    1 1    
     5    3    2 1    
     6    6    2 1    
     7   27    2 1    
     8    4    3 1    
     9   28    3 1    
    10   29    3 1    
    11    5    4 1    
    12   30    4 1    
    13   31    4 1    
    14    9    5 1    
    15    7    6 ar   
    16    8    6 ar   
    17   10    9 1    
    18   32    9 1    
    19   33    9 1    
    20   11   10 1    
    21   12   10 1    
    22   34   10 1    
    23   16   11 1    
    24   13   12 1    
    25   14   12 1    
    26   35   12 1    
    27   45   13 1    
    28   15   14 1    
    29   16   14 1    
    30   36   14 1    
    31   46   15 1    
    32   17   16 1    
    33   37   16 1    
    34   18   17 1    
    35   26   17 1    
    36   19   18 2    
    37   38   18 1    
    38   20   19 1    
    39   21   20 ar   
    40   26   20 ar   
    41   22   21 1    
    42   23   21 ar   
    43   39   22 1    
    44   40   22 1    
    45   24   23 ar   
    46   25   24 ar   
    47   41   24 1    
    48   26   25 ar   
@<TRIPOS>SUBSTRUCTURE
     1 SAH417      1 GROUP   
@<TRIPOS>SET

