#    Name: 3o82_HP8_2_INTS_M
#    Modification time : Tue Mar 25 03:20:23 2014

@<TRIPOS>MOLECULE
3o82_HP8_2_INTS_M
   77     0     9     0     0
SMALL
NO_CHARGES


@<TRIPOS>ATOM
      1 CA         -7.4710   -1.1325    0.7565 C.3       3 GLC5        0.0000 
      2 CA         -7.4070    0.8220    0.2480 C.3       9 GLL5        0.0000 
      3 CA         -7.5350   -3.0870    1.2650 C.3       6 GLP5        0.0000 
      4 CA         -7.1245    0.1725    2.0775 C.3       3 GLC5        0.0000 
      5 CA         -6.8420   -0.4770    3.9070 C.3       6 GLP5        0.0000 
      6 CA         -8.3105    2.2630    0.1320 C.3       3 GLC5        0.0000 
      7 CA         -9.2140    3.7040    0.0160 C.3       6 GLP5        0.0000 
      8 CA         -5.4500    0.3815   -3.4230 C.3       3 GLC5        0.0000 
      9 CA         -6.5610   -0.4970   -1.9690 C.3       9 GLL5        0.0000 
     10 CA         -4.3390    1.2600   -4.8770 C.3       6 GLP5        0.0000 
     11 CA         -5.2565    1.3880   -2.6775 C.3       3 GLC5        0.0000 
     12 CA         -5.6870    0.2130   -1.1590 C.3       9 GLL5        0.0000 
     13 CA         -4.8260    2.5630   -4.1960 C.3       6 GLP5        0.0000 
     14 CA         -4.5280    1.9205   -0.9535 C.3       3 GLC5        0.0000 
     15 CA         -3.3690    3.6280   -0.7480 C.3       6 GLP5        0.0000 
     16 CA         -6.5280    2.1840   -1.3585 C.3       3 GLC5        0.0000 
     17 CA         -7.3690    4.1550   -1.5580 C.3       6 GLP5        0.0000 
     18 O          -3.5510   -0.1870   -2.5850 O.2       1 ALC1        0.0000 
     19 O          -4.3850    0.2550   -1.4540 O.2       7 ALL1        0.0000 
     20 O          -2.7170   -0.6290   -3.7160 O.2       4 ALP1        0.0000 
     21 N          -5.7560   -2.5155   -2.5600 N.am      2 SEC2        0.0000 
     22 N          -6.4200   -1.2460   -3.1020 N.am      8 SEL2        0.0000 
     23 N          -5.0920   -3.7850   -2.0180 N.am      5 SEP2        0.0000 
     24 O         -12.2910    0.9535   -2.5580 O.2       1 ALC1        0.0000 
     25 O         -12.0580   -0.3020   -2.4580 O.2       7 ALL1        0.0000 
     26 O         -12.5240    2.2090   -2.6580 O.2       4 ALP1        0.0000 
     27 N          -6.7935   -4.6715  -10.4695 N.am      2 SEC2        0.0000 
     28 N          -6.9660   -4.4540   -8.8630 N.am      8 SEL2        0.0000 
     29 N          -6.6210   -4.8890  -12.0760 N.am      5 SEP2        0.0000 
     30 O          -7.8135   -3.5040  -10.0395 O.2       1 ALC1        0.0000 
     31 O          -6.9660   -4.4540   -8.8630 O.2       7 ALL1        0.0000 
     32 O          -8.6610   -2.5540  -11.2160 O.2       4 ALP1        0.0000 
     33 CA        -10.7240   -0.8140   -6.7815 C.3       3 GLC5        0.0000 
     34 CA        -10.9400   -0.6590   -4.5530 C.3       9 GLL5        0.0000 
     35 CA        -10.5080   -0.9690   -9.0100 C.3       6 GLP5        0.0000 
     36 O         -12.2200    1.2125   -4.9755 O.2       1 ALC1        0.0000 
     37 O         -12.0940   -0.0030   -5.0580 O.2       7 ALL1        0.0000 
     38 O         -12.3460    2.4280   -4.8930 O.2       4 ALP1        0.0000 
     39 N          -3.4125   -3.9720  -10.2595 N.am      2 SEC2        0.0000 
     40 N          -4.3890   -3.7800   -9.3230 N.am      8 SEL2        0.0000 
     41 N          -2.4360   -4.1640  -11.1960 N.am      5 SEP2        0.0000 
     42 CA        -10.1395   -2.4320   -7.3745 C.3       3 GLC5        0.0000 
     43 CA        -10.9450   -2.9010   -5.7570 C.3       9 GLL5        0.0000 
     44 CA         -9.3340   -1.9630   -8.9920 C.3       6 GLP5        0.0000 
     45 CA         -3.4920   -3.5220   -3.8375 C.3       3 GLC5        0.0000 
     46 CA         -4.2760   -3.6500   -5.7660 C.3       9 GLL5        0.0000 
     47 CA         -2.7080   -3.3940   -1.9090 C.3       6 GLP5        0.0000 
     48 N         -10.5890   -4.4925   -8.9420 N.am      2 SEC2        0.0000 
     49 N         -11.1150   -5.0380   -7.6790 N.am      8 SEL2        0.0000 
     50 N         -10.0630   -3.9470  -10.2050 N.am      5 SEP2        0.0000 
     51 CA         -6.7625   -2.5492   -1.8773 C.3       3 GLC5        0.0000 
     52 CA         -7.9110   -0.5140   -1.6100 C.3       9 GLL5        0.0000 
     53 CA         -6.2890   -4.5930   -1.9650 C.3       6 GLP5        0.0000 
     54 CA         -6.9983   -1.6166   -0.1046 C.3       3 GLC5        0.0000 
     55 CA         -4.8948   -5.7155   -7.1220 C.3       3 GLC5        0.0000 
     56 CA         -6.4950   -4.2380   -6.4660 C.3       9 GLL5        0.0000 
     57 CA         -3.4870   -7.2290   -7.1040 C.3       6 GLP5        0.0000 
     58 CA         -6.1528   -2.4005   -7.4505 C.3       3 GLC5        0.0000 
     59 CA         -6.1100   -4.1660   -7.8140 C.3       9 GLL5        0.0000 
     60 CA         -6.0030   -0.5990   -7.7610 C.3       6 GLP5        0.0000 
     61 CA         -7.8182   -3.0825   -8.0660 C.3       3 GLC5        0.0000 
     62 CA         -9.7715    0.9547   -4.3042 C.3       3 GLC5        0.0000 
     63 CA         -8.6950    2.4090   -4.7920 C.3       6 GLP5        0.0000 
     64 CA         -3.9100   -5.4757   -7.3380 C.3       3 GLC5        0.0000 
     65 CA         -4.7970   -3.8590   -8.0620 C.3       9 GLL5        0.0000 
     66 CA         -2.8380   -4.0377   -8.9605 C.3       3 GLC5        0.0000 
     67 CA         -3.8690   -3.5860   -7.0820 C.3       9 GLL5        0.0000 
     68 CA         -1.3430   -4.3530  -10.3490 C.3       6 GLP5        0.0000 
     69 CA         -5.1680   -2.1608   -7.6665 C.3       3 GLC5        0.0000 
     70 CA         -3.4765   -2.0557   -8.7435 C.3       3 GLC5        0.0000 
     71 CA         -2.6200   -0.3890   -9.9150 C.3       6 GLP5        0.0000 
     72 CA         -2.5137   -2.4940   -6.6265 C.3       3 GLC5        0.0000 
     73 CA         -0.9550   -1.3700   -6.8290 C.3       6 GLP5        0.0000 
     74 CA         -4.2118   -5.5262   -6.3563 C.3       3 GLC5        0.0000 
     75 CA         -5.6128   -4.2082   -3.7867 C.3       3 GLC5        0.0000 
     76 CA         -5.4698   -2.2112   -6.6848 C.3       3 GLC5        0.0000 
     77 CA         -5.5970   -3.9970   -5.4510 C.3       9 GLL5        0.0000 
@<TRIPOS>BOND
@<TRIPOS>SUBSTRUCTURE
     1 ALC1       18 GROUP        1 X    ALC  0     ROOT ALC X 1
     2 SEC2       21 GROUP        1 X    SEC  0     **** SEC X 2
     3 GLC5        1 GROUP        1 X    GLC  0     **** GLC X 6
     4 ALP1       20 GROUP        1 Y    ALP  0     ROOT ALP Y 8
     5 SEP2       23 GROUP        1 Y    SEP  0     **** SEP Y 9
     6 GLP5        3 GROUP        1 Y    GLP  0     **** GLP Y 13
     7 ALL1       19 GROUP        1 Z    ALL  0     ROOT ALL Z 15
     8 SEL2       22 GROUP        1 Z    SEL  0     **** SEL Z 16
     9 GLL5        2 GROUP        1 Z    GLL  0     **** GLL Z 20
@<TRIPOS>SET

