#    Name: 3o82_HP8_2_ligand
#    Modification time : Tue Mar 25 03:20:23 2014

@<TRIPOS>MOLECULE
3o82_HP8_2_ligand
   51    54     1     0     0
SMALL
NO_CHARGES


@<TRIPOS>ATOM
      1 S         -10.1970   -5.2570   -6.5680 S.o2      1 HP8602      0.0000 
      2 N1         -6.1190    0.8630   -0.0650 N.ar      1 HP8602      0.0000 
      3 C2         -7.4070    0.8220    0.2480 C.ar      1 HP8602      0.0000 
      4 N3         -8.3030    0.1700   -0.5030 N.ar      1 HP8602      0.0000 
      5 C4         -7.9110   -0.5140   -1.6100 C.ar      1 HP8602      0.0000 
      6 C5         -6.5610   -0.4970   -1.9690 C.ar      1 HP8602      0.0000 
      7 C6         -5.6870    0.2130   -1.1590 C.ar      1 HP8602      0.0000 
      8 N6         -4.3850    0.2550   -1.4540 N.pl3     1 HP8602      0.0000 
      9 N7         -6.4200   -1.2460   -3.1020 N.2       1 HP8602      0.0000 
     10 C8         -7.6690   -1.6990   -3.4190 C.2       1 HP8602      0.0000 
     11 N9         -8.5730   -1.2590   -2.5200 N.pl3     1 HP8602      0.0000 
     12 O9         -8.1150   -4.6700   -4.8710 O.2       1 HP8602      0.0000 
     13 C1'       -10.0100   -1.5330   -2.5210 C.3       1 HP8602      0.0000 
     14 C1S        -6.4950   -4.2380   -6.4660 C.ar      1 HP8602      0.0000 
     15 C2'       -10.7560   -0.3400   -3.0800 C.3       1 HP8602      0.0000 
     16 O2'       -12.0580   -0.3020   -2.4580 O.3       1 HP8602      0.0000 
     17 C21        -7.8580   -4.6280   -6.0630 C.2       1 HP8602      0.0000 
     18 C2S        -6.1100   -4.1660   -7.8140 C.ar      1 HP8602      0.0000 
     19 O2S        -6.9660   -4.4540   -8.8630 O.3       1 HP8602      0.0000 
     20 C3'       -10.9400   -0.6590   -4.5530 C.3       1 HP8602      0.0000 
     21 O3'       -12.0940   -0.0030   -5.0580 O.3       1 HP8602      0.0000 
     22 C3S        -4.7970   -3.8590   -8.0620 C.ar      1 HP8602      0.0000 
     23 O3S        -4.3890   -3.7800   -9.3230 O.3       1 HP8602      0.0000 
     24 C4'       -11.1720   -2.1500   -4.4670 C.3       1 HP8602      0.0000 
     25 O4'       -10.2360   -2.5740   -3.4540 O.3       1 HP8602      0.0000 
     26 C4S        -3.8690   -3.5860   -7.0820 C.ar      1 HP8602      0.0000 
     27 C5'       -10.9450   -2.9010   -5.7570 C.3       1 HP8602      0.0000 
     28 O5'       -10.6130   -4.2710   -5.4540 O.3       1 HP8602      0.0000 
     29 C5S        -4.2760   -3.6500   -5.7660 C.ar      1 HP8602      0.0000 
     30 C6S        -5.5970   -3.9970   -5.4510 C.ar      1 HP8602      0.0000 
     31 NHS        -8.7410   -4.8920   -7.0190 N.am      1 HP8602      0.0000 
     32 OS1       -11.1150   -5.0380   -7.6790 O.2       1 HP8602      0.0000 
     33 OS2       -10.0740   -6.5680   -6.0630 O.2       1 HP8602      0.0000 
     34 H          -7.7444    1.3216    1.1229 H         1 HP8602      0.0000 
     35 H          -3.8045    0.7566   -0.8126 H         1 HP8602      0.0000 
     36 H          -4.1077   -0.2189   -2.2898 H         1 HP8602      0.0000 
     37 H          -7.8694   -2.2621   -4.1906 H         1 HP8602      0.0000 
     38 H         -10.3698   -1.7625   -1.5699 H         1 HP8602      0.0000 
     39 H         -10.2040    0.5212   -2.9616 H         1 HP8602      0.0000 
     40 H         -10.0542   -0.4746   -5.0553 H         1 HP8602      0.0000 
     41 H         -12.1777   -2.3134   -4.1119 H         1 HP8602      0.0000 
     42 H          -2.9083   -3.3434   -7.3215 H         1 HP8602      0.0000 
     43 H         -10.1369   -2.4099   -6.3064 H         1 HP8602      0.0000 
     44 H         -11.8555   -2.8382   -6.3595 H         1 HP8602      0.0000 
     45 H          -3.6140   -3.4437   -5.0039 H         1 HP8602      0.0000 
     46 H          -5.8811   -4.0678   -4.4683 H         1 HP8602      0.0000 
     47 H          -8.5974   -4.8886   -8.0033 H         1 HP8602      0.0000 
     48 H         -12.5206    0.4810   -2.8738 H         1 HP8602      0.0000 
     49 H          -6.8023   -3.7326   -9.5359 H         1 HP8602      0.0000 
     50 H         -11.7748    0.9018   -5.3397 H         1 HP8602      0.0000 
     51 H          -4.9653   -3.0758   -9.7377 H         1 HP8602      0.0000 
@<TRIPOS>BOND
     1   28    1 1    
     2   31    1 1    
     3   32    1 2    
     4   33    1 2    
     5    3    2 ar   
     6    7    2 ar   
     7    4    3 ar   
     8   34    3 1    
     9    5    4 ar   
    10    6    5 ar   
    11   11    5 1    
    12    7    6 ar   
    13    9    6 1    
    14    8    7 1    
    15   35    8 1    
    16   36    8 1    
    17   10    9 2    
    18   11   10 1    
    19   37   10 1    
    20   13   11 1    
    21   17   12 2    
    22   15   13 1    
    23   25   13 1    
    24   38   13 1    
    25   17   14 1    
    26   18   14 ar   
    27   30   14 ar   
    28   16   15 1    
    29   20   15 1    
    30   39   15 1    
    31   48   16 1    
    32   31   17 am   
    33   19   18 1    
    34   22   18 ar   
    35   49   19 1    
    36   21   20 1    
    37   24   20 1    
    38   40   20 1    
    39   50   21 1    
    40   23   22 1    
    41   26   22 ar   
    42   51   23 1    
    43   25   24 1    
    44   27   24 1    
    45   41   24 1    
    46   29   26 ar   
    47   42   26 1    
    48   28   27 1    
    49   43   27 1    
    50   44   27 1    
    51   30   29 ar   
    52   45   29 1    
    53   46   30 1    
    54   47   31 1    
@<TRIPOS>SUBSTRUCTURE
     1 HP8602      1 GROUP   
@<TRIPOS>SET

