#    Name: 3v0m_5GW_1_INTS_M
#    Modification time : Mon Mar 24 23:49:34 2014

@<TRIPOS>MOLECULE
3v0m_5GW_1_INTS_M
   57     0    15     0     0
SMALL
NO_CHARGES


@<TRIPOS>ATOM
      1 CA         34.2765   53.3385    0.4725 C.3       5 GLC5        0.0000 
      2 CA         33.3270   53.6300    1.8140 C.3      15 GLL5        0.0000 
      3 CA         35.2260   53.0470   -0.8690 C.3      10 GLP5        0.0000 
      4 CA         33.9730   51.5965    1.1030 C.3       5 GLC5        0.0000 
      5 CA         32.8550   52.4250    2.3430 C.3      15 GLL5        0.0000 
      6 CA         35.0910   50.7680   -0.1370 C.3      10 GLP5        0.0000 
      7 O          30.8645   54.0250   -0.9045 O.2       1 ALC1        0.0000 
      8 O          31.4530   53.6580    0.3430 O.2      11 ALL1        0.0000 
      9 O          30.2760   54.3920   -2.1520 O.2       6 ALP1        0.0000 
     10 N          29.1090   52.2585   -0.6225 N.am      2 SEC2        0.0000 
     11 N          29.9820   51.9560    0.4750 N.am     12 SEL2        0.0000 
     12 N          28.2360   52.5610   -1.7200 N.am      7 SEP2        0.0000 
     13 CA         29.1605   50.0300    2.2625 C.3       5 GLC5        0.0000 
     14 CA         31.2040   50.6150    2.4230 C.3      15 GLL5        0.0000 
     15 CA         27.1170   49.4450    2.1020 C.3      10 GLP5        0.0000 
     16 CA         30.3325   52.6110    2.9175 C.3       5 GLC5        0.0000 
     17 CA         29.4610   54.6070    3.4120 C.3      10 GLP5        0.0000 
     18 O          29.9010   48.5830    0.7315 O.2       1 ALC1        0.0000 
     19 O          30.7630   48.4400    1.7280 O.2      11 ALL1        0.0000 
     20 O          29.0390   48.7260   -0.2650 O.2       6 ALP1        0.0000 
     21 CA         34.0040   49.9560    1.0995 C.3       5 GLC5        0.0000 
     22 CA         32.9170   49.1440    2.3360 C.3      15 GLL5        0.0000 
     23 N          32.5950   46.5650    1.3905 N.am      2 SEC2        0.0000 
     24 N          33.2090   47.8250    2.0220 N.am     12 SEL2        0.0000 
     25 N          31.9810   45.3050    0.7590 N.am      7 SEP2        0.0000 
     26 O          34.4375   46.9735    1.7465 O.2       1 ALC1        0.0000 
     27 O          33.2090   47.8250    2.0220 O.2      11 ALL1        0.0000 
     28 O          35.6660   46.1220    1.4710 O.2       6 ALP1        0.0000 
     29 Zn         36.2975   47.6200    3.2180 Zn        4 ZIC7        0.0000 
     30 Zn         35.9670   48.6080    2.9990 Zn       14 ZIL7        0.0000 
     31 Zn         36.6280   46.6320    3.4370 Zn        9 ZIP7        0.0000 
     32 N          36.7870   51.5830    1.7435 N.am      2 SEC2        0.0000 
     33 N          36.7160   50.9820    2.8470 N.am     12 SEL2        0.0000 
     34 N          36.8580   52.1840    0.6400 N.am      7 SEP2        0.0000 
     35 NZ         38.9070   48.0050    3.4880 N.4       3 LYC4        0.0000 
     36 NZ         37.8720   47.4350    5.0820 N.4      13 LYL4        0.0000 
     37 NZ         39.9420   48.5750    1.8940 N.4       8 LYP4        0.0000 
     38 Zn         37.2500   47.0335    4.2595 Zn        4 ZIC7        0.0000 
     39 Zn         37.8720   47.4350    5.0820 Zn       14 ZIL7        0.0000 
     40 NZ         39.6215   48.9775    3.2240 N.4       3 LYC4        0.0000 
     41 NZ         39.3010   49.3800    4.5540 N.4      13 LYL4        0.0000 
     42 N          39.6215   48.9775    3.2240 N.am      2 SEC2        0.0000 
     43 N          39.3010   49.3800    4.5540 N.am     12 SEL2        0.0000 
     44 N          39.9420   48.5750    1.8940 N.am      7 SEP2        0.0000 
     45 CA         35.4463   56.3697    3.2382 C.3       5 GLC5        0.0000 
     46 CA         36.4770   55.7210    1.9710 C.3      15 GLL5        0.0000 
     47 CA         35.0080   57.3050    4.7360 C.3      10 GLP5        0.0000 
     48 CA         35.8115   56.1228    4.1830 C.3       5 GLC5        0.0000 
     49 CA         36.9640   55.3930    3.2280 C.3      15 GLL5        0.0000 
     50 CA         34.9240   55.6955    3.8390 C.3       5 GLC5        0.0000 
     51 CA         35.0860   53.9190    3.5720 C.3      15 GLL5        0.0000 
     52 CA         31.2760   53.8173    2.7452 C.3       5 GLC5        0.0000 
     53 CA         32.6983   50.3207    0.5522 C.3       5 GLC5        0.0000 
     54 CA         33.9550   50.5920   -0.9220 C.3      10 GLP5        0.0000 
     55 CA         32.1185   48.4410    0.2580 C.3       5 GLC5        0.0000 
     56 CA         31.6790   49.4840    1.6300 C.3      15 GLL5        0.0000 
     57 CA         31.9390   47.5680   -1.4670 C.3      10 GLP5        0.0000 
@<TRIPOS>BOND
@<TRIPOS>SUBSTRUCTURE
     1 ALC1        7 GROUP        1 X    ALC  0     ROOT ALC X 1
     2 SEC2       10 GROUP        1 X    SEC  0     **** SEC X 2
     3 LYC4       35 GROUP        1 X    LYC  0     **** LYC X 4
     4 ZIC7       29 GROUP        1 X    ZIC  0     **** ZIC X 5
     5 GLC5        1 GROUP        1 X    GLC  0     **** GLC X 6
     6 ALP1        9 GROUP        1 Y    ALP  0     ROOT ALP Y 8
     7 SEP2       12 GROUP        1 Y    SEP  0     **** SEP Y 9
     8 LYP4       37 GROUP        1 Y    LYP  0     **** LYP Y 11
     9 ZIP7       31 GROUP        1 Y    ZIP  0     **** ZIP Y 12
    10 GLP5        3 GROUP        1 Y    GLP  0     **** GLP Y 13
    11 ALL1        8 GROUP        1 Z    ALL  0     ROOT ALL Z 15
    12 SEL2       11 GROUP        1 Z    SEL  0     **** SEL Z 16
    13 LYL4       36 GROUP        1 Z    LYL  0     **** LYL Z 18
    14 ZIL7       30 GROUP        1 Z    ZIL  0     **** ZIL Z 19
    15 GLL5        2 GROUP        1 Z    GLL  0     **** GLL Z 20
@<TRIPOS>SET

