#    Name: 3v0m_5GW_1_ligand
#    Modification time : Mon Mar 24 23:49:34 2014

@<TRIPOS>MOLECULE
3v0m_5GW_1_ligand
   46    48     1     0     0
SMALL
NO_CHARGES


@<TRIPOS>ATOM
      1 CAM        35.2920   55.1480    1.5100 C.ar      1 5GW450      0.0000 
      2 CAK        36.4770   55.7210    1.9710 C.ar      1 5GW450      0.0000 
      3 CAJ        36.9640   55.3930    3.2280 C.ar      1 5GW450      0.0000 
      4 CAL        36.2660   54.4880    4.0320 C.ar      1 5GW450      0.0000 
      5 CAN        35.0860   53.9190    3.5720 C.ar      1 5GW450      0.0000 
      6 CAU        34.5940   54.2530    2.3120 C.ar      1 5GW450      0.0000 
      7 CAV        33.3270   53.6300    1.8140 C.2       1 5GW450      0.0000 
      8 CAO        32.8550   52.4250    2.3430 C.2       1 5GW450      0.0000 
      9 CAW        32.5890   54.2380    0.7880 C.2       1 5GW450      0.0000 
     10 OAA        33.0080   55.3910    0.2520 O.2       1 5GW450      0.0000 
     11 NAQ        31.4530   53.6580    0.3430 N.am      1 5GW450      0.0000 
     12 CAX        31.0320   52.4830    0.8940 C.2       1 5GW450      0.0000 
     13 OAB        29.9820   51.9560    0.4750 O.2       1 5GW450      0.0000 
     14 NBC        31.7000   51.8800    1.8610 N.am      1 5GW450      0.0000 
     15 C1'        31.2040   50.6150    2.4230 C.3       1 5GW450      0.0000 
     16 O4'        31.7560   50.4800    3.7670 O.3       1 5GW450      0.0000 
     17 C2'        31.6790   49.4840    1.6300 C.3       1 5GW450      0.0000 
     18 O2'        30.7630   48.4400    1.7280 O.3       1 5GW450      0.0000 
     19 C3'        32.9170   49.1440    2.3360 C.3       1 5GW450      0.0000 
     20 O3'        33.2090   47.8250    2.0220 O.3       1 5GW450      0.0000 
     21 C4'        32.5420   49.3120    3.7590 C.3       1 5GW450      0.0000 
     22 C5'        33.7170   49.4980    4.6510 C.3       1 5GW450      0.0000 
     23 O5'        34.6530   50.4290    4.2400 O.3       1 5GW450      0.0000 
     24 PBE        36.0940   49.9480    3.7190 P.3       1 5GW450      0.0000 
     25 OAI        35.9670   48.6080    2.9990 O.co2     1 5GW450      0.0000 
     26 OAD        36.7160   50.9820    2.8470 O.co2     1 5GW450      0.0000 
     27 OAT        36.8620   49.7860    5.0490 O.3       1 5GW450      0.0000 
     28 PBD        38.1050   48.8640    5.4050 P.3       1 5GW450      0.0000 
     29 OAG        37.8720   47.4350    5.0820 O.co2     1 5GW450      0.0000 
     30 OAH        39.3010   49.3800    4.5540 O.co2     1 5GW450      0.0000 
     31 OAC        38.4530   49.1280    6.8230 O.co2     1 5GW450      0.0000 
     32 H          34.9364   55.3892    0.5761 H         1 5GW450      0.0000 
     33 H          36.9877   56.3867    1.3764 H         1 5GW450      0.0000 
     34 H          37.8365   55.8126    3.5714 H         1 5GW450      0.0000 
     35 H          36.6289   54.2464    4.9621 H         1 5GW450      0.0000 
     36 H          34.5725   53.2495    4.1608 H         1 5GW450      0.0000 
     37 H          33.3873   51.9620    3.0929 H         1 5GW450      0.0000 
     38 H          30.8985   54.0995   -0.4147 H         1 5GW450      0.0000 
     39 H          30.1391   50.6224    2.4665 H         1 5GW450      0.0000 
     40 H          31.8944   49.7963    0.6557 H         1 5GW450      0.0000 
     41 H          33.6658   49.8341    2.0754 H         1 5GW450      0.0000 
     42 H          31.9643   48.4666    4.0724 H         1 5GW450      0.0000 
     43 H          34.1891   48.4786    4.7995 H         1 5GW450      0.0000 
     44 H          33.3182   49.7440    5.6828 H         1 5GW450      0.0000 
     45 H          30.4772   48.2574    0.7872 H         1 5GW450      0.0000 
     46 H          34.1831   47.7208    2.2228 H         1 5GW450      0.0000 
@<TRIPOS>BOND
     1    2    1 ar   
     2    6    1 ar   
     3   32    1 1    
     4    3    2 ar   
     5   33    2 1    
     6    4    3 ar   
     7   34    3 1    
     8    5    4 ar   
     9   35    4 1    
    10    6    5 ar   
    11   36    5 1    
    12    7    6 1    
    13    8    7 2    
    14    9    7 1    
    15   14    8 1    
    16   37    8 1    
    17   10    9 2    
    18   11    9 1    
    19   12   11 1    
    20   38   11 1    
    21   13   12 2    
    22   14   12 1    
    23   15   14 1    
    24   16   15 1    
    25   17   15 1    
    26   39   15 1    
    27   21   16 1    
    28   18   17 1    
    29   19   17 1    
    30   40   17 1    
    31   45   18 1    
    32   20   19 1    
    33   21   19 1    
    34   41   19 1    
    35   46   20 1    
    36   22   21 1    
    37   42   21 1    
    38   23   22 1    
    39   43   22 1    
    40   44   22 1    
    41   24   23 1    
    42   25   24 ar   
    43   26   24 ar   
    44   27   24 1    
    45   28   27 1    
    46   29   28 ar   
    47   30   28 ar   
    48   31   28 ar   
@<TRIPOS>SUBSTRUCTURE
     1 5GW450      1 GROUP   
@<TRIPOS>SET

