#    Name: 2X1L_1_CAVITY_N1_6.mol2
#    Modification time : Mon Mar 10 21:58:04 2014

@<TRIPOS>MOLECULE
2X1L_1_CAVITY_N1_6.mol2
   84     0     7     0     0
SMALL
NO_CHARGES


@<TRIPOS>ATOM
      1 N           4.3935   26.8409  -19.2065 N.2       2 ALA2        0.0000 
      2 CZ          5.4905   25.8471  -19.4494 C.ar      5 PHE5        0.0000 
      3 CZ          6.5875   24.8534  -19.6924 C.ar      5 PHE5        0.0000 
      4 N           3.3705   25.7720  -19.4535 N.2       2 ALA2        0.0000 
      5 N           4.4675   24.7783  -19.6965 N.2       2 ALA2        0.0000 
      6 NZ          5.5646   23.7845  -19.9394 N.2       4 LYS4        0.0000 
      7 CZ          7.4813   29.3548  -15.5464 C.ar      5 PHE5        0.0000 
      8 CZ          7.6389   24.8831  -15.0670 C.ar      5 PHE5        0.0000 
      9 CZ          8.7359   23.8894  -15.3100 C.ar      5 PHE5        0.0000 
     10 O           5.4070   28.2561  -20.4188 O.2       2 ALA2        0.0000 
     11 CZ          6.5041   27.2624  -20.6618 C.ar      5 PHE5        0.0000 
     12 CZ          7.6011   26.2686  -20.9047 C.ar      5 PHE5        0.0000 
     13 CA          4.3841   27.1873  -20.6659 C.3       6 GLY6        0.0000 
     14 DU          5.4811   26.1935  -20.9088 H         7 CUB7        0.0000 
     15 NZ          6.5781   25.1997  -21.1518 N.2       4 LYS4        0.0000 
     16 CA          3.3611   26.1184  -20.9129 C.3       6 GLY6        0.0000 
     17 DU          4.4581   25.1246  -21.1559 H         7 CUB7        0.0000 
     18 NZ          5.5551   24.1309  -21.3988 N.2       4 LYS4        0.0000 
     19 OG          2.3381   25.0495  -21.1600 O.2       1 SER1        0.0000 
     20 N           3.4351   24.0558  -21.4029 N.2       2 ALA2        0.0000 
     21 CA          4.5321   23.0620  -21.6459 C.3       6 GLY6        0.0000 
     22 N           0.1724   25.9979  -16.2958 N.2       2 ALA2        0.0000 
     23 OG          1.2694   25.0042  -16.5388 O.2       1 SER1        0.0000 
     24 OG          2.3665   24.0104  -16.7817 O.2       1 SER1        0.0000 
     25 N           3.4635   23.0167  -17.0247 N.2       2 ALA2        0.0000 
     26 N           4.5605   22.0229  -17.2676 N.2       2 ALA2        0.0000 
     27 O           7.3979   31.7637  -16.5159 O.2       2 ALA2        0.0000 
     28 N           8.4949   30.7700  -16.7588 N.2       2 ALA2        0.0000 
     29 O           7.4719   29.7011  -17.0059 O.2       2 ALA2        0.0000 
     30 CZ          6.4489   28.6323  -17.2529 C.ar      5 PHE5        0.0000 
     31 N           5.4259   27.5634  -17.5000 N.2       2 ALA2        0.0000 
     32 N           3.3060   27.4883  -17.5041 N.2       2 ALA2        0.0000 
     33 N           4.4030   26.4945  -17.7470 N.2       2 ALA2        0.0000 
     34 CZ          5.5000   25.5008  -17.9900 C.ar      5 PHE5        0.0000 
     35 CA          8.5500   29.4001  -20.1677 C.3       6 GLY6        0.0000 
     36 CA          6.4300   29.3250  -20.1718 C.3       6 GLY6        0.0000 
     37 CA          7.5270   28.3312  -20.4147 C.3       6 GLY6        0.0000 
     38 CZ          8.6240   27.3375  -20.6577 C.ar      5 PHE5        0.0000 
     39 NZ          4.3652   27.8800  -23.5848 N.2       4 LYS4        0.0000 
     40 NZ          3.3422   26.8111  -23.8318 N.2       4 LYS4        0.0000 
     41 N           7.5176   28.6776  -21.8742 N.2       2 ALA2        0.0000 
     42 N           5.3976   28.6025  -21.8783 N.2       2 ALA2        0.0000 
     43 N           6.4946   27.6087  -22.1212 N.2       2 ALA2        0.0000 
     44 N           7.5916   26.6150  -22.3642 N.2       2 ALA2        0.0000 
     45 CA          4.3746   27.5336  -22.1253 C.3       6 GLY6        0.0000 
     46 NZ          5.4716   26.5399  -22.3683 N.2       4 LYS4        0.0000 
     47 NZ          6.5686   25.5461  -22.6112 N.2       4 LYS4        0.0000 
     48 CA          3.3516   26.4648  -22.3724 C.3       6 GLY6        0.0000 
     49 NZ          4.4486   25.4710  -22.6153 N.2       4 LYS4        0.0000 
     50 NZ          5.5457   24.4772  -22.8583 N.2       4 LYS4        0.0000 
     51 CA          2.3287   25.3959  -22.6194 C.3       6 GLY6        0.0000 
     52 CA          3.4257   24.4021  -22.8624 C.3       6 GLY6        0.0000 
     53 N           2.2278   27.7893  -14.3423 N.2       2 ALA2        0.0000 
     54 N           3.3249   26.7955  -14.5852 N.2       2 ALA2        0.0000 
     55 DU          4.4219   25.8018  -14.8282 H         7 CUB7        0.0000 
     56 DU          5.5189   24.8080  -15.0711 H         7 CUB7        0.0000 
     57 NZ          6.6159   23.8143  -15.3141 N.2       4 LYS4        0.0000 
     58 OD1         2.3019   25.7267  -14.8323 O.3       3 ASP3        0.0000 
     59 OD1         3.3989   24.7329  -15.0752 O.3       3 ASP3        0.0000 
     60 DU          4.4959   23.7392  -15.3182 H         7 CUB7        0.0000 
     61 CZ          5.4354   27.2170  -16.0405 C.ar      5 PHE5        0.0000 
     62 OD1         1.2789   24.6578  -15.0793 O.3       3 ASP3        0.0000 
     63 OD1         2.3759   23.6640  -15.3223 O.3       3 ASP3        0.0000 
     64 OD1         3.4729   22.6703  -15.5652 O.3       3 ASP3        0.0000 
     65 N           2.2184   28.1357  -15.8017 N.2       2 ALA2        0.0000 
     66 N           3.3154   27.1419  -16.0446 N.2       2 ALA2        0.0000 
     67 DU          4.4124   26.1481  -16.2876 H         7 CUB7        0.0000 
     68 CZ          5.5094   25.1544  -16.5305 C.ar      5 PHE5        0.0000 
     69 N           0.0984   28.0605  -15.8058 N.2       2 ALA2        0.0000 
     70 N           1.1954   27.0668  -16.0487 N.2       2 ALA2        0.0000 
     71 DU          2.2924   26.0730  -16.2917 H         7 CUB7        0.0000 
     72 DU          3.3894   25.0793  -16.5347 H         7 CUB7        0.0000 
     73 NZ          4.4864   24.0855  -16.7776 N.2       4 LYS4        0.0000 
     74 CA          7.4624   30.0475  -18.4653 C.3       6 GLY6        0.0000 
     75 CZ          8.5595   29.0537  -18.7083 C.ar      5 PHE5        0.0000 
     76 CA          6.4395   28.9786  -18.7124 C.3       6 GLY6        0.0000 
     77 CZ          7.5365   27.9849  -18.9553 C.ar      5 PHE5        0.0000 
     78 N           5.4165   27.9098  -18.9594 N.2       2 ALA2        0.0000 
     79 CZ          6.5135   26.9160  -19.2024 C.ar      5 PHE5        0.0000 
     80 N           2.2830   26.4194  -17.7511 N.2       2 ALA2        0.0000 
     81 OG          3.3800   25.4256  -17.9941 O.2       1 SER1        0.0000 
     82 NZ          4.4770   24.4319  -18.2370 N.2       4 LYS4        0.0000 
     83 OG          1.2600   25.3505  -17.9982 O.2       1 SER1        0.0000 
     84 CA          8.4854   31.1164  -18.2182 C.3       6 GLY6        0.0000 
@<TRIPOS>BOND
@<TRIPOS>SUBSTRUCTURE
     1 SER1       19 GROUP   
     2 ALA2        1 GROUP   
     3 ASP3       58 GROUP   
     4 LYS4        6 GROUP   
     5 PHE5        2 GROUP   
     6 GLY6       13 GROUP   
     7 CUB7       14 GROUP   
@<TRIPOS>SET

