#    Name: 2x1l_ADN_1_INTS_M
#    Modification time : Tue Mar 25 04:58:22 2014

@<TRIPOS>MOLECULE
2x1l_ADN_1_INTS_M
   44     0     9     0     0
SMALL
NO_CHARGES


@<TRIPOS>ATOM
      1 O           1.8845   24.2905  -20.0690 O.2       1 ALC1        0.0000 
      2 O           2.6170   25.5740  -20.6400 O.2       7 ALL1        0.0000 
      3 O           1.1520   23.0070  -19.4980 O.2       4 ALP1        0.0000 
      4 CA          0.9430   26.0865  -21.5865 C.3       3 GLC5        0.0000 
      5 CA          2.6620   25.5910  -22.0720 C.3       9 GLL5        0.0000 
      6 CA         -0.7760   26.5820  -21.1010 C.3       6 GLP5        0.0000 
      7 CA          4.9935   22.7550  -22.7810 C.3       3 GLC5        0.0000 
      8 CA          5.0090   24.6780  -22.2670 C.3       9 GLL5        0.0000 
      9 CA          4.9780   20.8320  -23.2950 C.3       6 GLP5        0.0000 
     10 N           6.9180   23.9220  -24.1130 N.am      2 SEC2        0.0000 
     11 N           5.5920   24.2120  -23.4870 N.am      8 SEL2        0.0000 
     12 N           8.2440   23.6320  -24.7390 N.am      5 SEP2        0.0000 
     13 O           5.7875   25.2175  -24.4290 O.2       1 ALC1        0.0000 
     14 O           5.5920   24.2120  -23.4870 O.2       7 ALL1        0.0000 
     15 O           5.9830   26.2230  -25.3710 O.2       4 ALP1        0.0000 
     16 CA          7.7115   24.5625  -22.5820 C.3       3 GLC5        0.0000 
     17 CA          6.0720   25.2460  -21.3450 C.3       9 GLL5        0.0000 
     18 CA          9.3510   23.8790  -23.8190 C.3       6 GLP5        0.0000 
     19 O           7.8190   23.6370  -20.9295 O.2       1 ALC1        0.0000 
     20 O           7.3680   24.7200  -21.6340 O.2       7 ALL1        0.0000 
     21 O           8.2700   22.5540  -20.2250 O.2       4 ALP1        0.0000 
     22 CA          7.6365   27.1400  -22.9590 C.3       3 GLC5        0.0000 
     23 CA          6.0110   26.7450  -21.5970 C.3       9 GLL5        0.0000 
     24 CA          9.2620   27.5350  -24.3210 C.3       6 GLP5        0.0000 
     25 O          10.0315   31.3855  -17.6580 O.2       1 ALC1        0.0000 
     26 O           8.8810   30.2690  -17.4240 O.2       7 ALL1        0.0000 
     27 O          11.1820   32.5020  -17.8920 O.2       4 ALP1        0.0000 
     28 N          11.1280   30.4130  -19.7415 N.am      2 SEC2        0.0000 
     29 N           9.6990   29.9150  -19.6120 N.am      8 SEL2        0.0000 
     30 N          12.5570   30.9110  -19.8710 N.am      5 SEP2        0.0000 
     31 CA          8.2680   30.6500  -20.6630 C.3       3 GLC5        0.0000 
     32 CA          9.5990   29.3590  -20.8380 C.3       9 GLL5        0.0000 
     33 CA          6.9370   31.9410  -20.4880 C.3       6 GLP5        0.0000 
     34 CA         11.3770   28.9575  -20.4295 C.3       3 GLC5        0.0000 
     35 CA         13.1550   28.5560  -20.0210 C.3       6 GLP5        0.0000 
     36 CA          2.6342   27.4283  -21.4255 C.3       3 GLC5        0.0000 
     37 CA          4.0830   25.8500  -22.5640 C.3       9 GLL5        0.0000 
     38 CA          1.8960   29.1360  -20.5330 C.3       6 GLP5        0.0000 
     39 CA          3.5989   24.1471  -23.8322 C.3       3 GLC5        0.0000 
     40 CA          3.0070   23.0950  -25.3720 C.3       6 GLP5        0.0000 
     41 CA          7.6997   25.7212  -20.2690 C.3       3 GLC5        0.0000 
     42 CA          9.3580   25.4470  -19.0670 C.3       6 GLP5        0.0000 
     43 CA          7.4089   30.3500  -20.0340 C.3       3 GLC5        0.0000 
     44 CA          7.6120   28.8260  -18.9850 C.3       9 GLL5        0.0000 
@<TRIPOS>BOND
@<TRIPOS>SUBSTRUCTURE
     1 ALC1        1 GROUP        1 X    ALC  0     ROOT ALC X 1
     2 SEC2       10 GROUP        1 X    SEC  0     **** SEC X 2
     3 GLC5        4 GROUP        1 X    GLC  0     **** GLC X 6
     4 ALP1        3 GROUP        1 Y    ALP  0     ROOT ALP Y 8
     5 SEP2       12 GROUP        1 Y    SEP  0     **** SEP Y 9
     6 GLP5        6 GROUP        1 Y    GLP  0     **** GLP Y 13
     7 ALL1        2 GROUP        1 Z    ALL  0     ROOT ALL Z 15
     8 SEL2       11 GROUP        1 Z    SEL  0     **** SEL Z 16
     9 GLL5        5 GROUP        1 Z    GLL  0     **** GLL Z 20
@<TRIPOS>SET

