#    Name: 2x1l_ADN_1_ligand
#    Modification time : Tue Mar 25 04:58:22 2014

@<TRIPOS>MOLECULE
2x1l_ADN_1_ligand
   32    34     1     0     0
SMALL
NO_CHARGES


@<TRIPOS>ATOM
      1 O5'         2.6170   25.5740  -20.6400 O.3       1 ADN601      0.0000 
      2 C5'         2.6620   25.5910  -22.0720 C.3       1 ADN601      0.0000 
      3 C4'         4.0830   25.8500  -22.5640 C.3       1 ADN601      0.0000 
      4 O4'         4.6470   27.0100  -21.9360 O.3       1 ADN601      0.0000 
      5 C3'         5.0090   24.6780  -22.2670 C.3       1 ADN601      0.0000 
      6 O3'         5.5920   24.2120  -23.4870 O.3       1 ADN601      0.0000 
      7 C2'         6.0720   25.2460  -21.3450 C.3       1 ADN601      0.0000 
      8 O2'         7.3680   24.7200  -21.6340 O.3       1 ADN601      0.0000 
      9 C1'         6.0110   26.7450  -21.5970 C.3       1 ADN601      0.0000 
     10 N9          6.4590   27.5150  -20.4070 N.pl3     1 ADN601      0.0000 
     11 C8          5.8310   27.5890  -19.2180 C.2       1 ADN601      0.0000 
     12 N7          6.5160   28.3760  -18.3490 N.2       1 ADN601      0.0000 
     13 C5          7.6120   28.8260  -18.9850 C.ar      1 ADN601      0.0000 
     14 C6          8.7670   29.7000  -18.6490 C.ar      1 ADN601      0.0000 
     15 N6          8.8810   30.2690  -17.4240 N.pl3     1 ADN601      0.0000 
     16 N1          9.6990   29.9150  -19.6120 N.ar      1 ADN601      0.0000 
     17 C2          9.5990   29.3590  -20.8380 C.ar      1 ADN601      0.0000 
     18 N3          8.5800   28.5550  -21.2070 N.ar      1 ADN601      0.0000 
     19 C4          7.5720   28.2550  -20.3430 C.ar      1 ADN601      0.0000 
     20 H           2.0145   26.3772  -22.4866 H         1 ADN601      0.0000 
     21 H           2.3286   24.6333  -22.4975 H         1 ADN601      0.0000 
     22 H           4.0565   25.9829  -23.6415 H         1 ADN601      0.0000 
     23 H           4.4617   23.9377  -21.7510 H         1 ADN601      0.0000 
     24 H           5.7617   25.0720  -20.3355 H         1 ADN601      0.0000 
     25 H           6.6538   26.9535  -22.4407 H         1 ADN601      0.0000 
     26 H           4.9870   27.1350  -19.0015 H         1 ADN601      0.0000 
     27 H           9.6866   30.8434  -17.2789 H         1 ADN601      0.0000 
     28 H           8.1494   30.0640  -16.7738 H         1 ADN601      0.0000 
     29 H          10.3633   29.5655  -21.5501 H         1 ADN601      0.0000 
     30 H           2.1603   24.7158  -20.4057 H         1 ADN601      0.0000 
     31 H           5.6974   25.0301  -24.0523 H         1 ADN601      0.0000 
     32 H           7.4603   23.9197  -21.0416 H         1 ADN601      0.0000 
@<TRIPOS>BOND
     1    2    1 1    
     2   30    1 1    
     3    3    2 1    
     4   20    2 1    
     5   21    2 1    
     6    4    3 1    
     7    5    3 1    
     8   22    3 1    
     9    9    4 1    
    10    6    5 1    
    11    7    5 1    
    12   23    5 1    
    13   31    6 1    
    14    8    7 1    
    15    9    7 1    
    16   24    7 1    
    17   32    8 1    
    18   10    9 1    
    19   25    9 1    
    20   11   10 1    
    21   19   10 1    
    22   12   11 2    
    23   26   11 1    
    24   13   12 1    
    25   14   13 ar   
    26   19   13 ar   
    27   15   14 1    
    28   16   14 ar   
    29   27   15 1    
    30   28   15 1    
    31   17   16 ar   
    32   18   17 ar   
    33   29   17 1    
    34   19   18 ar   
@<TRIPOS>SUBSTRUCTURE
     1 ADN601      1 GROUP   
@<TRIPOS>SET

