#    Name: 3lin_E13_6_INTS_M
#    Modification time : Mon Mar 24 21:42:31 2014

@<TRIPOS>MOLECULE
3lin_E13_6_INTS_M
  103     0     9     0     0
SMALL
NO_CHARGES


@<TRIPOS>ATOM
      1 N          31.9260   78.8855   30.4155 N.am      2 SEC2        0.0000 
      2 N          31.5300   79.8430   29.4750 N.am      8 SEL2        0.0000 
      3 N          32.3220   77.9280   31.3560 N.am      5 SEP2        0.0000 
      4 O          30.7420   80.2575   25.8215 O.2       1 ALC1        0.0000 
      5 O          31.2540   79.7860   26.9680 O.2       7 ALL1        0.0000 
      6 O          30.2300   80.7290   24.6750 O.2       4 ALP1        0.0000 
      7 N          32.6935   78.4420   23.5295 N.am      2 SEC2        0.0000 
      8 N          32.3160   78.0060   24.8330 N.am      8 SEL2        0.0000 
      9 N          33.0710   78.8780   22.2260 N.am      5 SEP2        0.0000 
     10 CA         33.0615   78.7300   28.2275 C.3       3 GLC5        0.0000 
     11 CA         31.2480   78.3140   26.9910 C.3       9 GLL5        0.0000 
     12 CA         34.8750   79.1460   29.4640 C.3       6 GLP5        0.0000 
     13 CA         27.8250   77.7310   24.0725 C.3       3 GLC5        0.0000 
     14 CA         29.3990   77.0900   25.4370 C.3       9 GLL5        0.0000 
     15 CA         26.2510   78.3720   22.7080 C.3       6 GLP5        0.0000 
     16 O          32.6235   76.2115   27.8575 O.2       1 ALC1        0.0000 
     17 O          32.9870   76.5470   26.5220 O.2       7 ALL1        0.0000 
     18 O          32.2600   75.8760   29.1930 O.2       4 ALP1        0.0000 
     19 CA         33.9600   76.2600   23.6675 C.3       3 GLC5        0.0000 
     20 CA         33.9250   75.8400   25.6810 C.3       9 GLL5        0.0000 
     21 CA         33.9950   76.6800   21.6540 C.3       6 GLP5        0.0000 
     22 CA         37.7950   77.5915   25.3155 C.3       3 GLC5        0.0000 
     23 CA         35.5980   77.7060   25.4330 C.3       9 GLL5        0.0000 
     24 CA         39.9920   77.4770   25.1980 C.3       6 GLP5        0.0000 
     25 CA         35.2365   78.4260   27.4485 C.3       3 GLC5        0.0000 
     26 CA         36.6590   79.0790   26.2610 C.3       3 GLC5        0.0000 
     27 CA         37.7200   80.4520   27.0890 C.3       6 GLP5        0.0000 
     28 CA         36.1660   74.7705   28.3840 C.3       3 GLC5        0.0000 
     29 CA         35.6640   76.2100   27.5320 C.3       9 GLL5        0.0000 
     30 CA         36.6680   73.3310   29.2360 C.3       6 GLP5        0.0000 
     31 CA         35.2695   77.6780   28.4980 C.3       3 GLC5        0.0000 
     32 CA         36.5385   74.3355   27.2690 C.3       3 GLC5        0.0000 
     33 CA         36.4090   75.3400   25.3020 C.3       9 GLL5        0.0000 
     34 CA         38.2005   76.4085   25.2500 C.3       3 GLC5        0.0000 
     35 CA         38.1700   74.3805   24.6390 C.3       3 GLC5        0.0000 
     36 CA         39.9310   73.4210   23.9760 C.3       6 GLP5        0.0000 
     37 O          32.4170   74.5020   23.4805 O.2       1 ALC1        0.0000 
     38 O          33.1160   73.7470   24.6570 O.2       7 ALL1        0.0000 
     39 O          31.7180   75.2570   22.3040 O.2       4 ALP1        0.0000 
     40 N          32.4490   69.7955   22.3595 N.am      2 SEC2        0.0000 
     41 N          33.6020   69.6530   22.9860 N.am      8 SEL2        0.0000 
     42 N          31.2960   69.9380   21.7330 N.am      5 SEP2        0.0000 
     43 CA         32.6535   73.1025   21.7455 C.3       3 GLC5        0.0000 
     44 CA         33.8250   72.0180   23.3170 C.3       9 GLL5        0.0000 
     45 CA         31.4820   74.1870   20.1740 C.3       6 GLP5        0.0000 
     46 CA         29.7320   72.5160   23.1370 C.3       3 GLC5        0.0000 
     47 CA         31.4360   72.0630   24.2990 C.3       9 GLL5        0.0000 
     48 CA         28.0280   72.9690   21.9750 C.3       6 GLP5        0.0000 
     49 O          33.8560   72.4820   21.0440 O.2       1 ALC1        0.0000 
     50 O          33.1790   72.2210   22.1070 O.2       7 ALL1        0.0000 
     51 O          34.5330   72.7430   19.9810 O.2       4 ALP1        0.0000 
     52 O          34.6860   72.5085   21.8045 O.2       1 ALC1        0.0000 
     53 O          36.1930   72.7960   21.5020 O.2       4 ALP1        0.0000 
     54 CA         39.1560   66.9300   27.3390 C.3       3 GLC5        0.0000 
     55 CA         37.7630   67.5710   25.7370 C.3       9 GLL5        0.0000 
     56 CA         40.5490   66.2890   28.9410 C.3       6 GLP5        0.0000 
     57 CA         36.9995   68.0065   27.5910 C.3       3 GLC5        0.0000 
     58 CA         36.2360   68.4420   29.4450 C.3       6 GLP5        0.0000 
     59 CA         38.8145   69.4390   22.1210 C.3       3 GLC5        0.0000 
     60 CA         38.2920   68.7800   23.6100 C.3       9 GLL5        0.0000 
     61 CA         39.3370   70.0980   20.6320 C.3       6 GLP5        0.0000 
     62 CA         36.8695   69.3645   27.5745 C.3       3 GLC5        0.0000 
     63 CA         37.5030   70.2870   25.7040 C.3       9 GLL5        0.0000 
     64 CA         38.9275   70.4580   26.8585 C.3       3 GLC5        0.0000 
     65 CA         40.3520   70.6290   28.0130 C.3       6 GLP5        0.0000 
     66 CA         31.7990   66.9140   23.1910 C.3       3 GLC5        0.0000 
     67 CA         31.6060   67.2470   25.2240 C.3       9 GLL5        0.0000 
     68 CA         31.9920   66.5810   21.1580 C.3       6 GLP5        0.0000 
     69 CA         29.8200   68.1815   24.9450 C.3       3 GLC5        0.0000 
     70 CA         28.0340   69.1160   24.6660 C.3       6 GLP5        0.0000 
     71 CA         32.0195   67.9160   27.2305 C.3       3 GLC5        0.0000 
     72 CA         32.4330   68.5850   29.2370 C.3       6 GLP5        0.0000 
     73 CA         32.2180   65.7595   22.8615 C.3       3 GLC5        0.0000 
     74 CA         32.4440   64.9380   24.5650 C.3       9 GLL5        0.0000 
     75 CA         29.7825   64.9990   26.1320 C.3       3 GLC5        0.0000 
     76 CA         31.4450   65.3300   26.8920 C.3       9 GLL5        0.0000 
     77 CA         28.1200   64.6680   25.3720 C.3       6 GLP5        0.0000 
     78 CA         30.2990   65.6800   28.5020 C.3       3 GLC5        0.0000 
     79 CA         29.1530   66.0300   30.1120 C.3       6 GLP5        0.0000 
     80 CA         26.8330   77.5645   24.2150 C.3       3 GLC5        0.0000 
     81 CA         27.9610   76.6120   25.1940 C.3       9 GLL5        0.0000 
     82 CA         27.9718   76.7517   29.1148 C.3       3 GLC5        0.0000 
     83 CA         27.2370   77.6660   27.5410 C.3       9 GLL5        0.0000 
     84 CA         27.9810   75.6040   30.5680 C.3       6 GLP5        0.0000 
     85 CA         35.7550   76.3271   23.5121 C.3       3 GLC5        0.0000 
     86 CA         35.5560   76.4870   21.5160 C.3       6 GLP5        0.0000 
     87 CA         29.3862   70.4932   25.4205 C.3       3 GLC5        0.0000 
     88 CA         30.7480   72.4020   25.6330 C.3       9 GLL5        0.0000 
     89 CA         28.7103   74.5650   29.1790 C.3       3 GLC5        0.0000 
     90 CA         29.4140   72.9870   28.3360 C.3       9 GLL5        0.0000 
     91 CA         31.3325   72.8245   29.1698 C.3       3 GLC5        0.0000 
     92 CA         32.9370   73.3500   30.1420 C.3       6 GLP5        0.0000 
     93 CA         31.1783   70.5775   28.8035 C.3       3 GLC5        0.0000 
     94 CA         30.0420   71.6110   28.0590 C.3       9 GLL5        0.0000 
     95 CA         31.9710   69.6800   30.2190 C.3       6 GLP5        0.0000 
     96 CA         38.4370   72.0838   24.6245 C.3       3 GLC5        0.0000 
     97 CA         36.3830   71.2060   24.8420 C.3       9 GLL5        0.0000 
     98 CA         30.1559   65.2157   25.1981 C.3       3 GLC5        0.0000 
     99 CA         32.9256   64.8669   28.0324 C.3       3 GLC5        0.0000 
    100 CA         33.6450   64.0470   29.5850 C.3       6 GLP5        0.0000 
    101 CA         31.3319   63.5946   26.2150 C.3       3 GLC5        0.0000 
    102 CA         30.7620   61.8070   26.4070 C.3       6 GLP5        0.0000 
    103 CA         32.3196   67.1359   27.8584 C.3       3 GLC5        0.0000 
@<TRIPOS>BOND
@<TRIPOS>SUBSTRUCTURE
     1 ALC1        4 GROUP        1 X    ALC  0     ROOT ALC X 1
     2 SEC2        1 GROUP        1 X    SEC  0     **** SEC X 2
     3 GLC5       10 GROUP        1 X    GLC  0     **** GLC X 6
     4 ALP1        6 GROUP        1 Y    ALP  0     ROOT ALP Y 8
     5 SEP2        3 GROUP        1 Y    SEP  0     **** SEP Y 9
     6 GLP5       12 GROUP        1 Y    GLP  0     **** GLP Y 13
     7 ALL1        5 GROUP        1 Z    ALL  0     ROOT ALL Z 15
     8 SEL2        2 GROUP        1 Z    SEL  0     **** SEL Z 16
     9 GLL5       11 GROUP        1 Z    GLL  0     **** GLL Z 20
@<TRIPOS>SET

