#    Name: 3lin_E13_6_ligand
#    Modification time : Mon Mar 24 21:42:31 2014

@<TRIPOS>MOLECULE
3lin_E13_6_ligand
  103   105     1     0     0
SMALL
NO_CHARGES


@<TRIPOS>ATOM
      1 CB1        31.3860   80.5320   28.2240 C.2       1 E13117      0.0000 
      2 OA1        31.5300   79.8430   29.4750 O.2       1 E13117      0.0000 
      3 OA2        31.3680   82.0550   28.2010 O.3       1 E13117      0.0000 
      4 CB2        30.0060   82.5550   28.6820 C.3       1 E13117      0.0000 
      5 CBF        32.2160   77.6570   25.9750 C.2       1 E13117      0.0000 
      6 NAJ        31.2540   79.7860   26.9680 N.am      1 E13117      0.0000 
      7 OAK        32.3160   78.0060   24.8330 O.2       1 E13117      0.0000 
      8 CBM        31.2480   78.3140   26.9910 C.3       1 E13117      0.0000 
      9 CBK        29.7890   77.8450   26.7280 C.ar      1 E13117      0.0000 
     10 CAQ        26.8690   76.9020   26.2500 C.ar      1 E13117      0.0000 
     11 CAT        27.9610   76.6120   25.1940 C.ar      1 E13117      0.0000 
     12 CAU        27.2370   77.6660   27.5410 C.ar      1 E13117      0.0000 
     13 CAX        29.3990   77.0900   25.4370 C.ar      1 E13117      0.0000 
     14 CAY        28.6880   78.1330   27.7820 C.ar      1 E13117      0.0000 
     15 N          32.9870   76.5470   26.5220 N.am      1 E13117      0.0000 
     16 CA         33.9250   75.8400   25.6810 C.3       1 E13117      0.0000 
     17 CB         35.4000   76.2830   25.9960 C.3       1 E13117      0.0000 
     18 CAG        35.5980   77.7060   25.4330 C.3       1 E13117      0.0000 
     19 CG1        35.6640   76.2100   27.5320 C.3       1 E13117      0.0000 
     20 CG2        36.4090   75.3400   25.3020 C.3       1 E13117      0.0000 
     21 C          33.7110   74.3320   25.8320 C.2       1 E13117      0.0000 
     22 O          34.0510   73.6780   26.7470 O.2       1 E13117      0.0000 
     23 CBI        34.2350   70.5380   23.4400 C.2       1 E13117      0.0000 
     24 NBC        33.1160   73.7470   24.6570 N.am      1 E13117      0.0000 
     25 OAN        33.6020   69.6530   22.9860 O.2       1 E13117      0.0000 
     26 CBN        33.8250   72.0180   23.3170 C.3       1 E13117      0.0000 
     27 CBJ        30.7480   72.4020   25.6330 C.ar      1 E13117      0.0000 
     28 CBA        31.4360   72.0630   24.2990 C.3       1 E13117      0.0000 
     29 CAP        29.4140   72.9870   28.3360 C.ar      1 E13117      0.0000 
     30 CBO        32.9170   72.3320   24.5230 C.3       1 E13117      0.0000 
     31 OAO        33.1790   72.2210   22.1070 O.3       1 E13117      0.0000 
     32 CAV        30.7290   71.3390   26.7170 C.ar      1 E13117      0.0000 
     33 CAW        30.1370   73.7780   25.8870 C.ar      1 E13117      0.0000 
     34 CAR        30.0420   71.6110   28.0590 C.ar      1 E13117      0.0000 
     35 CAS        29.4650   74.0650   27.2440 C.ar      1 E13117      0.0000 
     36 CBH        34.8730   68.0760   25.3850 C.2       1 E13117      0.0000 
     37 NBR        35.4230   70.2190   24.1670 N.am      1 E13117      0.0000 
     38 OAM        34.3470   68.7620   26.2140 O.2       1 E13117      0.0000 
     39 CBQ        35.8610   68.6950   24.3520 C.3       1 E13117      0.0000 
     40 CBU        37.3620   68.7470   24.8330 C.3       1 E13117      0.0000 
     41 CAZ        36.3830   71.2060   24.8420 C.3       1 E13117      0.0000 
     42 CAH        37.7630   67.5710   25.7370 C.3       1 E13117      0.0000 
     43 CAI        38.2920   68.7800   23.6100 C.3       1 E13117      0.0000 
     44 SBE        37.5030   70.2870   25.7040 S.3       1 E13117      0.0000 
     45 NBB        34.5860   66.6590   25.3790 N.am      1 E13117      0.0000 
     46 CBL        33.6620   66.1560   26.3920 C.3       1 E13117      0.0000 
     47 CBS        32.2730   65.9310   25.7430 C.3       1 E13117      0.0000 
     48 CAB        31.6060   67.2470   25.2240 C.3       1 E13117      0.0000 
     49 CAC        32.4440   64.9380   24.5650 C.3       1 E13117      0.0000 
     50 CAD        31.4450   65.3300   26.8920 C.3       1 E13117      0.0000 
     51 H          31.1683   80.2728   26.0989 H         1 E13117      0.0000 
     52 H          31.5084   77.9581   27.9886 H         1 E13117      0.0000 
     53 H          25.9536   76.6039   26.1009 H         1 E13117      0.0000 
     54 H          27.7317   76.1271   24.3789 H         1 E13117      0.0000 
     55 H          26.5462   77.8546   28.2091 H         1 E13117      0.0000 
     56 H          30.0942   76.9133   24.7557 H         1 E13117      0.0000 
     57 H          28.9181   78.6136   28.6030 H         1 E13117      0.0000 
     58 H          32.8618   76.2784   27.4842 H         1 E13117      0.0000 
     59 H          33.7390   76.0959   24.6288 H         1 E13117      0.0000 
     60 H          32.8248   74.3670   23.8894 H         1 E13117      0.0000 
     61 H          34.7243   72.6023   23.4270 H         1 E13117      0.0000 
     62 H          31.0598   72.7048   23.5345 H         1 E13117      0.0000 
     63 H          31.2820   71.0317   24.0743 H         1 E13117      0.0000 
     64 H          28.9902   73.1710   29.1921 H         1 E13117      0.0000 
     65 H          33.2837   71.8233   25.3680 H         1 E13117      0.0000 
     66 H          31.1605   70.4651   26.5617 H         1 E13117      0.0000 
     67 H          30.1683   74.4714   25.2026 H         1 E13117      0.0000 
     68 H          30.0015   70.9097   28.7425 H         1 E13117      0.0000 
     69 H          29.0653   74.9490   27.4097 H         1 E13117      0.0000 
     70 H          35.7882   68.2304   23.4240 H         1 E13117      0.0000 
     71 H          35.8912   71.8057   25.5591 H         1 E13117      0.0000 
     72 H          36.9449   71.7545   24.1354 H         1 E13117      0.0000 
     73 H          34.9957   66.0487   24.7179 H         1 E13117      0.0000 
     74 H          33.5382   66.8675   27.2045 H         1 E13117      0.0000 
     75 H          33.9975   65.2050   26.7980 H         1 E13117      0.0000 
     76 H          29.8076   82.2530   29.6144 H         1 E13117      0.0000 
     77 H          29.9552   83.5537   28.6803 H         1 E13117      0.0000 
     78 H          29.2623   82.2227   28.1019 H         1 E13117      0.0000 
     79 H          36.5223   78.0475   25.6033 H         1 E13117      0.0000 
     80 H          35.4512   77.7380   24.4444 H         1 E13117      0.0000 
     81 H          34.9634   78.3600   25.8449 H         1 E13117      0.0000 
     82 H          36.5957   76.4907   27.7625 H         1 E13117      0.0000 
     83 H          35.0437   76.8041   28.0441 H         1 E13117      0.0000 
     84 H          35.5411   75.2830   27.8863 H         1 E13117      0.0000 
     85 H          37.3547   75.6075   25.4864 H         1 E13117      0.0000 
     86 H          36.3064   74.3944   25.6106 H         1 E13117      0.0000 
     87 H          36.2932   75.3384   24.3087 H         1 E13117      0.0000 
     88 H          38.7190   67.6323   26.0239 H         1 E13117      0.0000 
     89 H          37.2090   67.5363   26.5688 H         1 E13117      0.0000 
     90 H          37.6518   66.6918   25.2738 H         1 E13117      0.0000 
     91 H          39.2553   68.8107   23.8767 H         1 E13117      0.0000 
     92 H          38.1736   67.9730   23.0315 H         1 E13117      0.0000 
     93 H          38.1214   69.5803   23.0352 H         1 E13117      0.0000 
     94 H          31.4644   67.9074   25.9614 H         1 E13117      0.0000 
     95 H          32.1664   67.6986   24.5297 H         1 E13117      0.0000 
     96 H          30.7121   67.0725   24.8112 H         1 E13117      0.0000 
     97 H          33.0724   65.2896   23.8711 H         1 E13117      0.0000 
     98 H          32.8076   64.0581   24.8708 H         1 E13117      0.0000 
     99 H          31.5749   64.7526   24.1064 H         1 E13117      0.0000 
    100 H          31.8382   64.4726   27.2242 H         1 E13117      0.0000 
    101 H          31.3908   65.9502   27.6746 H         1 E13117      0.0000 
    102 H          30.5064   65.1320   26.6094 H         1 E13117      0.0000 
    103 H          33.9111   72.4005   21.4498 H         1 E13117      0.0000 
@<TRIPOS>BOND
     1    2    1 2    
     2    3    1 1    
     3    6    1 am   
     4    4    3 1    
     5   76    4 1    
     6   77    4 1    
     7   78    4 1    
     8    7    5 2    
     9    8    5 1    
    10   15    5 am   
    11    8    6 1    
    12   51    6 1    
    13    9    8 1    
    14   52    8 1    
    15   13    9 ar   
    16   14    9 ar   
    17   11   10 ar   
    18   12   10 ar   
    19   53   10 1    
    20   13   11 ar   
    21   54   11 1    
    22   14   12 ar   
    23   55   12 1    
    24   56   13 1    
    25   57   14 1    
    26   16   15 1    
    27   58   15 1    
    28   17   16 1    
    29   21   16 1    
    30   59   16 1    
    31   18   17 1    
    32   19   17 1    
    33   20   17 1    
    34   79   18 1    
    35   80   18 1    
    36   81   18 1    
    37   82   19 1    
    38   83   19 1    
    39   84   19 1    
    40   85   20 1    
    41   86   20 1    
    42   87   20 1    
    43   22   21 2    
    44   24   21 am   
    45   25   23 2    
    46   26   23 1    
    47   37   23 am   
    48   30   24 1    
    49   60   24 1    
    50   30   26 1    
    51   31   26 1    
    52   61   26 1    
    53   28   27 1    
    54   32   27 ar   
    55   33   27 ar   
    56   30   28 1    
    57   62   28 1    
    58   63   28 1    
    59   34   29 ar   
    60   35   29 ar   
    61   64   29 1    
    62   65   30 1    
    63  103   31 1    
    64   34   32 ar   
    65   66   32 1    
    66   35   33 ar   
    67   67   33 1    
    68   68   34 1    
    69   69   35 1    
    70   38   36 2    
    71   39   36 1    
    72   45   36 am   
    73   39   37 1    
    74   41   37 1    
    75   40   39 1    
    76   70   39 1    
    77   42   40 1    
    78   43   40 1    
    79   44   40 1    
    80   44   41 1    
    81   71   41 1    
    82   72   41 1    
    83   88   42 1    
    84   89   42 1    
    85   90   42 1    
    86   91   43 1    
    87   92   43 1    
    88   93   43 1    
    89   46   45 1    
    90   73   45 1    
    91   47   46 1    
    92   74   46 1    
    93   75   46 1    
    94   48   47 1    
    95   49   47 1    
    96   50   47 1    
    97   94   48 1    
    98   95   48 1    
    99   96   48 1    
   100   97   49 1    
   101   98   49 1    
   102   99   49 1    
   103  100   50 1    
   104  101   50 1    
   105  102   50 1    
@<TRIPOS>SUBSTRUCTURE
     1 E13117      1 GROUP   
@<TRIPOS>SET

