#    Name: 3gdh_SAH_4_INTS_M
#    Modification time : Tue Mar 25 07:35:27 2014

@<TRIPOS>MOLECULE
3gdh_SAH_4_INTS_M
   76     0     9     0     0
SMALL
NO_CHARGES


@<TRIPOS>ATOM
      1 O          22.9175   -3.6380  -24.8785 O.2       1 ALC1        0.0000 
      2 O          23.7220   -3.9000  -23.7020 O.2       7 ALL1        0.0000 
      3 O          22.1130   -3.3760  -26.0550 O.2       4 ALP1        0.0000 
      4 O          24.9280   -3.9480  -24.4910 O.2       1 ALC1        0.0000 
      5 O          26.1340   -3.9960  -25.2800 O.2       4 ALP1        0.0000 
      6 O          23.7320   -2.4650  -23.5240 O.2       1 ALC1        0.0000 
      7 O          23.7420   -1.0300  -23.3460 O.2       4 ALP1        0.0000 
      8 CA         22.5550   -2.6370  -20.6980 C.3       3 GLC5        0.0000 
      9 CA         24.3940   -3.7370  -21.3720 C.3       9 GLL5        0.0000 
     10 CA         20.7160   -1.5370  -20.0240 C.3       6 GLP5        0.0000 
     11 CA         26.1510   -3.3305  -23.5545 C.3       3 GLC5        0.0000 
     12 CA         25.8940   -4.0180  -21.4820 C.3       9 GLL5        0.0000 
     13 CA         26.4080   -2.6430  -25.6270 C.3       6 GLP5        0.0000 
     14 CA         25.9400   -2.1575  -19.2680 C.3       3 GLC5        0.0000 
     15 CA         26.9110   -3.3440  -20.1460 C.3       9 GLL5        0.0000 
     16 CA         24.9690   -0.9710  -18.3900 C.3       6 GLP5        0.0000 
     17 N          22.0260   -6.1500  -19.9655 N.am      2 SEC2        0.0000 
     18 N          21.7790   -4.9740  -20.9620 N.am      8 SEL2        0.0000 
     19 N          22.2730   -7.3260  -18.9690 N.am      5 SEP2        0.0000 
     20 N          20.5275   -5.6485  -21.7910 N.am      2 SEC2        0.0000 
     21 N          19.2760   -6.3230  -22.6200 N.am      5 SEP2        0.0000 
     22 N          20.7360   -2.5125  -22.5285 N.am      2 SEC2        0.0000 
     23 N          21.2500   -4.0630  -22.7180 N.am      8 SEL2        0.0000 
     24 N          20.2220   -0.9620  -22.3390 N.am      5 SEP2        0.0000 
     25 N          20.4595   -4.7945  -24.0570 N.am      2 SEC2        0.0000 
     26 N          19.6690   -5.5260  -25.3960 N.am      5 SEP2        0.0000 
     27 CA         29.7770   -3.2460  -22.0155 C.3       3 GLC5        0.0000 
     28 CA         28.5630   -4.0100  -20.4090 C.3       9 GLL5        0.0000 
     29 CA         30.9910   -2.4820  -23.6220 C.3       6 GLP5        0.0000 
     30 CA         30.5185   -3.4415  -20.7725 C.3       3 GLC5        0.0000 
     31 CA         32.4740   -2.8730  -21.1360 C.3       6 GLP5        0.0000 
     32 O          27.5550   -7.5510  -18.9315 O.2       1 ALC1        0.0000 
     33 O          27.5500   -6.3630  -18.2750 O.2       7 ALL1        0.0000 
     34 O          27.5600   -8.7390  -19.5880 O.2       4 ALP1        0.0000 
     35 N          29.5870   -7.1615  -15.9985 N.am      2 SEC2        0.0000 
     36 N          29.7450   -7.4400  -17.2650 N.am      8 SEL2        0.0000 
     37 N          29.4290   -6.8830  -14.7320 N.am      5 SEP2        0.0000 
     38 O          29.3655   -8.5880  -17.7605 O.2       1 ALC1        0.0000 
     39 O          29.7450   -7.4400  -17.2650 O.2       7 ALL1        0.0000 
     40 O          28.9860   -9.7360  -18.2560 O.2       4 ALP1        0.0000 
     41 O          28.6525   -8.0895  -18.4265 O.2       1 ALC1        0.0000 
     42 CA         31.1590   -6.6030  -21.3155 C.3       3 GLC5        0.0000 
     43 CA         30.4000   -6.9670  -19.4500 C.3       9 GLL5        0.0000 
     44 CA         31.9180   -6.2390  -23.1810 C.3       6 GLP5        0.0000 
     45 CA         31.7030   -8.4085  -18.4975 C.3       3 GLC5        0.0000 
     46 CA         33.0060   -9.8500  -17.5450 C.3       6 GLP5        0.0000 
     47 CA         33.8100   -9.9615  -19.9305 C.3       3 GLC5        0.0000 
     48 CA         34.3110   -8.8540  -21.4480 C.3       9 GLL5        0.0000 
     49 CA         33.3090  -11.0690  -18.4130 C.3       6 GLP5        0.0000 
     50 CA         34.9990  -10.9280  -21.7115 C.3       3 GLC5        0.0000 
     51 CA         35.6870  -13.0020  -21.9750 C.3       6 GLP5        0.0000 
     52 O          36.5000   -9.8825  -21.9900 O.2       1 ALC1        0.0000 
     53 O          35.6020   -8.8800  -21.5320 O.2       7 ALL1        0.0000 
     54 O          37.3980  -10.8850  -22.4480 O.2       4 ALP1        0.0000 
     55 N          34.2730  -10.7675  -23.0765 N.am      2 SEC2        0.0000 
     56 N          33.6390   -9.6950  -22.1910 N.am      8 SEL2        0.0000 
     57 N          34.9070  -11.8400  -23.9620 N.am      5 SEP2        0.0000 
     58 CA         31.5735  -11.5005  -23.1200 C.3       3 GLC5        0.0000 
     59 CA         32.3570   -9.7040  -22.1090 C.3       9 GLL5        0.0000 
     60 CA         30.7900  -13.2970  -24.1310 C.3       6 GLP5        0.0000 
     61 CA         30.7220  -10.6620  -21.3855 C.3       3 GLC5        0.0000 
     62 CA         29.0870  -11.6200  -20.6620 C.3       6 GLP5        0.0000 
     63 CA         32.8330  -10.3865  -20.2610 C.3       3 GLC5        0.0000 
     64 CA         33.1510  -10.0585  -23.9230 C.3       3 GLC5        0.0000 
     65 CA         33.9450  -10.4130  -25.7370 C.3       6 GLP5        0.0000 
     66 N          31.3510  -10.2090  -20.2770 N.am      2 SEC2        0.0000 
     67 N          31.6750   -8.9230  -21.3260 N.am      8 SEL2        0.0000 
     68 N          31.0270  -11.4950  -19.2280 N.am      5 SEP2        0.0000 
     69 CA         25.0565   -2.4242  -19.9085 C.3       3 GLC5        0.0000 
     70 CA         24.7515   -5.7020  -20.7236 C.3       3 GLC5        0.0000 
     71 CA         24.5720   -7.3380  -19.7640 C.3       6 GLP5        0.0000 
     72 CA         29.0852   -5.4860  -21.9943 C.3       3 GLC5        0.0000 
     73 CA         28.8340   -5.5000  -20.0260 C.3       9 GLL5        0.0000 
     74 CA         29.4720   -6.2170  -23.7710 C.3       6 GLP5        0.0000 
     75 CA         32.9745   -8.9383  -19.0617 C.3       3 GLC5        0.0000 
     76 CA         32.2630   -8.0560  -20.5620 C.3       9 GLL5        0.0000 
@<TRIPOS>BOND
@<TRIPOS>SUBSTRUCTURE
     1 ALC1        1 GROUP        1 X    ALC  0     ROOT ALC X 1
     2 SEC2       17 GROUP        1 X    SEC  0     **** SEC X 2
     3 GLC5        8 GROUP        1 X    GLC  0     **** GLC X 6
     4 ALP1        3 GROUP        1 Y    ALP  0     ROOT ALP Y 8
     5 SEP2       19 GROUP        1 Y    SEP  0     **** SEP Y 9
     6 GLP5       10 GROUP        1 Y    GLP  0     **** GLP Y 13
     7 ALL1        2 GROUP        1 Z    ALL  0     ROOT ALL Z 15
     8 SEL2       18 GROUP        1 Z    SEL  0     **** SEL Z 16
     9 GLL5        9 GROUP        1 Z    GLL  0     **** GLL Z 20
@<TRIPOS>SET

