#    Name: 3gdh_SAH_4_ligand
#    Modification time : Tue Mar 25 07:35:28 2014

@<TRIPOS>MOLECULE
3gdh_SAH_4_ligand
   46    48     1     0     0
SMALL
NO_CHARGES


@<TRIPOS>ATOM
      1 N          23.7220   -3.9000  -23.7020 N.4       1 SAH854      0.0000 
      2 CA         23.5420   -4.4910  -22.3970 C.3       1 SAH854      0.0000 
      3 CB         24.3940   -3.7370  -21.3720 C.3       1 SAH854      0.0000 
      4 CG         25.8940   -4.0180  -21.4820 C.3       1 SAH854      0.0000 
      5 SD         26.9110   -3.3440  -20.1460 S.3       1 SAH854      0.0000 
      6 C          22.0560   -4.4590  -22.0190 C.2       1 SAH854      0.0000 
      7 O          21.7790   -4.9740  -20.9620 O.co2     1 SAH854      0.0000 
      8 OXT        21.2500   -4.0630  -22.7180 O.co2     1 SAH854      0.0000 
      9 C5'        28.5630   -4.0100  -20.4090 C.3       1 SAH854      0.0000 
     10 C4'        28.8340   -5.5000  -20.0260 C.3       1 SAH854      0.0000 
     11 O4'        30.1200   -5.9320  -20.2950 O.3       1 SAH854      0.0000 
     12 C3'        28.7060   -5.6710  -18.5330 C.3       1 SAH854      0.0000 
     13 O3'        27.5500   -6.3630  -18.2750 O.3       1 SAH854      0.0000 
     14 C2'        29.9730   -6.4230  -18.1370 C.3       1 SAH854      0.0000 
     15 O2'        29.7450   -7.4400  -17.2650 O.3       1 SAH854      0.0000 
     16 C1'        30.4000   -6.9670  -19.4500 C.3       1 SAH854      0.0000 
     17 N9         31.8110   -7.2000  -19.7070 N.pl3     1 SAH854      0.0000 
     18 C8         32.8420   -6.6020  -19.2130 C.2       1 SAH854      0.0000 
     19 N7         33.9420   -7.0770  -19.7430 N.2       1 SAH854      0.0000 
     20 C5         33.6230   -7.9970  -20.5950 C.ar      1 SAH854      0.0000 
     21 C6         34.3110   -8.8540  -21.4480 C.ar      1 SAH854      0.0000 
     22 N6         35.6020   -8.8800  -21.5320 N.pl3     1 SAH854      0.0000 
     23 N1         33.6390   -9.6950  -22.1910 N.ar      1 SAH854      0.0000 
     24 C2         32.3570   -9.7040  -22.1090 C.ar      1 SAH854      0.0000 
     25 N3         31.6750   -8.9230  -21.3260 N.ar      1 SAH854      0.0000 
     26 C4         32.2630   -8.0560  -20.5620 C.ar      1 SAH854      0.0000 
     27 H          23.8634   -5.5258  -22.4048 H         1 SAH854      0.0000 
     28 H          24.0535   -4.0057  -20.3590 H         1 SAH854      0.0000 
     29 H          24.2233   -2.6552  -21.4936 H         1 SAH854      0.0000 
     30 H          26.3470   -3.5759  -22.3634 H         1 SAH854      0.0000 
     31 H          26.1335   -5.0757  -21.4442 H         1 SAH854      0.0000 
     32 H          29.1964   -3.3200  -19.8409 H         1 SAH854      0.0000 
     33 H          28.7329   -3.8243  -21.4752 H         1 SAH854      0.0000 
     34 H          28.0833   -6.1124  -20.4869 H         1 SAH854      0.0000 
     35 H          28.7494   -4.6954  -18.0965 H         1 SAH854      0.0000 
     36 H          30.6915   -5.6997  -17.8324 H         1 SAH854      0.0000 
     37 H          29.8094   -7.8163  -19.7106 H         1 SAH854      0.0000 
     38 H          32.8172   -5.8802  -18.5257 H         1 SAH854      0.0000 
     39 H          35.9864   -9.5086  -22.2081 H         1 SAH854      0.0000 
     40 H          36.0956   -8.2691  -20.9130 H         1 SAH854      0.0000 
     41 H          31.8041  -10.4047  -22.7293 H         1 SAH854      0.0000 
     42 H          23.9234   -2.9223  -23.6423 H         1 SAH854      0.0000 
     43 H          24.4771   -4.3250  -24.2011 H         1 SAH854      0.0000 
     44 H          22.9043   -3.9967  -24.2695 H         1 SAH854      0.0000 
     45 H          27.6256   -7.2027  -18.8128 H         1 SAH854      0.0000 
     46 H          29.4355   -8.2029  -17.8326 H         1 SAH854      0.0000 
@<TRIPOS>BOND
     1    2    1 1    
     2   42    1 1    
     3   43    1 1    
     4   44    1 1    
     5    3    2 1    
     6    6    2 1    
     7   27    2 1    
     8    4    3 1    
     9   28    3 1    
    10   29    3 1    
    11    5    4 1    
    12   30    4 1    
    13   31    4 1    
    14    9    5 1    
    15    7    6 ar   
    16    8    6 ar   
    17   10    9 1    
    18   32    9 1    
    19   33    9 1    
    20   11   10 1    
    21   12   10 1    
    22   34   10 1    
    23   16   11 1    
    24   13   12 1    
    25   14   12 1    
    26   35   12 1    
    27   45   13 1    
    28   15   14 1    
    29   16   14 1    
    30   36   14 1    
    31   46   15 1    
    32   17   16 1    
    33   37   16 1    
    34   18   17 1    
    35   26   17 1    
    36   19   18 2    
    37   38   18 1    
    38   20   19 1    
    39   21   20 ar   
    40   26   20 ar   
    41   22   21 1    
    42   23   21 ar   
    43   39   22 1    
    44   40   22 1    
    45   24   23 ar   
    46   25   24 ar   
    47   41   24 1    
    48   26   25 ar   
@<TRIPOS>SUBSTRUCTURE
     1 SAH854      1 GROUP   
@<TRIPOS>SET

