#    Name: 3nyq_AMP_2_INTS_M
#    Modification time : Tue Mar 25 02:59:38 2014

@<TRIPOS>MOLECULE
3nyq_AMP_2_INTS_M
   64     0    12     0     0
SMALL
NO_CHARGES


@<TRIPOS>ATOM
      1 NZ         22.2505    2.6105   60.4135 N.4       3 LYC4        0.0000 
      2 NZ         23.2090    2.8020   59.1660 N.4      11 LYL4        0.0000 
      3 NZ         21.2920    2.4190   61.6610 N.4       7 LYP4        0.0000 
      4 N          22.2505    2.6105   60.4135 N.am      2 SEC2        0.0000 
      5 N          23.2090    2.8020   59.1660 N.am     10 SEL2        0.0000 
      6 N          21.2920    2.4190   61.6610 N.am      6 SEP2        0.0000 
      7 N          25.6155    0.2380   57.5965 N.am      2 SEC2        0.0000 
      8 N          24.8890    1.1540   58.2940 N.am     10 SEL2        0.0000 
      9 N          26.3420   -0.6780   56.8990 N.am      6 SEP2        0.0000 
     10 N          25.0540    1.3360   56.9495 N.am      2 SEC2        0.0000 
     11 N          25.2190    1.5180   55.6050 N.am      6 SEP2        0.0000 
     12 NZ         26.5880    3.8955   59.5830 N.4       3 LYC4        0.0000 
     13 NZ         25.6440    2.7570   59.9310 N.4      11 LYL4        0.0000 
     14 NZ         27.5320    5.0340   59.2350 N.4       7 LYP4        0.0000 
     15 N          26.5880    3.8955   59.5830 N.am      2 SEC2        0.0000 
     16 N          25.6440    2.7570   59.9310 N.am     10 SEL2        0.0000 
     17 N          27.5320    5.0340   59.2350 N.am      6 SEP2        0.0000 
     18 N          22.6135    1.7465   61.1705 N.am      2 SEC2        0.0000 
     19 N          23.9350    1.0740   60.6800 N.am     10 SEL2        0.0000 
     20 CA         25.5030   -1.0040   60.0435 C.3       4 GLC5        0.0000 
     21 CA         24.8260    0.0840   61.2270 C.3      12 GLL5        0.0000 
     22 CA         26.1800   -2.0920   58.8600 C.3       8 GLP5        0.0000 
     23 CA         23.4365   -0.5660   59.7215 C.3       4 GLC5        0.0000 
     24 CA         22.0470   -1.2160   58.2160 C.3       8 GLP5        0.0000 
     25 CA         26.6405   -1.7395   62.1730 C.3       4 GLC5        0.0000 
     26 CA         25.5240   -0.8670   63.5100 C.3      12 GLL5        0.0000 
     27 CA         27.7570   -2.6120   60.8360 C.3       8 GLP5        0.0000 
     28 O          27.2130   -0.6045   65.3370 O.2       1 ALC1        0.0000 
     29 O          26.8830   -0.4320   63.6700 O.2       9 ALL1        0.0000 
     30 O          27.5430   -0.7770   67.0040 O.2       5 ALP1        0.0000 
     31 O          27.4960   -1.3015   64.5485 O.2       1 ALC1        0.0000 
     32 O          28.1090   -2.1710   65.4270 O.2       5 ALP1        0.0000 
     33 O          26.3580   -0.3545   66.3875 O.2       1 ALC1        0.0000 
     34 O          25.1730    0.0680   65.7710 O.2       9 ALL1        0.0000 
     35 CA         22.6640    1.0805   63.6705 C.3       4 GLC5        0.0000 
     36 CA         23.3470   -0.7280   64.4280 C.3      12 GLL5        0.0000 
     37 CA         21.9810    2.8890   62.9130 C.3       8 GLP5        0.0000 
     38 N          19.9545   -3.0975   62.6310 N.am      2 SEC2        0.0000 
     39 N          21.3150   -3.5910   63.3860 N.am     10 SEL2        0.0000 
     40 N          18.5940   -2.6040   61.8760 N.am      6 SEP2        0.0000 
     41 CA         20.1565   -2.4480   63.2590 C.3       4 GLC5        0.0000 
     42 CA         21.2120   -3.6810   64.7390 C.3      12 GLL5        0.0000 
     43 CA         19.1010   -1.2150   61.7790 C.3       8 GLP5        0.0000 
     44 CA         19.2155   -3.5370   67.1725 C.3       4 GLC5        0.0000 
     45 CA         20.4590   -4.5040   65.6950 C.3      12 GLL5        0.0000 
     46 CA         17.9720   -2.5700   68.6500 C.3       8 GLP5        0.0000 
     47 CA         20.8800   -6.2690   66.4115 C.3       4 GLC5        0.0000 
     48 CA         21.3010   -8.0340   67.1280 C.3       8 GLP5        0.0000 
     49 O          19.8135   -6.1815   64.0160 O.2       1 ALC1        0.0000 
     50 O          19.6270   -5.4720   65.2360 O.2       9 ALL1        0.0000 
     51 O          20.0000   -6.8910   62.7960 O.2       5 ALP1        0.0000 
     52 CA         20.1425   -1.9085   66.4895 C.3       4 GLC5        0.0000 
     53 CA         21.4550   -3.2360   67.4490 C.3      12 GLL5        0.0000 
     54 CA         18.8300   -0.5810   65.5300 C.3       8 GLP5        0.0000 
     55 CA         19.7135   -2.9030   68.0495 C.3       4 GLC5        0.0000 
     56 CA         22.9965   -4.3090   67.6225 C.3       4 GLC5        0.0000 
     57 CA         24.5380   -5.3820   67.7960 C.3       8 GLP5        0.0000 
     58 CA         23.3760    1.5067   62.4497 C.3       4 GLC5        0.0000 
     59 CA         24.7160    0.1650   62.7460 C.3      12 GLL5        0.0000 
     60 CA         25.6753   -2.7125   64.3900 C.3       4 GLC5        0.0000 
     61 CA         26.1940   -4.5030   64.6030 C.3       8 GLP5        0.0000 
     62 CA         21.8153   -5.5578   64.0680 C.3       4 GLC5        0.0000 
     63 CA         22.7950   -7.0230   62.9190 C.3       8 GLP5        0.0000 
     64 CA         20.1306   -1.9636   65.3950 C.3       4 GLC5        0.0000 
@<TRIPOS>BOND
@<TRIPOS>SUBSTRUCTURE
     1 ALC1       28 GROUP        1 X    ALC  0     ROOT ALC X 1
     2 SEC2        4 GROUP        1 X    SEC  0     **** SEC X 2
     3 LYC4        1 GROUP        1 X    LYC  0     **** LYC X 4
     4 GLC5       20 GROUP        1 X    GLC  0     **** GLC X 6
     5 ALP1       30 GROUP        1 Y    ALP  0     ROOT ALP Y 8
     6 SEP2        6 GROUP        1 Y    SEP  0     **** SEP Y 9
     7 LYP4        3 GROUP        1 Y    LYP  0     **** LYP Y 11
     8 GLP5       22 GROUP        1 Y    GLP  0     **** GLP Y 13
     9 ALL1       29 GROUP        1 Z    ALL  0     ROOT ALL Z 15
    10 SEL2        5 GROUP        1 Z    SEL  0     **** SEL Z 16
    11 LYL4        2 GROUP        1 Z    LYL  0     **** LYL Z 18
    12 GLL5       21 GROUP        1 Z    GLL  0     **** GLL Z 20
@<TRIPOS>SET

