#    Name: 3nyq_AMP_2_ligand
#    Modification time : Tue Mar 25 02:59:38 2014

@<TRIPOS>MOLECULE
3nyq_AMP_2_ligand
   35    37     1     0     0
SMALL
NO_CHARGES


@<TRIPOS>ATOM
      1 P          24.4500    1.9590   59.4220 P.3       1 AMP487      0.0000 
      2 O1P        23.2090    2.8020   59.1660 O.co2     1 AMP487      0.0000 
      3 O2P        24.8890    1.1540   58.2940 O.co2     1 AMP487      0.0000 
      4 O3P        25.6440    2.7570   59.9310 O.co2     1 AMP487      0.0000 
      5 O5'        23.9350    1.0740   60.6800 O.3       1 AMP487      0.0000 
      6 C5'        24.8260    0.0840   61.2270 C.3       1 AMP487      0.0000 
      7 C4'        24.7160    0.1650   62.7460 C.3       1 AMP487      0.0000 
      8 O4'        23.3680   -0.0970   63.1360 O.3       1 AMP487      0.0000 
      9 C3'        25.5240   -0.8670   63.5100 C.3       1 AMP487      0.0000 
     10 O3'        26.8830   -0.4320   63.6700 O.3       1 AMP487      0.0000 
     11 C2'        24.7890   -0.9770   64.8440 C.3       1 AMP487      0.0000 
     12 O2'        25.1730    0.0680   65.7710 O.3       1 AMP487      0.0000 
     13 C1'        23.3470   -0.7280   64.4280 C.3       1 AMP487      0.0000 
     14 N9         22.5360   -1.9580   64.2800 N.pl3     1 AMP487      0.0000 
     15 C8         22.1740   -2.5610   63.1400 C.2       1 AMP487      0.0000 
     16 N7         21.3150   -3.5910   63.3860 N.2       1 AMP487      0.0000 
     17 C5         21.2120   -3.6810   64.7390 C.ar      1 AMP487      0.0000 
     18 C6         20.4590   -4.5040   65.6950 C.ar      1 AMP487      0.0000 
     19 N6         19.6270   -5.4720   65.2360 N.pl3     1 AMP487      0.0000 
     20 N1         20.6690   -4.2430   67.0160 N.ar      1 AMP487      0.0000 
     21 C2         21.4550   -3.2360   67.4490 C.ar      1 AMP487      0.0000 
     22 N3         22.1200   -2.3890   66.6380 N.ar      1 AMP487      0.0000 
     23 C4         22.0270   -2.6000   65.3030 C.ar      1 AMP487      0.0000 
     24 H          25.8574    0.2758   60.9505 H         1 AMP487      0.0000 
     25 H          24.5491   -0.9189   60.9195 H         1 AMP487      0.0000 
     26 H          25.0077    1.1447   63.0803 H         1 AMP487      0.0000 
     27 H          25.4344   -1.7986   63.0032 H         1 AMP487      0.0000 
     28 H          24.8721   -1.9413   65.2172 H         1 AMP487      0.0000 
     29 H          22.8860   -0.0681   65.1428 H         1 AMP487      0.0000 
     30 H          22.4783   -2.3062   62.2430 H         1 AMP487      0.0000 
     31 H          19.1083   -5.9717   65.9297 H         1 AMP487      0.0000 
     32 H          19.6059   -5.6003   64.2445 H         1 AMP487      0.0000 
     33 H          21.5574   -3.1006   68.5072 H         1 AMP487      0.0000 
     34 H          27.2773   -1.0576   64.3431 H         1 AMP487      0.0000 
     35 H          26.0253   -0.2529   66.1840 H         1 AMP487      0.0000 
@<TRIPOS>BOND
     1    2    1 ar   
     2    3    1 ar   
     3    4    1 ar   
     4    5    1 1    
     5    6    5 1    
     6    7    6 1    
     7   24    6 1    
     8   25    6 1    
     9    8    7 1    
    10    9    7 1    
    11   26    7 1    
    12   13    8 1    
    13   10    9 1    
    14   11    9 1    
    15   27    9 1    
    16   34   10 1    
    17   12   11 1    
    18   13   11 1    
    19   28   11 1    
    20   35   12 1    
    21   14   13 1    
    22   29   13 1    
    23   15   14 1    
    24   23   14 1    
    25   16   15 2    
    26   30   15 1    
    27   17   16 1    
    28   18   17 ar   
    29   23   17 ar   
    30   19   18 1    
    31   20   18 ar   
    32   31   19 1    
    33   32   19 1    
    34   21   20 ar   
    35   22   21 ar   
    36   33   21 1    
    37   23   22 ar   
@<TRIPOS>SUBSTRUCTURE
     1 AMP487      1 GROUP   
@<TRIPOS>SET

