#    Name: 3cd8_L5G_1_INTS_M
#    Modification time : Mon Mar 24 20:50:37 2014

@<TRIPOS>MOLECULE
3cd8_L5G_1_INTS_M
   64     0     6     0     0
SMALL
NO_CHARGES


@<TRIPOS>ATOM
      1 N          20.8295   17.1585   56.8460 N.am      1 SEC2        0.0000 
      2 N          20.8530   15.6230   56.7120 N.am      5 SEL2        0.0000 
      3 N          20.8060   18.6940   56.9800 N.am      3 SEP2        0.0000 
      4 CA         18.9815   11.9390   59.5555 C.3       2 GLC5        0.0000 
      5 CA         17.0150   12.3890   58.6630 C.3       6 GLL5        0.0000 
      6 CA         20.9480   11.4890   60.4480 C.3       4 GLP5        0.0000 
      7 CA         16.1065   14.1130   57.6845 C.3       2 GLC5        0.0000 
      8 CA         17.9690   14.6240   58.7590 C.3       6 GLL5        0.0000 
      9 CA         14.2440   13.6020   56.6100 C.3       4 GLP5        0.0000 
     10 CA         24.9560   11.6330   59.2915 C.3       2 GLC5        0.0000 
     11 CA         24.1990   11.0250   57.6610 C.3       6 GLL5        0.0000 
     12 CA         25.7130   12.2410   60.9220 C.3       4 GLP5        0.0000 
     13 CA         23.7605    5.5130   60.0050 C.3       2 GLC5        0.0000 
     14 CA         22.2490    5.9330   60.8780 C.3       6 GLL5        0.0000 
     15 CA         25.2720    5.0930   59.1320 C.3       4 GLP5        0.0000 
     16 N          25.1915    9.6685   59.4300 N.am      1 SEC2        0.0000 
     17 N          23.9890    9.9720   58.4400 N.am      5 SEL2        0.0000 
     18 N          26.3940    9.3650   60.4200 N.am      3 SEP2        0.0000 
     19 CA         23.7930   12.5460   55.1195 C.3       2 GLC5        0.0000 
     20 CA         23.2150   11.4610   56.7690 C.3       6 GLL5        0.0000 
     21 CA         24.3710   13.6310   53.4700 C.3       4 GLP5        0.0000 
     22 CA         20.2095   10.8610   54.2275 C.3       2 GLC5        0.0000 
     23 CA         21.0990   12.5060   55.2520 C.3       6 GLL5        0.0000 
     24 CA         19.3200    9.2160   53.2030 C.3       4 GLP5        0.0000 
     25 CA         22.7350   13.0685   54.3610 C.3       2 GLC5        0.0000 
     26 CA         19.3880   13.3265   54.6455 C.3       2 GLC5        0.0000 
     27 CA         17.6770   14.1470   54.0390 C.3       4 GLP5        0.0000 
     28 CA         20.5745   16.5235   58.7015 C.3       2 GLC5        0.0000 
     29 CA         18.9220   15.5220   58.3060 C.3       6 GLL5        0.0000 
     30 CA         22.2270   17.5250   59.0970 C.3       4 GLP5        0.0000 
     31 CA         18.6415   17.2530   57.5835 C.3       2 GLC5        0.0000 
     32 CA         18.3610   18.9840   56.8610 C.3       4 GLP5        0.0000 
     33 CA         16.5885    8.6175   57.1335 C.3       2 GLC5        0.0000 
     34 CA         16.1430   10.1300   58.5470 C.3       6 GLL5        0.0000 
     35 CA         17.0340    7.1050   55.7200 C.3       4 GLP5        0.0000 
     36 CA         15.3745   13.0828   57.8588 C.3       2 GLC5        0.0000 
     37 CA         15.9950   12.7380   59.5520 C.3       6 GLL5        0.0000 
     38 CA         16.5498   12.5831   61.2899 C.3       2 GLC5        0.0000 
     39 CA         17.3200   12.9920   63.0580 C.3       4 GLP5        0.0000 
     40 CA         14.6675   12.3680   58.1482 C.3       2 GLC5        0.0000 
     41 CA         15.0540   11.7850   59.9360 C.3       6 GLL5        0.0000 
     42 CA         17.8188   16.6105   59.6593 C.3       2 GLC5        0.0000 
     43 CA         17.1920   18.1480   60.7860 C.3       4 GLP5        0.0000 
     44 CA         20.0423   14.0495   59.1913 C.3       2 GLC5        0.0000 
     45 CA         21.6390   13.0260   59.8500 C.3       4 GLP5        0.0000 
     46 CA         24.3880    9.9395   56.2335 C.3       2 GLC5        0.0000 
     47 CA         25.0690    8.6360   55.2520 C.3       4 GLP5        0.0000 
     48 CA         22.5206   12.0500   58.5241 C.3       2 GLC5        0.0000 
     49 CA         23.7180    9.1985   56.5079 C.3       2 GLC5        0.0000 
     50 CA         22.8320    9.2880   58.4090 C.3       6 GLL5        0.0000 
     51 CA         23.8920    9.8930   60.2115 C.3       2 GLC5        0.0000 
     52 CA         25.0420   11.0490   61.5930 C.3       4 GLP5        0.0000 
     53 CA         18.7775    7.7665   56.8237 C.3       2 GLC5        0.0000 
     54 CA         20.4310    7.8810   58.3500 C.3       6 GLL5        0.0000 
     55 CA         21.4288    8.9462   55.5069 C.3       2 GLC5        0.0000 
     56 CA         20.6110    8.9750   57.5050 C.3       6 GLL5        0.0000 
     57 CA         21.6010    8.2880   53.7020 C.3       4 GLP5        0.0000 
     58 CA         15.4277   12.1050   57.4813 C.3       2 GLC5        0.0000 
     59 CA         17.0800   11.0860   58.1580 C.3       6 GLL5        0.0000 
     60 CA         22.0421    7.0269   57.3751 C.3       2 GLC5        0.0000 
     61 CA         21.8080    9.6830   57.5350 C.3       6 GLL5        0.0000 
     62 CA         22.4550    5.4730   56.3720 C.3       4 GLP5        0.0000 
     63 CA         21.2886   10.0349   59.4131 C.3       2 GLC5        0.0000 
     64 CA         21.4460    7.4750   59.2200 C.3       6 GLL5        0.0000 
@<TRIPOS>BOND
@<TRIPOS>SUBSTRUCTURE
     1 SEC2        1 GROUP        1 X    SEC  0     ROOT SEC X 2
     2 GLC5        4 GROUP        1 X    GLC  0     **** GLC X 6
     3 SEP2        3 GROUP        1 Y    SEP  0     ROOT SEP Y 9
     4 GLP5        6 GROUP        1 Y    GLP  0     **** GLP Y 13
     5 SEL2        2 GROUP        1 Z    SEL  0     ROOT SEL Z 16
     6 GLL5        5 GROUP        1 Z    GLL  0     **** GLL Z 20
@<TRIPOS>SET

