#    Name: 3cd8_L5G_1_ligand
#    Modification time : Mon Mar 24 20:50:37 2014

@<TRIPOS>MOLECULE
3cd8_L5G_1_ligand
   46    50     1     0     0
SMALL
NO_CHARGES


@<TRIPOS>ATOM
      1 N1         18.8700   12.9580   57.3230 N.2       1 L5G1        0.0000 
      2 N3         20.8530   15.6230   56.7120 N.2       1 L5G1        0.0000 
      3 C4         17.0150   12.3890   58.6630 C.ar      1 L5G1        0.0000 
      4 C5         15.9950   12.7380   59.5520 C.ar      1 L5G1        0.0000 
      5 C6         15.0540   11.7850   59.9360 C.ar      1 L5G1        0.0000 
      6 C7         17.9610   13.3250   58.2470 C.2       1 L5G1        0.0000 
      7 C8         17.9690   14.6240   58.7590 C.2       1 L5G1        0.0000 
      8 C10        19.8260   15.0590   57.3540 C.2       1 L5G1        0.0000 
      9 C13        21.9960   10.7850   56.7020 C.ar      1 L5G1        0.0000 
     10 C15        24.1990   11.0250   57.6610 C.ar      1 L5G1        0.0000 
     11 C17        22.8320    9.2880   58.4090 C.ar      1 L5G1        0.0000 
     12 C20        20.4310    7.8810   58.3500 C.ar      1 L5G1        0.0000 
     13 C21        20.6110    8.9750   57.5050 C.ar      1 L5G1        0.0000 
     14 C22        22.2490    5.9330   60.8780 C.3       1 L5G1        0.0000 
     15 O2         21.1940    6.3870   60.0150 O.3       1 L5G1        0.0000 
     16 C19        21.4460    7.4750   59.2200 C.ar      1 L5G1        0.0000 
     17 C18        22.6520    8.1860   59.2510 C.ar      1 L5G1        0.0000 
     18 C16        21.8080    9.6830   57.5350 C.ar      1 L5G1        0.0000 
     19 N5         23.9890    9.9720   58.4400 N.ar      1 L5G1        0.0000 
     20 C14        23.2150   11.4610   56.7690 C.ar      1 L5G1        0.0000 
     21 O1         20.9960   11.1640   55.8430 O.3       1 L5G1        0.0000 
     22 C12        21.0990   12.5060   55.2520 C.3       1 L5G1        0.0000 
     23 C11        20.7660   13.6440   55.9900 C.2       1 L5G1        0.0000 
     24 N2         19.7330   13.7400   56.9100 N.pl3     1 L5G1        0.0000 
     25 N4         21.3910   14.8220   55.9320 N.2       1 L5G1        0.0000 
     26 C9         18.9220   15.5220   58.3060 C.2       1 L5G1        0.0000 
     27 C3         17.0800   11.0860   58.1580 C.ar      1 L5G1        0.0000 
     28 C2         16.1430   10.1300   58.5470 C.ar      1 L5G1        0.0000 
     29 C1         15.1280   10.4830   59.4370 C.ar      1 L5G1        0.0000 
     30 H          15.9407   13.6938   59.9199 H         1 L5G1        0.0000 
     31 H          14.3017   12.0401   60.5893 H         1 L5G1        0.0000 
     32 H          17.2786   14.9041   59.4589 H         1 L5G1        0.0000 
     33 H          25.0973   11.5546   57.6907 H         1 L5G1        0.0000 
     34 H          19.5379    7.3639   58.3338 H         1 L5G1        0.0000 
     35 H          19.8614    9.2564   56.8628 H         1 L5G1        0.0000 
     36 H          23.4000    7.8990   59.8891 H         1 L5G1        0.0000 
     37 H          23.3887   12.2718   56.1687 H         1 L5G1        0.0000 
     38 H          20.4967   12.4884   54.2667 H         1 L5G1        0.0000 
     39 H          22.1708   12.6100   54.8346 H         1 L5G1        0.0000 
     40 H          18.9616   16.4695   58.6487 H         1 L5G1        0.0000 
     41 H          17.8257   10.8336   57.4947 H         1 L5G1        0.0000 
     42 H          16.1987    9.1749   58.1824 H         1 L5G1        0.0000 
     43 H          14.4331    9.7834   59.7262 H         1 L5G1        0.0000 
     44 H          23.0620    5.6647   60.3612 H         1 L5G1        0.0000 
     45 H          22.5326    6.6427   61.5229 H         1 L5G1        0.0000 
     46 H          21.9706    5.1395   61.4191 H         1 L5G1        0.0000 
@<TRIPOS>BOND
     1    6    1 2    
     2   24    1 1    
     3    8    2 2    
     4   25    2 1    
     5    4    3 ar   
     6    6    3 1    
     7   27    3 ar   
     8    5    4 ar   
     9   30    4 1    
    10   29    5 ar   
    11   31    5 1    
    12    7    6 1    
    13   26    7 2    
    14   32    7 1    
    15   24    8 1    
    16   26    8 1    
    17   18    9 ar   
    18   20    9 ar   
    19   21    9 1    
    20   19   10 ar   
    21   20   10 ar   
    22   33   10 1    
    23   17   11 ar   
    24   18   11 ar   
    25   19   11 ar   
    26   13   12 ar   
    27   16   12 ar   
    28   34   12 1    
    29   18   13 ar   
    30   35   13 1    
    31   15   14 1    
    32   44   14 1    
    33   45   14 1    
    34   46   14 1    
    35   16   15 1    
    36   17   16 ar   
    37   36   17 1    
    38   37   20 1    
    39   22   21 1    
    40   23   22 1    
    41   38   22 1    
    42   39   22 1    
    43   24   23 1    
    44   25   23 2    
    45   40   26 1    
    46   28   27 ar   
    47   41   27 1    
    48   29   28 ar   
    49   42   28 1    
    50   43   29 1    
@<TRIPOS>SUBSTRUCTURE
     1 L5G1        1 GROUP   
@<TRIPOS>SET

