#    Name: 3t10_ACP_1_INTS_M
#    Modification time : Mon Mar 24 19:00:06 2014

@<TRIPOS>MOLECULE
3t10_ACP_1_INTS_M
   47     0    12     0     0
SMALL
NO_CHARGES


@<TRIPOS>ATOM
      1 N           8.4905   -5.9715   22.5550 N.am      2 SEC2        0.0000 
      2 N           9.3270   -4.9260   23.4490 N.am     10 SEL2        0.0000 
      3 N           7.6540   -7.0170   21.6610 N.am      6 SEP2        0.0000 
      4 Zn          8.3735   -2.7015   21.1360 Zn        3 ZIC7        0.0000 
      5 Zn          8.4960   -3.1170   22.0100 Zn       11 ZIL7        0.0000 
      6 Zn          8.2510   -2.2860   20.2620 Zn        7 ZIP7        0.0000 
      7 Zn          9.2855   -2.1825   20.1690 Zn        3 ZIC7        0.0000 
      8 Zn         10.3200   -2.0790   20.0760 Zn       11 ZIL7        0.0000 
      9 CA         11.3490   -5.1140   23.3515 C.3       4 GLC5        0.0000 
     10 CA         11.1780   -3.2920   22.3410 C.3      12 GLL5        0.0000 
     11 CA         11.5200   -6.9360   24.3620 C.3       8 GLP5        0.0000 
     12 Zn          8.3570   -3.1615   19.6975 Zn        3 ZIC7        0.0000 
     13 Zn          8.4630   -4.0370   19.1330 Zn       11 ZIL7        0.0000 
     14 N           7.6365   -3.3285   18.1290 N.am      2 SEC2        0.0000 
     15 N           8.4630   -4.0370   19.1330 N.am     10 SEL2        0.0000 
     16 N           6.8100   -2.6200   17.1250 N.am      6 SEP2        0.0000 
     17 N           7.9875   -6.5145   18.9795 N.am      2 SEC2        0.0000 
     18 N           9.4420   -6.3660   18.9390 N.am     10 SEL2        0.0000 
     19 N           6.5330   -6.6630   19.0200 N.am      6 SEP2        0.0000 
     20 CA         13.6935   -4.6990   14.9625 C.3       4 GLC5        0.0000 
     21 CA         12.2770   -4.0920   16.2270 C.3      12 GLL5        0.0000 
     22 CA         15.1100   -5.3060   13.6980 C.3       8 GLP5        0.0000 
     23 CA         12.0585   -2.7330   12.4755 C.3       4 GLC5        0.0000 
     24 CA         11.9090   -2.6990   14.3840 C.3      12 GLL5        0.0000 
     25 CA         12.2080   -2.7670   10.5670 C.3       8 GLP5        0.0000 
     26 CA          9.3065    2.4290   13.1235 C.3       4 GLC5        0.0000 
     27 CA          8.6050    0.5370   12.7150 C.3      12 GLL5        0.0000 
     28 CA         10.0080    4.3210   13.5320 C.3       8 GLP5        0.0000 
     29 CA          8.0230    0.7850   10.8115 C.3       4 GLC5        0.0000 
     30 CA          7.4410    1.0330    8.9080 C.3       8 GLP5        0.0000 
     31 O           6.6035    2.0860   12.1705 O.2       1 ALC1        0.0000 
     32 O           7.3140    0.9030   12.6880 O.2       9 ALL1        0.0000 
     33 O           5.8930    3.2690   11.6530 O.2       5 ALP1        0.0000 
     34 O           5.9270    0.3930   13.1630 O.2       1 ALC1        0.0000 
     35 O           4.5400   -0.1170   13.6380 O.2       5 ALP1        0.0000 
     36 CA         10.4320    2.6550   12.8905 C.3       4 GLC5        0.0000 
     37 CA         10.8560    0.9890   12.2490 C.3      12 GLL5        0.0000 
     38 CA         11.9965   -0.1875   11.1060 C.3       4 GLC5        0.0000 
     39 CA         13.1370   -1.3640    9.9630 C.3       8 GLP5        0.0000 
     40 CA         10.9340   -5.6318   15.0482 C.3       4 GLC5        0.0000 
     41 CA          9.9850   -6.6980   13.4230 C.3       8 GLP5        0.0000 
     42 CA         13.7147   -3.8105   14.2942 C.3       4 GLC5        0.0000 
     43 CA          7.8735   -0.1723   14.8468 C.3       4 GLC5        0.0000 
     44 CA          9.0310   -0.6820   13.3740 C.3      12 GLL5        0.0000 
     45 CA          6.9290   -0.2720   16.6490 C.3       8 GLP5        0.0000 
     46 CA         10.1003   -1.4389   11.6091 C.3       4 GLC5        0.0000 
     47 CA         10.5660   -2.3760    9.9880 C.3       8 GLP5        0.0000 
@<TRIPOS>BOND
@<TRIPOS>SUBSTRUCTURE
     1 ALC1       31 GROUP        1 X    ALC  0     ROOT ALC X 1
     2 SEC2        1 GROUP        1 X    SEC  0     **** SEC X 2
     3 ZIC7        4 GROUP        1 X    ZIC  0     **** ZIC X 5
     4 GLC5        9 GROUP        1 X    GLC  0     **** GLC X 6
     5 ALP1       33 GROUP        1 Y    ALP  0     ROOT ALP Y 8
     6 SEP2        3 GROUP        1 Y    SEP  0     **** SEP Y 9
     7 ZIP7        6 GROUP        1 Y    ZIP  0     **** ZIP Y 12
     8 GLP5       11 GROUP        1 Y    GLP  0     **** GLP Y 13
     9 ALL1       32 GROUP        1 Z    ALL  0     ROOT ALL Z 15
    10 SEL2        2 GROUP        1 Z    SEL  0     **** SEL Z 16
    11 ZIL7        5 GROUP        1 Z    ZIL  0     **** ZIL Z 19
    12 GLL5       10 GROUP        1 Z    GLL  0     **** GLL Z 20
@<TRIPOS>SET

