#    Name: 3t10_ACP_1_ligand
#    Modification time : Mon Mar 24 19:00:06 2014

@<TRIPOS>MOLECULE
3t10_ACP_1_ligand
   45    47     1     0     0
SMALL
NO_CHARGES


@<TRIPOS>ATOM
      1 PG          9.4890   -3.5020   22.9970 P.3       1 ACP301      0.0000 
      2 O1G         9.4490   -2.6440   24.2370 O.co2     1 ACP301      0.0000 
      3 O2G         9.3270   -4.9260   23.4490 O.co2     1 ACP301      0.0000 
      4 O3G         8.4960   -3.1170   22.0100 O.co2     1 ACP301      0.0000 
      5 PB         11.2650   -3.1220   20.5630 P.3       1 ACP301      0.0000 
      6 O1B        12.6810   -2.9800   20.1380 O.co2     1 ACP301      0.0000 
      7 O2B        10.3200   -2.0790   20.0760 O.co2     1 ACP301      0.0000 
      8 C3B        11.1780   -3.2920   22.3410 C.3       1 ACP301      0.0000 
      9 PA          9.6470   -4.8830   18.9230 P.3       1 ACP301      0.0000 
     10 O1A         8.4630   -4.0370   19.1330 O.co2     1 ACP301      0.0000 
     11 O2A         9.4420   -6.3660   18.9390 O.co2     1 ACP301      0.0000 
     12 O3A        10.7760   -4.5440   20.0160 O.3       1 ACP301      0.0000 
     13 O5'        10.3150   -4.3930   17.5660 O.3       1 ACP301      0.0000 
     14 C5'        11.4890   -5.0390   17.1200 C.3       1 ACP301      0.0000 
     15 C4'        12.2770   -4.0920   16.2270 C.3       1 ACP301      0.0000 
     16 O4'        11.6210   -3.9700   14.9550 O.3       1 ACP301      0.0000 
     17 C3'        12.4180   -2.6430   16.6890 C.3       1 ACP301      0.0000 
     18 O3'        13.4520   -2.4880   17.6750 O.3       1 ACP301      0.0000 
     19 C2'        12.7300   -1.9310   15.3970 C.3       1 ACP301      0.0000 
     20 O2'        14.1050   -2.1150   15.0920 O.3       1 ACP301      0.0000 
     21 C1'        11.9090   -2.6990   14.3840 C.3       1 ACP301      0.0000 
     22 N9         10.6070   -2.0530   14.1160 N.pl3     1 ACP301      0.0000 
     23 C8          9.3810   -2.4990   14.4670 C.2       1 ACP301      0.0000 
     24 N7          8.4240   -1.6690   14.0420 N.2       1 ACP301      0.0000 
     25 C5          9.0310   -0.6820   13.3740 C.ar      1 ACP301      0.0000 
     26 C6          8.6050    0.5370   12.7150 C.ar      1 ACP301      0.0000 
     27 N6          7.3140    0.9030   12.6880 N.pl3     1 ACP301      0.0000 
     28 N1          9.5640    1.3250   12.1650 N.ar      1 ACP301      0.0000 
     29 C2         10.8560    0.9890   12.2490 C.ar      1 ACP301      0.0000 
     30 N3         11.3280   -0.1000   12.8630 N.ar      1 ACP301      0.0000 
     31 C4         10.4510   -0.9310   13.4160 C.ar      1 ACP301      0.0000 
     32 H          11.7005   -4.1624   22.6000 H         1 ACP301      0.0000 
     33 H          11.5443   -2.4046   22.7604 H         1 ACP301      0.0000 
     34 H          11.2675   -5.9410   16.5360 H         1 ACP301      0.0000 
     35 H          12.1408   -5.3319   17.9525 H         1 ACP301      0.0000 
     36 H          13.2756   -4.4876   16.0636 H         1 ACP301      0.0000 
     37 H          11.4566   -2.3196   17.0241 H         1 ACP301      0.0000 
     38 H          12.4141   -0.9513   15.4404 H         1 ACP301      0.0000 
     39 H          12.4651   -2.8042   13.4833 H         1 ACP301      0.0000 
     40 H           9.2215   -3.3309   14.9718 H         1 ACP301      0.0000 
     41 H           6.6675    0.2672   13.1096 H         1 ACP301      0.0000 
     42 H           7.1140    1.7788   12.2487 H         1 ACP301      0.0000 
     43 H          11.5736    1.6500   11.7840 H         1 ACP301      0.0000 
     44 H          13.0170   -2.7209   18.5448 H         1 ACP301      0.0000 
     45 H          14.5941   -1.5319   15.7407 H         1 ACP301      0.0000 
@<TRIPOS>BOND
     1    2    1 ar   
     2    3    1 ar   
     3    4    1 ar   
     4    8    1 1    
     5    6    5 ar   
     6    7    5 ar   
     7    8    5 1    
     8   12    5 1    
     9   32    8 1    
    10   33    8 1    
    11   10    9 ar   
    12   11    9 ar   
    13   12    9 1    
    14   13    9 1    
    15   14   13 1    
    16   15   14 1    
    17   34   14 1    
    18   35   14 1    
    19   16   15 1    
    20   17   15 1    
    21   36   15 1    
    22   21   16 1    
    23   18   17 1    
    24   19   17 1    
    25   37   17 1    
    26   44   18 1    
    27   20   19 1    
    28   21   19 1    
    29   38   19 1    
    30   45   20 1    
    31   22   21 1    
    32   39   21 1    
    33   23   22 1    
    34   31   22 1    
    35   24   23 2    
    36   40   23 1    
    37   25   24 1    
    38   26   25 ar   
    39   31   25 ar   
    40   27   26 1    
    41   28   26 ar   
    42   41   27 1    
    43   42   27 1    
    44   29   28 ar   
    45   30   29 ar   
    46   43   29 1    
    47   31   30 ar   
@<TRIPOS>SUBSTRUCTURE
     1 ACP301      1 GROUP   
@<TRIPOS>SET

