#    Name: 3t9i_3T9_1_INTS_M
#    Modification time : Mon Mar 24 19:24:28 2014

@<TRIPOS>MOLECULE
3t9i_3T9_1_INTS_M
   66     0     9     0     0
SMALL
NO_CHARGES


@<TRIPOS>ATOM
      1 CA        -19.5035   35.6460    0.9470 C.3       3 GLC5        0.0000 
      2 CA        -21.6140   35.2450    0.8480 C.3       9 GLL5        0.0000 
      3 CA        -17.3930   36.0470    1.0460 C.3       6 GLP5        0.0000 
      4 CA        -23.2110   34.2545   -4.0355 C.3       3 GLC5        0.0000 
      5 CA        -22.1970   32.5540   -3.1250 C.3       9 GLL5        0.0000 
      6 CA        -24.2250   35.9550   -4.9460 C.3       6 GLP5        0.0000 
      7 CA        -22.4650   30.9175   -6.0355 C.3       3 GLC5        0.0000 
      8 CA        -22.0700   31.4130   -3.9070 C.3       9 GLL5        0.0000 
      9 CA        -22.8600   30.4220   -8.1640 C.3       6 GLP5        0.0000 
     10 CA        -21.2350   32.7515   -5.2060 C.3       3 GLC5        0.0000 
     11 CA        -20.4000   34.0900   -6.5050 C.3       6 GLP5        0.0000 
     12 CA        -23.8010   31.2875   -2.8210 C.3       3 GLC5        0.0000 
     13 CA        -25.5320   31.1620   -1.7350 C.3       6 GLP5        0.0000 
     14 CA        -20.7215   30.3535   -5.8225 C.3       3 GLC5        0.0000 
     15 CA        -21.0710   30.5010   -3.6240 C.3       9 GLL5        0.0000 
     16 CA        -20.3720   30.2060   -8.0210 C.3       6 GLP5        0.0000 
     17 CA        -20.4025   33.1090    1.8365 C.3       3 GLC5        0.0000 
     18 CA        -21.3690   34.0690    0.1280 C.3       9 GLL5        0.0000 
     19 CA        -19.4360   32.1490    3.5450 C.3       6 GLP5        0.0000 
     20 N         -21.8775   28.2920   -3.9640 N.am      2 SEC2        0.0000 
     21 N         -20.9620   29.3870   -4.4050 N.am      8 SEL2        0.0000 
     22 N         -22.7930   27.1970   -3.5230 N.am      5 SEP2        0.0000 
     23 O         -19.9775   28.7420   -4.1940 O.2       1 ALC1        0.0000 
     24 O         -20.9620   29.3870   -4.4050 O.2       7 ALL1        0.0000 
     25 O         -18.9930   28.0970   -3.9830 O.2       4 ALP1        0.0000 
     26 CA        -23.4405   31.2335   -6.6955 C.3       3 GLC5        0.0000 
     27 CA        -24.0210   32.0450   -5.2270 C.3       9 GLL5        0.0000 
     28 CA        -26.0150   31.8005   -6.1095 C.3       3 GLC5        0.0000 
     29 CA        -28.0090   31.5560   -6.9920 C.3       6 GLP5        0.0000 
     30 CA        -24.7715   33.6350   -4.9230 C.3       3 GLC5        0.0000 
     31 CA        -25.5220   35.2250   -4.6190 C.3       6 GLP5        0.0000 
     32 CA        -22.2105   33.0675   -5.8660 C.3       3 GLC5        0.0000 
     33 CA        -24.7765   31.6035   -3.4810 C.3       3 GLC5        0.0000 
     34 CA        -25.0840   30.5520   -5.4515 C.3       3 GLC5        0.0000 
     35 CA        -26.1470   29.0590   -5.6760 C.3       6 GLP5        0.0000 
     36 CA        -20.7383   37.7717   -0.8100 C.3       3 GLC5        0.0000 
     37 CA        -22.3760   37.6820    0.5070 C.3       9 GLL5        0.0000 
     38 CA        -19.2590   38.5200   -1.9450 C.3       6 GLP5        0.0000 
     39 CA        -23.8679   36.4421    0.6803 C.3       3 GLC5        0.0000 
     40 CA        -25.8200   36.7500    0.7740 C.3       6 GLP5        0.0000 
     41 CA        -23.0237   33.5800    1.1385 C.3       3 GLC5        0.0000 
     42 CA        -24.5560   32.5030    1.7890 C.3       6 GLP5        0.0000 
     43 CA        -20.5099   33.7811   -3.3785 C.3       3 GLC5        0.0000 
     44 CA        -21.5520   34.0350   -1.2620 C.3       9 GLL5        0.0000 
     45 CA        -19.2010   34.5780   -4.3630 C.3       6 GLP5        0.0000 
     46 CA        -23.3664   32.5616   -1.5565 C.3       3 GLC5        0.0000 
     47 CA        -21.3290   32.7940   -2.0640 C.3       9 GLL5        0.0000 
     48 CA        -24.9140   32.1390   -0.7190 C.3       6 GLP5        0.0000 
     49 CA        -22.4593   30.2628   -2.5120 C.3       3 GLC5        0.0000 
     50 CA        -22.7850   28.5420   -1.5080 C.3       6 GLP5        0.0000 
     51 CA        -24.1310   37.3323    1.6055 C.3       3 GLC5        0.0000 
     52 CA        -22.4870   37.5210    3.0090 C.3       9 GLL5        0.0000 
     53 CA        -18.4438   30.9835   -2.2405 C.3       3 GLC5        0.0000 
     54 CA        -20.3330   31.8690   -1.7710 C.3       9 GLL5        0.0000 
     55 CA        -16.6200   30.6710   -2.3190 C.3       6 GLP5        0.0000 
     56 CA        -19.7343   32.9370   -3.2625 C.3       3 GLC5        0.0000 
     57 CA        -20.2020   30.7230   -2.5530 C.3       9 GLL5        0.0000 
     58 CA        -21.6349   29.8912   -1.9689 C.3       3 GLC5        0.0000 
     59 CA        -21.5157   41.1842    1.3813 C.3       3 GLC5        0.0000 
     60 CA        -22.3660   39.6960    1.9930 C.3       9 GLL5        0.0000 
     61 CA        -20.6470   42.3740    0.1380 C.3       6 GLP5        0.0000 
     62 CA        -20.5079   38.4200    2.1922 C.3       3 GLC5        0.0000 
     63 CA        -18.5790   39.0820    2.2870 C.3       6 GLP5        0.0000 
     64 CA        -20.5064   39.4159    2.8991 C.3       3 GLC5        0.0000 
     65 CA        -23.9549   40.7334    3.3651 C.3       3 GLC5        0.0000 
     66 CA        -25.4760   41.7170    3.2190 C.3       6 GLP5        0.0000 
@<TRIPOS>BOND
@<TRIPOS>SUBSTRUCTURE
     1 ALC1       23 GROUP        1 X    ALC  0     ROOT ALC X 1
     2 SEC2       20 GROUP        1 X    SEC  0     **** SEC X 2
     3 GLC5        1 GROUP        1 X    GLC  0     **** GLC X 6
     4 ALP1       25 GROUP        1 Y    ALP  0     ROOT ALP Y 8
     5 SEP2       22 GROUP        1 Y    SEP  0     **** SEP Y 9
     6 GLP5        3 GROUP        1 Y    GLP  0     **** GLP Y 13
     7 ALL1       24 GROUP        1 Z    ALL  0     ROOT ALL Z 15
     8 SEL2       21 GROUP        1 Z    SEL  0     **** SEL Z 16
     9 GLL5        2 GROUP        1 Z    GLL  0     **** GLL Z 20
@<TRIPOS>SET

