#    Name: 3t9i_3T9_1_ligand
#    Modification time : Mon Mar 24 19:24:28 2014

@<TRIPOS>MOLECULE
3t9i_3T9_1_ligand
   39    42     1     0     0
SMALL
NO_CHARGES


@<TRIPOS>ATOM
      1 N1        -22.7530   38.3290   -0.6270 N.pl3     1 3T9401      0.0000 
      2 C2        -22.0590   36.3650    0.1430 C.ar      1 3T9401      0.0000 
      3 C3        -22.2290   36.2710   -1.2190 C.ar      1 3T9401      0.0000 
      4 C4        -22.3760   37.6820    0.5070 C.2       1 3T9401      0.0000 
      5 N5        -22.6570   37.4480   -1.7170 N.2       1 3T9401      0.0000 
      6 N6        -21.9920   35.1350   -1.9140 N.ar      1 3T9401      0.0000 
      7 C7        -21.5520   34.0350   -1.2620 C.ar      1 3T9401      0.0000 
      8 C8        -21.6140   35.2450    0.8480 C.ar      1 3T9401      0.0000 
      9 C9        -21.3290   32.7940   -2.0640 C.ar      1 3T9401      0.0000 
     10 C10       -22.1970   32.5540   -3.1250 C.ar      1 3T9401      0.0000 
     11 C11       -22.0700   31.4130   -3.9070 C.ar      1 3T9401      0.0000 
     12 C12       -21.0710   30.5010   -3.6240 C.ar      1 3T9401      0.0000 
     13 C13       -22.3970   38.3080    1.8650 C.ar      1 3T9401      0.0000 
     14 C14       -21.3690   34.0690    0.1280 C.ar      1 3T9401      0.0000 
     15 C15       -20.3330   31.8690   -1.7710 C.ar      1 3T9401      0.0000 
     16 C16       -20.2020   30.7230   -2.5530 C.ar      1 3T9401      0.0000 
     17 O17       -22.9220   31.1750   -4.9580 O.3       1 3T9401      0.0000 
     18 O18       -20.9620   29.3870   -4.4050 O.3       1 3T9401      0.0000 
     19 C19       -22.3660   39.6960    1.9930 C.ar      1 3T9401      0.0000 
     20 C20       -22.4870   37.5210    3.0090 C.ar      1 3T9401      0.0000 
     21 C21       -24.0210   32.0450   -5.2270 C.3       1 3T9401      0.0000 
     22 C22       -22.5260   38.1170    4.2710 C.ar      1 3T9401      0.0000 
     23 C23       -22.4030   40.2930    3.2560 C.ar      1 3T9401      0.0000 
     24 C24       -22.4830   39.5050    4.3980 C.ar      1 3T9401      0.0000 
     25 H         -23.0424   39.2403   -0.6990 H         1 3T9401      0.0000 
     26 H         -21.4721   35.2799    1.8492 H         1 3T9401      0.0000 
     27 H         -22.9471   33.2357   -3.3334 H         1 3T9401      0.0000 
     28 H         -21.0528   33.2243    0.6211 H         1 3T9401      0.0000 
     29 H         -19.6963   32.0283   -0.9824 H         1 3T9401      0.0000 
     30 H         -19.4647   30.0385   -2.3425 H         1 3T9401      0.0000 
     31 H         -22.3154   40.2873    1.1510 H         1 3T9401      0.0000 
     32 H         -22.5251   36.4962    2.9269 H         1 3T9401      0.0000 
     33 H         -22.5869   37.5272    5.1128 H         1 3T9401      0.0000 
     34 H         -22.3708   41.3175    3.3369 H         1 3T9401      0.0000 
     35 H         -22.5102   39.9378    5.3254 H         1 3T9401      0.0000 
     36 H         -23.7176   32.9785   -5.4179 H         1 3T9401      0.0000 
     37 H         -24.5500   31.7410   -6.0193 H         1 3T9401      0.0000 
     38 H         -24.6533   32.0946   -4.4539 H         1 3T9401      0.0000 
     39 H         -19.9785   29.2359   -4.5043 H         1 3T9401      0.0000 
@<TRIPOS>BOND
     1    4    1 1    
     2    5    1 1    
     3   25    1 1    
     4    3    2 ar   
     5    4    2 2    
     6    8    2 ar   
     7    5    3 2    
     8    6    3 ar   
     9   13    4 1    
    10    7    6 ar   
    11    9    7 1    
    12   14    7 ar   
    13   14    8 ar   
    14   26    8 1    
    15   10    9 ar   
    16   15    9 ar   
    17   11   10 ar   
    18   27   10 1    
    19   12   11 ar   
    20   17   11 1    
    21   16   12 ar   
    22   18   12 1    
    23   19   13 ar   
    24   20   13 ar   
    25   28   14 1    
    26   16   15 ar   
    27   29   15 1    
    28   30   16 1    
    29   21   17 1    
    30   39   18 1    
    31   23   19 ar   
    32   31   19 1    
    33   22   20 ar   
    34   32   20 1    
    35   36   21 1    
    36   37   21 1    
    37   38   21 1    
    38   24   22 ar   
    39   33   22 1    
    40   24   23 ar   
    41   34   23 1    
    42   35   24 1    
@<TRIPOS>SUBSTRUCTURE
     1 3T9401      1 GROUP   
@<TRIPOS>SET

