#    Name: 2XDA_1_CAVITY_N1_6.mol2
#    Modification time : Mon Mar 10 23:12:56 2014

@<TRIPOS>MOLECULE
2XDA_1_CAVITY_N1_6.mol2
   79     0     5     0     0
SMALL
NO_CHARGES


@<TRIPOS>ATOM
      1 CA          0.7368   23.7498   23.3699 C.3       4 GLY6        0.0000 
      2 CA         -0.7315   22.2259   23.5186 C.3       4 GLY6        0.0000 
      3 CZ         -1.6786   18.4832   21.2066 C.ar      3 PHE5        0.0000 
      4 CA          1.6434   22.9641   24.2703 C.3       4 GLY6        0.0000 
      5 DU          1.3277   21.7165   23.4997 H         5 CUB7        0.0000 
      6 CA          0.1751   21.4403   24.4191 C.3       4 GLY6        0.0000 
      7 N          -0.9775   21.1640   25.3384 N.2       2 ALA2        0.0000 
      8 DU          1.0120   20.4690   22.7290 H         5 CUB7        0.0000 
      9 DU         -0.1406   20.1927   23.6484 H         5 CUB7        0.0000 
     10 CZ         -1.2932   19.9165   24.5678 C.ar      3 PHE5        0.0000 
     11 DU          0.6963   19.2214   21.9584 H         5 CUB7        0.0000 
     12 CZ         -0.4563   18.9451   22.8778 C.ar      3 PHE5        0.0000 
     13 OG          0.3806   17.9738   21.1877 O.2       1 SER1        0.0000 
     14 OG          0.0649   16.7263   20.4171 O.2       1 SER1        0.0000 
     15 N           2.2343   20.9309   24.4002 N.2       2 ALA2        0.0000 
     16 CA          1.0817   20.6546   25.3195 C.3       4 GLY6        0.0000 
     17 N          -0.0709   20.3784   26.2389 N.2       2 ALA2        0.0000 
     18 CA          1.9186   19.6833   23.6295 C.3       4 GLY6        0.0000 
     19 DU          0.7660   19.4071   24.5489 H         5 CUB7        0.0000 
     20 CZ         -0.3866   19.1308   25.4683 C.ar      3 PHE5        0.0000 
     21 CA          2.7554   18.7120   21.9395 C.3       4 GLY6        0.0000 
     22 CA          1.6029   18.4357   22.8589 C.3       4 GLY6        0.0000 
     23 CZ          0.4503   18.1595   23.7782 C.ar      3 PHE5        0.0000 
     24 O           2.4397   17.4644   21.1689 O.2       2 ALA2        0.0000 
     25 OG          1.2872   17.1882   22.0882 O.2       1 SER1        0.0000 
     26 O           2.1241   16.2169   20.3982 O.2       2 ALA2        0.0000 
     27 OG          0.9715   15.9406   21.3176 O.2       1 SER1        0.0000 
     28 O           2.9609   15.2455   18.7082 O.2       2 ALA2        0.0000 
     29 O           0.6558   14.6930   20.5469 O.2       2 ALA2        0.0000 
     30 N           1.9882   19.8690   26.2200 N.2       2 ALA2        0.0000 
     31 O           0.8357   19.5927   27.1394 O.2       2 ALA2        0.0000 
     32 N           1.6726   18.6214   25.4494 N.2       2 ALA2        0.0000 
     33 CZ          0.5200   18.3452   26.3687 C.ar      3 PHE5        0.0000 
     34 CA          2.5094   17.6501   23.7594 C.3       4 GLY6        0.0000 
     35 CZ          1.3569   17.3738   24.6787 C.ar      3 PHE5        0.0000 
     36 CZ          0.2043   17.0976   25.5981 C.ar      3 PHE5        0.0000 
     37 O           3.3463   16.6788   22.0693 O.2       2 ALA2        0.0000 
     38 OG          2.1937   16.4025   22.9887 O.2       1 SER1        0.0000 
     39 CZ          1.0412   16.1263   23.9081 C.ar      3 PHE5        0.0000 
     40 CA          4.1832   15.7075   20.3793 C.3       4 GLY6        0.0000 
     41 O           3.0306   15.4312   21.2987 O.2       2 ALA2        0.0000 
     42 OG          1.8781   15.1550   22.2181 O.2       1 SER1        0.0000 
     43 O           2.7149   14.1836   20.5280 O.2       2 ALA2        0.0000 
     44 OG          1.5624   13.9074   21.4474 O.2       1 SER1        0.0000 
     45 O           0.0941   12.3836   21.5961 O.2       2 ALA2        0.0000 
     46 N           2.5791   17.8358   26.3498 N.2       2 ALA2        0.0000 
     47 CA          1.4266   17.5595   27.2692 C.3       4 GLY6        0.0000 
     48 CA          3.4160   16.8644   24.6598 C.3       4 GLY6        0.0000 
     49 N           2.2634   16.5882   25.5792 N.2       2 ALA2        0.0000 
     50 CZ          1.1109   16.3119   26.4986 C.ar      3 PHE5        0.0000 
     51 N           4.2529   15.8931   22.9698 N.2       2 ALA2        0.0000 
     52 N           3.1003   15.6169   23.8892 N.2       2 ALA2        0.0000 
     53 CZ          1.9477   15.3406   24.8085 C.ar      3 PHE5        0.0000 
     54 CZ          0.7952   15.0644   25.7279 C.ar      3 PHE5        0.0000 
     55 O           3.9372   14.6456   22.1992 O.2       2 ALA2        0.0000 
     56 CA          2.7846   14.3693   23.1185 C.3       4 GLY6        0.0000 
     57 OG          1.6320   14.0931   24.0379 O.2       1 SER1        0.0000 
     58 CA          2.4689   13.1217   22.3479 C.3       4 GLY6        0.0000 
     59 OG          1.3164   12.8455   23.2673 O.2       1 SER1        0.0000 
     60 CZ          0.1638   12.5692   24.1866 C.ar      3 PHE5        0.0000 
     61 N           2.1532   11.8742   21.5772 N.2       2 ALA2        0.0000 
     62 O           1.0007   11.5979   22.4966 O.2       2 ALA2        0.0000 
     63 OG         -0.1519   11.3217   23.4160 O.2       1 SER1        0.0000 
     64 CA          0.6850   10.3503   21.7260 C.3       4 GLY6        0.0000 
     65 CA          3.1700   15.8025   26.4797 C.3       4 GLY6        0.0000 
     66 CA          2.0174   15.5263   27.3990 C.3       4 GLY6        0.0000 
     67 CA          4.0069   14.8312   24.7897 C.3       4 GLY6        0.0000 
     68 CA          2.8543   14.5550   25.7090 C.3       4 GLY6        0.0000 
     69 CA          3.6912   13.5837   24.0190 C.3       4 GLY6        0.0000 
     70 CA          2.5386   13.3074   24.9384 C.3       4 GLY6        0.0000 
     71 CA          1.3860   13.0311   25.8577 C.3       4 GLY6        0.0000 
     72 CA          3.3755   12.3361   23.2484 C.3       4 GLY6        0.0000 
     73 N           2.2229   12.0598   24.1677 N.2       2 ALA2        0.0000 
     74 O           1.0704   11.7836   25.0871 O.2       2 ALA2        0.0000 
     75 N           3.0598   11.0885   22.4777 N.2       2 ALA2        0.0000 
     76 O           1.9072   10.8123   23.3971 O.2       2 ALA2        0.0000 
     77 OG          0.7547   10.5360   24.3164 O.2       1 SER1        0.0000 
     78 O           1.5915    9.5647   22.6264 O.2       2 ALA2        0.0000 
     79 N           3.4452   12.5217   25.8389 N.2       2 ALA2        0.0000 
@<TRIPOS>BOND
@<TRIPOS>SUBSTRUCTURE
     1 SER1       13 GROUP   
     2 ALA2        7 GROUP   
     3 PHE5        3 GROUP   
     4 GLY6        1 GROUP   
     5 CUB7        5 GROUP   
@<TRIPOS>SET

