#    Name: 2xda_JPS_1_INTS_M
#    Modification time : Tue Mar 25 05:52:17 2014

@<TRIPOS>MOLECULE
2xda_JPS_1_INTS_M
   59     0     9     0     0
SMALL
NO_CHARGES


@<TRIPOS>ATOM
      1 CA         -0.4980   17.1155   24.6755 C.3       3 GLC5        0.0000 
      2 CA          1.1820   17.4800   25.4960 C.3       9 GLL5        0.0000 
      3 CA         -2.1780   16.7510   23.8550 C.3       6 GLP5        0.0000 
      4 CA          3.6590   17.8325   24.5875 C.3       3 GLC5        0.0000 
      5 CA          2.3770   16.5370   25.7270 C.3       9 GLL5        0.0000 
      6 CA          4.9410   19.1280   23.4480 C.3       6 GLP5        0.0000 
      7 CA          0.4010   15.6035   25.2915 C.3       3 GLC5        0.0000 
      8 CA         -1.5750   14.6700   24.8560 C.3       6 GLP5        0.0000 
      9 CA          1.1710   13.9105   27.0565 C.3       3 GLC5        0.0000 
     10 CA          2.0960   14.0500   25.0410 C.3       9 GLL5        0.0000 
     11 CA          0.2460   13.7710   29.0720 C.3       6 GLP5        0.0000 
     12 CA          3.6010   17.3430   23.2885 C.3       3 GLC5        0.0000 
     13 CA          2.2610   15.5580   23.1290 C.3       9 GLL5        0.0000 
     14 CA          3.9150   12.0440   23.5525 C.3       3 GLC5        0.0000 
     15 CA          1.8090   11.6790   23.9580 C.3       9 GLL5        0.0000 
     16 CA          6.0210   12.4090   23.1470 C.3       6 GLP5        0.0000 
     17 N           2.7495   11.1420   27.0960 N.am      2 SEC2        0.0000 
     18 N           1.5710   11.1780   26.2130 N.am      8 SEL2        0.0000 
     19 N           3.9280   11.1060   27.9790 N.am      5 SEP2        0.0000 
     20 N           0.8630   10.3825   27.0990 N.am      2 SEC2        0.0000 
     21 N           0.1550    9.5870   27.9850 N.am      5 SEP2        0.0000 
     22 N          -1.2640   10.4020   25.8155 N.am      2 SEC2        0.0000 
     23 N          -0.2760   11.0620   25.0200 N.am      8 SEL2        0.0000 
     24 N          -2.2520    9.7420   26.6110 N.am      5 SEP2        0.0000 
     25 N          -1.3640   10.7115   24.3670 N.am      2 SEC2        0.0000 
     26 N          -2.4520   10.3610   23.7140 N.am      5 SEP2        0.0000 
     27 N           3.0800    9.4950   24.1965 N.am      2 SEC2        0.0000 
     28 N           3.0760   10.9940   24.1390 N.am      8 SEL2        0.0000 
     29 N           3.0840    7.9960   24.2540 N.am      5 SEP2        0.0000 
     30 O           4.1020   10.8225   25.1330 O.2       1 ALC1        0.0000 
     31 O           3.0760   10.9940   24.1390 O.2       7 ALL1        0.0000 
     32 O           5.1280   10.6510   26.1270 O.2       4 ALP1        0.0000 
     33 CA          0.4905    9.4230   22.1220 C.3       3 GLC5        0.0000 
     34 CA          1.2290   11.1970   22.6140 C.3       9 GLL5        0.0000 
     35 CA         -0.2480    7.6490   21.6300 C.3       6 GLP5        0.0000 
     36 CA          4.0410   12.1070   22.3020 C.3       3 GLC5        0.0000 
     37 CA          2.0610   11.8050   21.4570 C.3       9 GLL5        0.0000 
     38 N           2.2685   10.4190   19.4625 N.am      2 SEC2        0.0000 
     39 N           1.5430   11.3300   20.2010 N.am      8 SEL2        0.0000 
     40 N           2.9940    9.5080   18.7240 N.am      5 SEP2        0.0000 
     41 N           1.0975   12.3540   19.3085 N.am      2 SEC2        0.0000 
     42 N           0.6520   13.3780   18.4160 N.am      5 SEP2        0.0000 
     43 CA          2.0000   21.3930   26.4925 C.3       3 GLC5        0.0000 
     44 CA          0.9320   20.0080   26.0390 C.3       9 GLL5        0.0000 
     45 CA          3.0680   22.7780   26.9460 C.3       6 GLP5        0.0000 
     46 CA         -0.1275   21.9795   25.9185 C.3       3 GLC5        0.0000 
     47 CA         -1.1870   23.9510   25.7980 C.3       6 GLP5        0.0000 
     48 CA         -1.1215   18.0823   25.8310 C.3       3 GLC5        0.0000 
     49 CA          1.0330   18.5770   26.5630 C.3       9 GLL5        0.0000 
     50 CA         -2.6060   17.2160   25.0990 C.3       6 GLP5        0.0000 
     51 CA          3.9420   14.8570   25.9035 C.3       3 GLC5        0.0000 
     52 CA          5.6820   14.7150   26.6640 C.3       6 GLP5        0.0000 
     53 CA          4.0297   12.9940   23.2612 C.3       3 GLC5        0.0000 
     54 CA          2.0010   13.2210   23.9740 C.3       9 GLL5        0.0000 
     55 CA          3.9365   12.6435   20.4075 C.3       3 GLC5        0.0000 
     56 CA          1.9390   13.3210   21.4230 C.3       9 GLL5        0.0000 
     57 CA          5.8730   12.7240   19.3750 C.3       6 GLP5        0.0000 
     58 CA          0.8578   19.7111   28.2590 C.3       3 GLC5        0.0000 
     59 CA          1.0680   19.9440   30.2170 C.3       6 GLP5        0.0000 
@<TRIPOS>BOND
@<TRIPOS>SUBSTRUCTURE
     1 ALC1       30 GROUP        1 X    ALC  0     ROOT ALC X 1
     2 SEC2       17 GROUP        1 X    SEC  0     **** SEC X 2
     3 GLC5        1 GROUP        1 X    GLC  0     **** GLC X 6
     4 ALP1       32 GROUP        1 Y    ALP  0     ROOT ALP Y 8
     5 SEP2       19 GROUP        1 Y    SEP  0     **** SEP Y 9
     6 GLP5        3 GROUP        1 Y    GLP  0     **** GLP Y 13
     7 ALL1       31 GROUP        1 Z    ALL  0     ROOT ALL Z 15
     8 SEL2       18 GROUP        1 Z    SEL  0     **** SEL Z 16
     9 GLL5        2 GROUP        1 Z    GLL  0     **** GLL Z 20
@<TRIPOS>SET

