#    Name: 2xda_JPS_1_ligand
#    Modification time : Tue Mar 25 05:52:17 2014

@<TRIPOS>MOLECULE
2xda_JPS_1_ligand
   37    39     1     0     0
SMALL
NO_CHARGES


@<TRIPOS>ATOM
      1 CAA         1.0330   18.5770   26.5630 C.3       1 JPS1151     0.0000 
      2 CAG         1.1820   17.4800   25.4960 C.3       1 JPS1151     0.0000 
      3 CAH         2.3770   16.5370   25.7270 C.3       1 JPS1151     0.0000 
      4 CAM         2.2390   15.3590   24.7630 C.2       1 JPS1151     0.0000 
      5 CAI         2.0960   14.0500   25.0410 C.2       1 JPS1151     0.0000 
      6 SAK         2.2610   15.5580   23.1290 S.3       1 JPS1151     0.0000 
      7 CAO         2.0760   13.9370   22.7770 C.2       1 JPS1151     0.0000 
      8 CAN         2.0010   13.2210   23.9740 C.2       1 JPS1151     0.0000 
      9 CAR         1.8090   11.6790   23.9580 C.3       1 JPS1151     0.0000 
     10 CAL         0.9480   11.2750   25.1550 C.2       1 JPS1151     0.0000 
     11 OAC         1.5710   11.1780   26.2130 O.co2     1 JPS1151     0.0000 
     12 OAB        -0.2760   11.0620   25.0200 O.co2     1 JPS1151     0.0000 
     13 OAF         3.0760   10.9940   24.1390 O.3       1 JPS1151     0.0000 
     14 CAJ         1.2290   11.1970   22.6140 C.3       1 JPS1151     0.0000 
     15 CAP         2.0610   11.8050   21.4570 C.3       1 JPS1151     0.0000 
     16 OAD         1.5430   11.3300   20.2010 O.3       1 JPS1151     0.0000 
     17 CAQ         1.9390   13.3210   21.4230 C.3       1 JPS1151     0.0000 
     18 OAE         2.8510   13.9730   20.5060 O.3       1 JPS1151     0.0000 
     19 CA0        -0.3070   19.3200   26.5630 C.3       1 JPS1151     0.0000 
     20 CA1         0.9320   20.0080   26.0390 C.3       1 JPS1151     0.0000 
     21 H           1.3785   18.6048   27.4249 H         1 JPS1151     0.0000 
     22 H           1.2913   17.9555   24.5095 H         1 JPS1151     0.0000 
     23 H           0.2586   16.8819   25.4691 H         1 JPS1151     0.0000 
     24 H           2.3559   16.1800   26.7409 H         1 JPS1151     0.0000 
     25 H           3.2906   17.0663   25.5240 H         1 JPS1151     0.0000 
     26 H           2.0609   13.6999   25.9936 H         1 JPS1151     0.0000 
     27 H           0.2072   11.5271   22.5252 H         1 JPS1151     0.0000 
     28 H           1.2866   10.1223   22.5632 H         1 JPS1151     0.0000 
     29 H           3.0807   11.5372   21.5818 H         1 JPS1151     0.0000 
     30 H           0.8904   13.5488   21.0837 H         1 JPS1151     0.0000 
     31 H          -0.4613   19.6233   27.4465 H         1 JPS1151     0.0000 
     32 H          -0.8046   19.0042   25.8220 H         1 JPS1151     0.0000 
     33 H           0.9158   19.9650   25.0924 H         1 JPS1151     0.0000 
     34 H           1.2590   20.5840   26.7168 H         1 JPS1151     0.0000 
     35 H           3.4279   11.3277   25.0135 H         1 JPS1151     0.0000 
     36 H           0.8184   10.6862   20.4469 H         1 JPS1151     0.0000 
     37 H           3.4973   14.4645   21.0897 H         1 JPS1151     0.0000 
@<TRIPOS>BOND
     1    2    1 1    
     2   19    1 1    
     3   20    1 1    
     4   21    1 1    
     5    3    2 1    
     6   22    2 1    
     7   23    2 1    
     8    4    3 1    
     9   24    3 1    
    10   25    3 1    
    11    5    4 2    
    12    6    4 1    
    13    8    5 1    
    14   26    5 1    
    15    7    6 1    
    16    8    7 2    
    17   17    7 1    
    18    9    8 1    
    19   10    9 1    
    20   13    9 1    
    21   14    9 1    
    22   11   10 ar   
    23   12   10 ar   
    24   35   13 1    
    25   15   14 1    
    26   27   14 1    
    27   28   14 1    
    28   16   15 1    
    29   17   15 1    
    30   29   15 1    
    31   36   16 1    
    32   18   17 1    
    33   30   17 1    
    34   37   18 1    
    35   20   19 1    
    36   31   19 1    
    37   32   19 1    
    38   33   20 1    
    39   34   20 1    
@<TRIPOS>SUBSTRUCTURE
     1 JPS1151     1 GROUP   
@<TRIPOS>SET

