#    Name: 2oxy_K17_2_INTS_M
#    Modification time : Mon Mar 24 18:00:27 2014

@<TRIPOS>MOLECULE
2oxy_K17_2_INTS_M
   43     0     3     0     0
SMALL
NO_CHARGES


@<TRIPOS>ATOM
      1 CA         28.0185   20.7685   29.0225 C.3       1 GLC5        0.0000 
      2 CA         29.5130   22.1810   28.8750 C.3       3 GLL5        0.0000 
      3 CA         26.5240   19.3560   29.1700 C.3       2 GLP5        0.0000 
      4 CA         30.5160   21.3425   30.0605 C.3       1 GLC5        0.0000 
      5 CA         31.5190   20.5040   31.2460 C.3       2 GLP5        0.0000 
      6 CA         27.5965   22.4870   28.3665 C.3       1 GLC5        0.0000 
      7 CA         25.6800   22.7930   27.8580 C.3       2 GLP5        0.0000 
      8 CA         27.8480   22.7820   25.1870 C.3       1 GLC5        0.0000 
      9 CA         29.5920   22.1430   26.0260 C.3       3 GLL5        0.0000 
     10 CA         26.1040   23.4210   24.3480 C.3       2 GLP5        0.0000 
     11 CA         27.6995   19.8880   27.7050 C.3       1 GLC5        0.0000 
     12 CA         28.8750   20.4200   26.2400 C.3       3 GLL5        0.0000 
     13 CA         27.5125   19.3565   25.0715 C.3       1 GLC5        0.0000 
     14 CA         26.1500   18.2930   23.9030 C.3       2 GLP5        0.0000 
     15 CA         32.8645   24.9130   23.1850 C.3       1 GLC5        0.0000 
     16 CA         30.7810   24.7100   23.1230 C.3       3 GLL5        0.0000 
     17 CA         34.9480   25.1160   23.2470 C.3       2 GLP5        0.0000 
     18 CA         28.9040   24.6090   23.1855 C.3       1 GLC5        0.0000 
     19 CA         27.0270   24.5080   23.2480 C.3       2 GLP5        0.0000 
     20 CA         28.1525   20.2880   22.9070 C.3       1 GLC5        0.0000 
     21 CA         29.5710   21.6110   23.1540 C.3       3 GLL5        0.0000 
     22 CA         26.7340   18.9650   22.6600 C.3       2 GLP5        0.0000 
     23 CA         28.4440   22.4615   21.5090 C.3       1 GLC5        0.0000 
     24 CA         27.3170   23.3120   19.8640 C.3       2 GLP5        0.0000 
     25 CA         31.4315   22.0118   27.5523 C.3       1 GLC5        0.0000 
     26 CA         29.8150   22.9040   27.1780 C.3       3 GLL5        0.0000 
     27 CA         33.1990   21.4810   27.0780 C.3       2 GLP5        0.0000 
     28 CA         28.5988   24.7148   27.1683 C.3       1 GLC5        0.0000 
     29 CA         27.1380   25.8880   27.1660 C.3       2 GLP5        0.0000 
     30 CA         30.8792   20.6428   25.6340 C.3       1 GLC5        0.0000 
     31 CA         32.5250   20.0040   25.1350 C.3       2 GLP5        0.0000 
     32 CA         27.4567   22.0373   26.9955 C.3       1 GLC5        0.0000 
     33 CA         32.4280   24.6325   26.6532 C.3       1 GLC5        0.0000 
     34 CA         30.3040   24.1790   27.1630 C.3       3 GLL5        0.0000 
     35 CA         34.4160   24.8280   26.7650 C.3       2 GLP5        0.0000 
     36 CA         28.7475   24.4123   24.2945 C.3       1 GLC5        0.0000 
     37 CA         30.5760   24.6950   25.9200 C.3       3 GLL5        0.0000 
     38 CA         28.8030   25.1022   26.2535 C.3       1 GLC5        0.0000 
     39 CA         30.3600   23.9380   24.7620 C.3       3 GLL5        0.0000 
     40 CA         31.7995   22.8342   26.3649 C.3       1 GLC5        0.0000 
     41 CA         31.1205   21.0670   24.5475 C.3       1 GLC5        0.0000 
     42 CA         29.8610   22.6490   24.7660 C.3       3 GLL5        0.0000 
     43 CA         28.3715   23.3190   23.6040 C.3       1 GLC5        0.0000 
@<TRIPOS>BOND
@<TRIPOS>SUBSTRUCTURE
     1 GLC5        1 GROUP        1 X    GLC  0     ROOT GLC X 6
     2 GLP5        3 GROUP        1 Y    GLP  0     ROOT GLP Y 13
     3 GLL5        2 GROUP        1 Z    GLL  0     ROOT GLL Z 20
@<TRIPOS>SET

