#    Name: 2oxy_K17_2_ligand
#    Modification time : Mon Mar 24 18:00:27 2014

@<TRIPOS>MOLECULE
2oxy_K17_2_ligand
   15    16     1     0     0
SMALL
NO_CHARGES


@<TRIPOS>ATOM
      1 BR3        29.5130   22.1810   28.8750 Br        1 K171002     0.0000 
      2 C3         29.8150   22.9040   27.1780 C.ar      1 K171002     0.0000 
      3 C2         29.5920   22.1430   26.0260 C.ar      1 K171002     0.0000 
      4 BR2        28.8750   20.4200   26.2400 Br        1 K171002     0.0000 
      5 C7         30.3040   24.1790   27.1630 C.ar      1 K171002     0.0000 
      6 N8         30.6050   25.0770   28.1680 N.pl3     1 K171002     0.0000 
      7 C9         31.0360   26.1630   27.5110 C.2       1 K171002     0.0000 
      8 N5         31.0280   25.9330   26.1500 N.2       1 K171002     0.0000 
      9 C6         30.5760   24.6950   25.9200 C.ar      1 K171002     0.0000 
     10 C4         30.3600   23.9380   24.7620 C.ar      1 K171002     0.0000 
     11 BR4        30.7810   24.7100   23.1230 Br        1 K171002     0.0000 
     12 C1         29.8610   22.6490   24.7660 C.ar      1 K171002     0.0000 
     13 BR1        29.5710   21.6110   23.1540 Br        1 K171002     0.0000 
     14 H          30.5191   24.9356   29.0861 H         1 K171002     0.0000 
     15 H          31.3186   27.0027   27.9146 H         1 K171002     0.0000 
@<TRIPOS>BOND
     1    2    1 1    
     2    3    2 ar   
     3    5    2 ar   
     4    4    3 1    
     5   12    3 ar   
     6    6    5 1    
     7    9    5 ar   
     8    7    6 1    
     9   14    6 1    
    10    8    7 2    
    11   15    7 1    
    12    9    8 1    
    13   10    9 ar   
    14   11   10 1    
    15   12   10 ar   
    16   13   12 1    
@<TRIPOS>SUBSTRUCTURE
     1 K171002     1 GROUP   
@<TRIPOS>SET

