#    Name: 2OCP_5_CAVITY_N1_ALL.mol2
#    Modification time : Tue Mar 11 02:29:10 2014

@<TRIPOS>MOLECULE
2OCP_5_CAVITY_N1_ALL.mol2
  111     0     7     0     0
SMALL
NO_CHARGES


@<TRIPOS>ATOM
      1 CA         55.6468   75.5100   65.0530 C.3       6 GLY6        0.0000 
      2 O          60.4737   73.3779   60.9111 O.2       2 ALA2        0.0000 
      3 CA         61.4493   72.3862   61.4721 C.3       6 GLY6        0.0000 
      4 CA         59.5898   72.2532   60.4600 C.3       6 GLY6        0.0000 
      5 CA         60.5654   71.2614   61.0209 C.3       6 GLY6        0.0000 
      6 O          61.5410   70.2697   61.5819 O.2       2 ALA2        0.0000 
      7 OG         58.7058   71.1284   60.0088 O.2       1 SER1        0.0000 
      8 OD1        60.6570   69.1449   61.1308 O.3       3 ASP3        0.0000 
      9 O          63.5838   66.1698   62.8137 O.2       2 ALA2        0.0000 
     10 CZ         64.5594   65.1780   63.3747 C.ar      5 PHE5        0.0000 
     11 OD1        57.8219   70.0036   59.5576 O.3       3 ASP3        0.0000 
     12 OD1        59.7731   68.0202   60.6796 O.3       3 ASP3        0.0000 
     13 O          60.7487   67.0285   61.2406 O.2       2 ALA2        0.0000 
     14 CZ         61.7243   66.0367   61.8015 C.ar      5 PHE5        0.0000 
     15 O          62.6999   65.0450   62.3625 O.2       2 ALA2        0.0000 
     16 O          63.6754   64.0533   62.9235 O.2       2 ALA2        0.0000 
     17 CZ         64.6510   63.0615   63.4845 C.ar      5 PHE5        0.0000 
     18 N          65.6266   62.0698   64.0454 N.2       2 ALA2        0.0000 
     19 OG         55.9624   69.8706   58.5455 O.2       1 SER1        0.0000 
     20 NZ         56.9379   68.8789   59.1065 N.2       4 LYS4        0.0000 
     21 CA         57.9135   67.8871   59.6674 C.3       6 GLY6        0.0000 
     22 O          62.7915   62.9285   62.4723 O.2       2 ALA2        0.0000 
     23 CZ         63.7671   61.9368   63.0333 C.ar      5 PHE5        0.0000 
     24 NZ         54.1028   69.7376   57.5333 N.2       4 LYS4        0.0000 
     25 NZ         55.0784   68.7458   58.0943 N.2       4 LYS4        0.0000 
     26 N          56.0540   67.7541   58.6553 N.2       2 ALA2        0.0000 
     27 N          54.1945   67.6211   57.6432 N.2       2 ALA2        0.0000 
     28 OG         57.8769   78.6769   62.7625 O.2       1 SER1        0.0000 
     29 N          58.8525   77.6852   63.3234 N.2       2 ALA2        0.0000 
     30 OG         56.9930   77.5522   62.3113 O.2       1 SER1        0.0000 
     31 O          57.9686   76.5604   62.8723 O.2       2 ALA2        0.0000 
     32 CA         58.6875   76.5233   61.5563 C.3       6 GLY6        0.0000 
     33 CA         59.6631   75.5316   62.1173 C.3       6 GLY6        0.0000 
     34 CA         57.8036   75.3985   61.1051 C.3       6 GLY6        0.0000 
     35 O          58.7792   74.4068   61.6661 O.2       2 ALA2        0.0000 
     36 O          59.7548   73.4151   62.2271 O.2       2 ALA2        0.0000 
     37 O          60.7304   72.4233   62.7881 O.2       2 ALA2        0.0000 
     38 O          61.7060   71.4316   63.3490 O.2       2 ALA2        0.0000 
     39 CA         62.6816   70.4399   63.9100 C.3       6 GLY6        0.0000 
     40 OG         57.8952   73.2820   61.2149 O.2       1 SER1        0.0000 
     41 O          58.8708   72.2903   61.7759 O.2       2 ALA2        0.0000 
     42 O          59.8464   71.2986   62.3369 O.2       2 ALA2        0.0000 
     43 O          60.8220   70.3069   62.8979 O.2       2 ALA2        0.0000 
     44 O          61.7976   69.3151   63.4589 O.2       2 ALA2        0.0000 
     45 O          62.7732   68.3234   64.0198 O.2       2 ALA2        0.0000 
     46 O          63.7488   67.3317   64.5808 O.2       2 ALA2        0.0000 
     47 OG         57.9869   71.1655   61.3248 O.2       1 SER1        0.0000 
     48 O          58.9625   70.1738   61.8857 O.2       2 ALA2        0.0000 
     49 O          59.9381   69.1821   62.4467 O.2       2 ALA2        0.0000 
     50 O          60.9137   68.1904   63.0077 O.2       2 ALA2        0.0000 
     51 O          61.8893   67.1986   63.5687 O.2       2 ALA2        0.0000 
     52 O          62.8649   66.2069   64.1296 O.2       2 ALA2        0.0000 
     53 CZ         63.8405   65.2152   64.6906 C.ar      5 PHE5        0.0000 
     54 CZ         64.8160   64.2235   65.2516 C.ar      5 PHE5        0.0000 
     55 CZ         65.7916   63.2317   65.8126 C.ar      5 PHE5        0.0000 
     56 OG         57.1030   70.0408   60.8736 O.2       1 SER1        0.0000 
     57 CA         58.0785   69.0490   61.4346 C.3       6 GLY6        0.0000 
     58 CA         59.0541   68.0573   61.9955 C.3       6 GLY6        0.0000 
     59 CA         60.0297   67.0656   62.5565 C.3       6 GLY6        0.0000 
     60 CZ         61.0053   66.0739   63.1175 C.ar      5 PHE5        0.0000 
     61 CZ         61.9809   65.0821   63.6785 C.ar      5 PHE5        0.0000 
     62 CZ         62.9565   64.0904   64.2395 C.ar      5 PHE5        0.0000 
     63 CZ         63.9321   63.0987   64.8004 C.ar      5 PHE5        0.0000 
     64 CZ         64.9077   62.1070   65.3614 C.ar      5 PHE5        0.0000 
     65 OG         54.2678   70.8995   59.3005 O.2       1 SER1        0.0000 
     66 OG         55.2434   69.9077   59.8615 O.2       1 SER1        0.0000 
     67 CA         56.2190   68.9160   60.4224 C.3       6 GLY6        0.0000 
     68 CZ         62.0726   62.9656   63.7883 C.ar      5 PHE5        0.0000 
     69 DU         54.3595   68.7830   59.4103 H         7 CUB7        0.0000 
     70 CA         55.3351   67.7912   59.9713 C.3       6 GLY6        0.0000 
     71 OG         56.1091   76.4274   61.8601 O.2       1 SER1        0.0000 
     72 O          57.0847   75.4357   62.4211 O.2       2 ALA2        0.0000 
     73 CA         56.2007   74.3109   61.9699 C.3       6 GLY6        0.0000 
     74 O          57.1763   73.3192   62.5309 O.2       2 ALA2        0.0000 
     75 O          60.1031   70.3440   64.2138 O.2       2 ALA2        0.0000 
     76 O          61.0787   69.3523   64.7748 O.2       2 ALA2        0.0000 
     77 CA         62.0543   68.3605   65.3358 C.3       6 GLY6        0.0000 
     78 OG         63.0299   67.3688   65.8968 O.2       1 SER1        0.0000 
     79 OG         64.0055   66.3771   66.4577 O.2       1 SER1        0.0000 
     80 OG         64.9811   65.3854   67.0187 O.2       1 SER1        0.0000 
     81 OG         65.9566   64.3936   67.5797 O.2       1 SER1        0.0000 
     82 OG         56.2924   72.1944   62.0797 O.2       1 SER1        0.0000 
     83 O          60.1947   68.2275   64.3237 O.2       2 ALA2        0.0000 
     84 DU         61.1703   67.2358   64.8846 H         7 CUB7        0.0000 
     85 OG         62.1459   66.2440   65.4456 O.2       1 SER1        0.0000 
     86 OG         63.1215   65.2523   66.0066 O.2       1 SER1        0.0000 
     87 OG         64.0971   64.2606   66.5676 O.2       1 SER1        0.0000 
     88 CA         65.0727   63.2689   67.1285 C.3       6 GLY6        0.0000 
     89 CA         66.0483   62.2771   67.6895 C.3       6 GLY6        0.0000 
     90 OG         55.4084   71.0696   61.6286 O.2       1 SER1        0.0000 
     91 O          56.3840   70.0779   62.1896 O.2       2 ALA2        0.0000 
     92 CA         58.3352   68.0945   63.3115 C.3       6 GLY6        0.0000 
     93 CA         59.3108   67.1027   63.8725 C.3       6 GLY6        0.0000 
     94 CZ         60.2864   66.1110   64.4335 C.ar      5 PHE5        0.0000 
     95 CZ         61.2620   65.1193   64.9944 C.ar      5 PHE5        0.0000 
     96 CA         62.2376   64.1276   65.5554 C.3       6 GLY6        0.0000 
     97 CZ         63.2132   63.1358   66.1164 C.ar      5 PHE5        0.0000 
     98 CA         55.5001   68.9532   61.7384 C.3       6 GLY6        0.0000 
     99 CA         54.6161   67.8284   61.2872 C.3       6 GLY6        0.0000 
    100 DU         57.1580   78.7141   64.0784 H         7 CUB7        0.0000 
    101 DU         56.2741   77.5893   63.6273 H         7 CUB7        0.0000 
    102 O          57.2497   76.5976   64.1882 O.2       2 ALA2        0.0000 
    103 O          56.3657   75.4728   63.7371 O.2       2 ALA2        0.0000 
    104 O          55.4818   74.3480   63.2859 O.2       2 ALA2        0.0000 
    105 NZ         61.3353   68.3977   66.6518 N.2       4 LYS4        0.0000 
    106 NZ         59.4758   68.2646   65.6396 N.2       4 LYS4        0.0000 
    107 NZ         60.4514   67.2729   66.2006 N.2       4 LYS4        0.0000 
    108 OG         61.4270   66.2812   66.7616 O.2       1 SER1        0.0000 
    109 OG         63.3782   64.2977   67.8835 O.2       1 SER1        0.0000 
    110 CA         58.5919   67.1399   65.1884 C.3       6 GLY6        0.0000 
    111 CA         59.5675   66.1482   65.7494 C.3       6 GLY6        0.0000 
@<TRIPOS>BOND
@<TRIPOS>SUBSTRUCTURE
     1 SER1        7 GROUP   
     2 ALA2        2 GROUP   
     3 ASP3        8 GROUP   
     4 LYS4       20 GROUP   
     5 PHE5       10 GROUP   
     6 GLY6        1 GROUP   
     7 CUB7       69 GROUP   
@<TRIPOS>SET

