#    Name: 2ocp_DTP_5_INTS_M
#    Modification time : Tue Mar 25 22:19:02 2014

@<TRIPOS>MOLECULE
2ocp_DTP_5_INTS_M
   72     0    12     0     0
SMALL
NO_CHARGES


@<TRIPOS>ATOM
      1 N          58.7310   73.7745   59.4895 N.am      2 SEC2        0.0000 
      2 N          58.9800   73.3730   60.8440 N.am     10 SEL2        0.0000 
      3 N          58.4820   74.1760   58.1350 N.am      6 SEP2        0.0000 
      4 N          56.8660   71.9930   60.4885 N.am      2 SEC2        0.0000 
      5 N          57.3280   71.6330   61.7320 N.am     10 SEL2        0.0000 
      6 N          56.4040   72.3530   59.2450 N.am      6 SEP2        0.0000 
      7 N          57.3895   70.9620   63.2410 N.am      2 SEC2        0.0000 
      8 N          57.4510   70.2910   64.7500 N.am      6 SEP2        0.0000 
      9 NZ         59.6740   70.2570   59.1805 N.4       3 LYC4        0.0000 
     10 NZ         59.1860   71.0200   60.0050 N.4      11 LYL4        0.0000 
     11 NZ         60.1620   69.4940   58.3560 N.4       7 LYP4        0.0000 
     12 N          59.6740   70.2570   59.1805 N.am      2 SEC2        0.0000 
     13 N          59.1860   71.0200   60.0050 N.am     10 SEL2        0.0000 
     14 N          60.1620   69.4940   58.3560 N.am      6 SEP2        0.0000 
     15 N          62.4065   72.4705   64.1995 N.am      2 SEC2        0.0000 
     16 N          61.8920   71.2830   63.9260 N.am     10 SEL2        0.0000 
     17 N          62.9210   73.6580   64.4730 N.am      6 SEP2        0.0000 
     18 N          60.8425   71.7160   65.0300 N.am      2 SEC2        0.0000 
     19 N          59.7930   72.1490   66.1340 N.am      6 SEP2        0.0000 
     20 NZ         61.1695   70.2965   59.8635 N.4       3 LYC4        0.0000 
     21 NZ         62.1770   71.0990   61.3710 N.4      11 LYL4        0.0000 
     22 NZ         63.3895   69.8330   60.9995 N.4       3 LYC4        0.0000 
     23 NZ         64.6020   68.5670   60.6280 N.4       7 LYP4        0.0000 
     24 N          59.2150   72.5815   63.6170 N.am      2 SEC2        0.0000 
     25 N          59.7940   71.6230   62.4950 N.am     10 SEL2        0.0000 
     26 N          58.6360   73.5400   64.7390 N.am      6 SEP2        0.0000 
     27 NZ         60.0440   68.6835   59.6405 N.4       3 LYC4        0.0000 
     28 NZ         59.9260   67.8730   60.9250 N.4      11 LYL4        0.0000 
     29 N          60.0440   68.6835   59.6405 N.am      2 SEC2        0.0000 
     30 N          59.9260   67.8730   60.9250 N.am     10 SEL2        0.0000 
     31 NZ         57.3785   69.7860   64.0915 N.4       3 LYC4        0.0000 
     32 NZ         58.2420   69.1410   62.5080 N.4      11 LYL4        0.0000 
     33 NZ         56.5150   70.4310   65.6750 N.4       7 LYP4        0.0000 
     34 CA         60.3265   65.1955   66.8815 C.3       4 GLC5        0.0000 
     35 CA         60.5560   66.7260   65.5940 C.3      12 GLL5        0.0000 
     36 CA         60.0970   63.6650   68.1690 C.3       8 GLP5        0.0000 
     37 CA         62.5065   69.6005   66.5235 C.3       4 GLC5        0.0000 
     38 CA         61.6050   67.6150   66.2850 C.3      12 GLL5        0.0000 
     39 CA         63.4080   71.5860   66.7620 C.3       8 GLP5        0.0000 
     40 CA         62.3720   66.8570   68.1890 C.3       4 GLC5        0.0000 
     41 CA         63.1390   66.0990   70.0930 C.3       8 GLP5        0.0000 
     42 CA         60.9420   68.6015   68.1870 C.3       4 GLC5        0.0000 
     43 CA         60.2790   69.5880   70.0890 C.3       8 GLP5        0.0000 
     44 N          62.4255   67.2880   68.3295 N.am      2 SEC2        0.0000 
     45 N          61.4910   67.7570   67.6960 N.am     10 SEL2        0.0000 
     46 N          63.3600   66.8190   68.9630 N.am      6 SEP2        0.0000 
     47 O          60.5555   68.8055   67.7630 O.2       1 ALC1        0.0000 
     48 O          61.4910   67.7570   67.6960 O.2       9 ALL1        0.0000 
     49 O          59.6200   69.8540   67.8300 O.2       5 ALP1        0.0000 
     50 CA         64.0995   68.5685   65.8805 C.3       4 GLC5        0.0000 
     51 CA         62.9360   67.0850   65.7050 C.3      12 GLL5        0.0000 
     52 CA         65.2630   70.0520   66.0560 C.3       8 GLP5        0.0000 
     53 CA         64.9350   66.5495   65.0100 C.3       4 GLC5        0.0000 
     54 CA         66.9340   66.0140   64.3150 C.3       8 GLP5        0.0000 
     55 CA         61.3465   64.6335   66.8290 C.3       4 GLC5        0.0000 
     56 CA         62.5960   65.6020   65.4890 C.3      12 GLL5        0.0000 
     57 N          63.8520   63.9220   61.1220 N.am      2 SEC2        0.0000 
     58 N          64.1000   64.1560   62.5530 N.am     10 SEL2        0.0000 
     59 N          63.6040   63.6880   59.6910 N.am      6 SEP2        0.0000 
     60 O          66.7095   60.6975   62.7065 O.2       1 ALC1        0.0000 
     61 O          66.1110   61.8970   62.3280 O.2       9 ALL1        0.0000 
     62 O          67.3080   59.4980   63.0850 O.2       5 ALP1        0.0000 
     63 N          66.7300   60.4985   64.9920 N.am      2 SEC2        0.0000 
     64 N          66.0120   61.8560   64.6820 N.am     10 SEL2        0.0000 
     65 N          67.4480   59.1410   65.3020 N.am      6 SEP2        0.0000 
     66 CA         65.0030   62.1150   67.7165 C.3       4 GLC5        0.0000 
     67 CA         65.5380   62.3080   65.8230 C.3      12 GLL5        0.0000 
     68 CA         64.4680   61.9220   69.6100 C.3       8 GLP5        0.0000 
     69 CA         67.2445   62.5950   64.7705 C.3       4 GLC5        0.0000 
     70 CA         68.9510   62.8820   63.7180 C.3       8 GLP5        0.0000 
     71 CA         67.0567   62.8875   63.6188 C.3       4 GLC5        0.0000 
     72 CA         65.6230   62.3710   63.5230 C.3      12 GLL5        0.0000 
@<TRIPOS>BOND
@<TRIPOS>SUBSTRUCTURE
     1 ALC1       47 GROUP        1 X    ALC  0     ROOT ALC X 1
     2 SEC2        1 GROUP        1 X    SEC  0     **** SEC X 2
     3 LYC4        9 GROUP        1 X    LYC  0     **** LYC X 4
     4 GLC5       34 GROUP        1 X    GLC  0     **** GLC X 6
     5 ALP1       49 GROUP        1 Y    ALP  0     ROOT ALP Y 8
     6 SEP2        3 GROUP        1 Y    SEP  0     **** SEP Y 9
     7 LYP4       11 GROUP        1 Y    LYP  0     **** LYP Y 11
     8 GLP5       36 GROUP        1 Y    GLP  0     **** GLP Y 13
     9 ALL1       48 GROUP        1 Z    ALL  0     ROOT ALL Z 15
    10 SEL2        2 GROUP        1 Z    SEL  0     **** SEL Z 16
    11 LYL4       10 GROUP        1 Z    LYL  0     **** LYL Z 18
    12 GLL5       35 GROUP        1 Z    GLL  0     **** GLL Z 20
@<TRIPOS>SET

