#    Name: 2ocp_DTP_5_ligand
#    Modification time : Tue Mar 25 22:19:02 2014

@<TRIPOS>MOLECULE
2ocp_DTP_5_ligand
   42    44     1     0     0
SMALL
NO_CHARGES


@<TRIPOS>ATOM
      1 PG         58.8190   71.9480   61.2510 P.3       1 DTP301      0.0000 
      2 O1G        58.9800   73.3730   60.8440 O.co2     1 DTP301      0.0000 
      3 O2G        57.3280   71.6330   61.7320 O.co2     1 DTP301      0.0000 
      4 O3G        59.1860   71.0200   60.0050 O.co2     1 DTP301      0.0000 
      5 PB         61.2280   70.9270   62.6520 P.3       1 DTP301      0.0000 
      6 O1B        61.8920   71.2830   63.9260 O.co2     1 DTP301      0.0000 
      7 O2B        62.1770   71.0990   61.3710 O.co2     1 DTP301      0.0000 
      8 O3B        59.7940   71.6230   62.4950 O.3       1 DTP301      0.0000 
      9 PA         59.7050   68.5060   62.2560 P.3       1 DTP301      0.0000 
     10 O1A        59.9260   67.8730   60.9250 O.co2     1 DTP301      0.0000 
     11 O2A        58.2420   69.1410   62.5080 O.co2     1 DTP301      0.0000 
     12 O3A        60.8930   69.4110   62.7920 O.3       1 DTP301      0.0000 
     13 O5'        59.8410   67.2890   63.2610 O.3       1 DTP301      0.0000 
     14 C5'        60.6780   67.5630   64.3590 C.3       1 DTP301      0.0000 
     15 C4'        60.5560   66.7260   65.5940 C.3       1 DTP301      0.0000 
     16 O4'        61.1730   65.4580   65.3040 O.3       1 DTP301      0.0000 
     17 C3'        61.6050   67.6150   66.2850 C.3       1 DTP301      0.0000 
     18 O3'        61.4910   67.7570   67.6960 O.3       1 DTP301      0.0000 
     19 C2'        62.9360   67.0850   65.7050 C.3       1 DTP301      0.0000 
     20 C1'        62.5960   65.6020   65.4890 C.3       1 DTP301      0.0000 
     21 N9         63.3530   64.8700   64.4670 N.pl3     1 DTP301      0.0000 
     22 C8         63.2970   65.0110   63.1130 C.2       1 DTP301      0.0000 
     23 N7         64.1000   64.1560   62.5530 N.2       1 DTP301      0.0000 
     24 C5         64.7020   63.4150   63.5160 C.ar      1 DTP301      0.0000 
     25 C6         65.6230   62.3710   63.5230 C.ar      1 DTP301      0.0000 
     26 N6         66.1110   61.8970   62.3280 N.pl3     1 DTP301      0.0000 
     27 N1         66.0120   61.8560   64.6820 N.ar      1 DTP301      0.0000 
     28 C2         65.5380   62.3080   65.8230 C.ar      1 DTP301      0.0000 
     29 N3         64.6670   63.2870   65.8600 N.ar      1 DTP301      0.0000 
     30 C4         64.2290   63.8560   64.7450 C.ar      1 DTP301      0.0000 
     31 H          60.5645   68.6525   64.6833 H         1 DTP301      0.0000 
     32 H          61.7748   67.5287   64.0412 H         1 DTP301      0.0000 
     33 H          59.7001   66.7947   66.0119 H         1 DTP301      0.0000 
     34 H          61.4739   68.6211   65.7672 H         1 DTP301      0.0000 
     35 H          63.6935   67.1776   66.4221 H         1 DTP301      0.0000 
     36 H          63.1266   67.5461   64.7842 H         1 DTP301      0.0000 
     37 H          62.8270   65.1057   66.4960 H         1 DTP301      0.0000 
     38 H          62.7257   65.6689   62.6635 H         1 DTP301      0.0000 
     39 H          66.3660   60.9302   62.3093 H         1 DTP301      0.0000 
     40 H          66.1683   62.5604   61.5820 H         1 DTP301      0.0000 
     41 H          65.8695   61.8689   66.7326 H         1 DTP301      0.0000 
     42 H          60.8081   68.4752   67.8294 H         1 DTP301      0.0000 
@<TRIPOS>BOND
     1    2    1 ar   
     2    3    1 ar   
     3    4    1 ar   
     4    8    1 1    
     5    6    5 ar   
     6    7    5 ar   
     7    8    5 1    
     8   12    5 1    
     9   10    9 ar   
    10   11    9 ar   
    11   12    9 1    
    12   13    9 1    
    13   14   13 1    
    14   15   14 1    
    15   31   14 1    
    16   32   14 1    
    17   16   15 1    
    18   17   15 1    
    19   33   15 1    
    20   20   16 1    
    21   18   17 1    
    22   19   17 1    
    23   34   17 1    
    24   42   18 1    
    25   20   19 1    
    26   35   19 1    
    27   36   19 1    
    28   21   20 1    
    29   37   20 1    
    30   22   21 1    
    31   30   21 1    
    32   23   22 2    
    33   38   22 1    
    34   24   23 1    
    35   25   24 ar   
    36   30   24 ar   
    37   26   25 1    
    38   27   25 ar   
    39   39   26 1    
    40   40   26 1    
    41   28   27 ar   
    42   29   28 ar   
    43   41   28 1    
    44   30   29 ar   
@<TRIPOS>SUBSTRUCTURE
     1 DTP301      1 GROUP   
@<TRIPOS>SET

