#    Name: 2x8i_X8I_1_INTS_M
#    Modification time : Tue Mar 25 05:29:41 2014

@<TRIPOS>MOLECULE
2x8i_X8I_1_INTS_M
   52     0     9     0     0
SMALL
NO_CHARGES


@<TRIPOS>ATOM
      1 CA          4.9805   -9.7575   39.0200 C.3       3 GLC5        0.0000 
      2 CA          5.7500   -7.8680   38.1250 C.3       9 GLL5        0.0000 
      3 CA          4.2110  -11.6470   39.9150 C.3       6 GLP5        0.0000 
      4 CA          3.1050   -2.9935   37.5135 C.3       3 GLC5        0.0000 
      5 CA          3.3710   -3.9220   39.5430 C.3       9 GLL5        0.0000 
      6 CA          2.8390   -2.0650   35.4840 C.3       6 GLP5        0.0000 
      7 CA          4.1990   -2.1120   38.9305 C.3       3 GLC5        0.0000 
      8 CA          5.0270   -0.3020   38.3180 C.3       6 GLP5        0.0000 
      9 CA          3.7640   -3.7580   36.4190 C.3       3 GLC5        0.0000 
     10 CA          4.6890   -5.4510   37.3540 C.3       9 GLL5        0.0000 
     11 CA          3.6640   -4.0635   43.2765 C.3       3 GLC5        0.0000 
     12 CA          3.8610   -2.7870   41.5730 C.3       9 GLL5        0.0000 
     13 CA          3.4670   -5.3400   44.9800 C.3       6 GLP5        0.0000 
     14 CA          6.4810   -5.5680   35.1970 C.3       3 GLC5        0.0000 
     15 CA          5.0390   -6.3970   36.4140 C.3       9 GLL5        0.0000 
     16 CA          7.9230   -4.7390   33.9800 C.3       6 GLP5        0.0000 
     17 CA          0.7745   -2.2470   42.5640 C.3       3 GLC5        0.0000 
     18 CA          1.5940   -1.1570   41.2300 C.3       9 GLL5        0.0000 
     19 CA         -0.0450   -3.3370   43.8980 C.3       6 GLP5        0.0000 
     20 CA         -0.1330   -0.6010   42.3740 C.3       3 GLC5        0.0000 
     21 CA         -1.8600   -0.0450   43.5180 C.3       6 GLP5        0.0000 
     22 CA          3.4665   -0.4640   40.9985 C.3       3 GLC5        0.0000 
     23 CA          5.3390    0.2290   40.7670 C.3       6 GLP5        0.0000 
     24 CA          3.4475   -1.2030   39.3210 C.3       3 GLC5        0.0000 
     25 CA          1.8680   -2.1040   40.3240 C.3       9 GLL5        0.0000 
     26 CA          0.4105   -0.4385   38.1415 C.3       3 GLC5        0.0000 
     27 CA          0.9850   -2.3180   39.1440 C.3       9 GLL5        0.0000 
     28 CA         -0.1640    1.4410   37.1390 C.3       6 GLP5        0.0000 
     29 CA          1.9120   -2.1915   37.3140 C.3       3 GLC5        0.0000 
     30 N           1.8895    1.2845   43.4910 N.am      2 SEC2        0.0000 
     31 N           2.4060   -0.1200   43.3100 N.am      8 SEL2        0.0000 
     32 N           1.3730    2.6890   43.6720 N.am      5 SEP2        0.0000 
     33 O           3.6390    0.7120   45.0920 O.2       1 ALC1        0.0000 
     34 O           3.4450   -0.2750   44.1910 O.2       7 ALL1        0.0000 
     35 O           3.8330    1.6990   45.9930 O.2       4 ALP1        0.0000 
     36 O           3.5185   -5.2235   35.2260 O.2       1 ALC1        0.0000 
     37 O           4.8530   -6.1260   35.0750 O.2       7 ALL1        0.0000 
     38 O           2.1840   -4.3210   35.3770 O.2       4 ALP1        0.0000 
     39 O           4.2940   -4.8935   34.5205 O.2       1 ALC1        0.0000 
     40 O           3.7350   -3.6610   33.9660 O.2       4 ALP1        0.0000 
     41 CA          5.2203   -5.3993   42.6665 C.3       3 GLC5        0.0000 
     42 CA          5.2900   -4.5210   40.7990 C.3       9 GLL5        0.0000 
     43 CA          5.3050   -6.7550   44.0640 C.3       6 GLP5        0.0000 
     44 CA          3.9751   -7.9108   38.7390 C.3       3 GLC5        0.0000 
     45 CA          2.3770   -8.3180   39.7870 C.3       6 GLP5        0.0000 
     46 CA          3.5063   -6.7321   39.3230 C.3       3 GLC5        0.0000 
     47 CA          4.8630   -5.7080   38.7000 C.3       9 GLL5        0.0000 
     48 CA          4.5365   -1.4184   40.9168 C.3       3 GLC5        0.0000 
     49 CA          3.0470   -2.9550   40.4770 C.3       9 GLL5        0.0000 
     50 CA          1.8615   -4.0899   41.4327 C.3       3 GLC5        0.0000 
     51 CA          0.1880   -5.0670   42.0740 C.3       6 GLP5        0.0000 
     52 CA          0.8073   -3.6390   40.9040 C.3       3 GLC5        0.0000 
@<TRIPOS>BOND
@<TRIPOS>SUBSTRUCTURE
     1 ALC1       33 GROUP        1 X    ALC  0     ROOT ALC X 1
     2 SEC2       30 GROUP        1 X    SEC  0     **** SEC X 2
     3 GLC5        1 GROUP        1 X    GLC  0     **** GLC X 6
     4 ALP1       35 GROUP        1 Y    ALP  0     ROOT ALP Y 8
     5 SEP2       32 GROUP        1 Y    SEP  0     **** SEP Y 9
     6 GLP5        3 GROUP        1 Y    GLP  0     **** GLP Y 13
     7 ALL1       34 GROUP        1 Z    ALL  0     ROOT ALL Z 15
     8 SEL2       31 GROUP        1 Z    SEL  0     **** SEL Z 16
     9 GLL5        2 GROUP        1 Z    GLL  0     **** GLL Z 20
@<TRIPOS>SET

