#    Name: 2x8i_X8I_1_ligand
#    Modification time : Tue Mar 25 05:29:41 2014

@<TRIPOS>MOLECULE
2x8i_X8I_1_ligand
   35    38     1     0     0
SMALL
NO_CHARGES


@<TRIPOS>ATOM
      1 C18         5.7500   -7.8680   38.1250 C.ar      1 X8I1270     0.0000 
      2 C17         5.4030   -6.9260   39.0690 C.ar      1 X8I1270     0.0000 
      3 C14         5.2900   -4.5210   40.7990 C.ar      1 X8I1270     0.0000 
      4 C15         4.9810   -3.5660   41.7390 C.ar      1 X8I1270     0.0000 
      5 C19         5.5700   -7.6100   36.7850 C.ar      1 X8I1270     0.0000 
      6 C12         3.3710   -3.9220   39.5430 C.ar      1 X8I1270     0.0000 
      7 C21         4.6890   -5.4510   37.3540 C.ar      1 X8I1270     0.0000 
      8 C13         4.4950   -4.7130   39.6910 C.ar      1 X8I1270     0.0000 
      9 C16         4.8630   -5.7080   38.7000 C.ar      1 X8I1270     0.0000 
     10 C11         3.0470   -2.9550   40.4770 C.ar      1 X8I1270     0.0000 
     11 C10         3.8610   -2.7870   41.5730 C.ar      1 X8I1270     0.0000 
     12 C20         5.0390   -6.3970   36.4140 C.ar      1 X8I1270     0.0000 
     13 C3          1.5940   -1.1570   41.2300 C.2       1 X8I1270     0.0000 
     14 C2          1.8680   -2.1040   40.3240 C.2       1 X8I1270     0.0000 
     15 C4          2.5210   -1.0130   42.3640 C.2       1 X8I1270     0.0000 
     16 C7          4.2330   -1.3090   43.7860 C.2       1 X8I1270     0.0000 
     17 C1          0.9850   -2.3180   39.1440 C.3       1 X8I1270     0.0000 
     18 N5          2.4060   -0.1200   43.3100 N.2       1 X8I1270     0.0000 
     19 N6          3.4450   -0.2750   44.1910 N.am      1 X8I1270     0.0000 
     20 N9          3.5310   -1.7880   42.5020 N.am      1 X8I1270     0.0000 
     21 O8          5.2470   -1.8320   44.2280 O.2       1 X8I1270     0.0000 
     22 O22         4.8530   -6.1260   35.0750 O.3       1 X8I1270     0.0000 
     23 H           6.1484   -8.7750   38.4262 H         1 X8I1270     0.0000 
     24 H           5.5492   -7.1331   40.0776 H         1 X8I1270     0.0000 
     25 H           6.1393   -5.1094   40.9264 H         1 X8I1270     0.0000 
     26 H           5.5862   -3.4355   42.5633 H         1 X8I1270     0.0000 
     27 H           5.8261   -8.3065   36.0802 H         1 X8I1270     0.0000 
     28 H           2.7579   -4.0563   38.7145 H         1 X8I1270     0.0000 
     29 H           4.2943   -4.5446   37.0511 H         1 X8I1270     0.0000 
     30 H           0.8012   -0.5363   41.1932 H         1 X8I1270     0.0000 
     31 H           3.5908    0.2682   44.9762 H         1 X8I1270     0.0000 
     32 H           1.4766   -2.1855   38.2833 H         1 X8I1270     0.0000 
     33 H           0.6069   -3.2436   39.1261 H         1 X8I1270     0.0000 
     34 H           0.2109   -1.6850   39.1398 H         1 X8I1270     0.0000 
     35 H           4.4603   -5.2067   35.0492 H         1 X8I1270     0.0000 
@<TRIPOS>BOND
     1    2    1 ar   
     2    5    1 ar   
     3   23    1 1    
     4    9    2 ar   
     5   24    2 1    
     6    4    3 ar   
     7    8    3 ar   
     8   25    3 1    
     9   11    4 ar   
    10   26    4 1    
    11   12    5 ar   
    12   27    5 1    
    13    8    6 ar   
    14   10    6 ar   
    15   28    6 1    
    16    9    7 ar   
    17   12    7 ar   
    18   29    7 1    
    19    9    8 1    
    20   11   10 ar   
    21   14   10 1    
    22   20   11 1    
    23   22   12 1    
    24   14   13 2    
    25   15   13 1    
    26   30   13 1    
    27   17   14 1    
    28   18   15 2    
    29   20   15 1    
    30   19   16 am   
    31   20   16 am   
    32   21   16 2    
    33   32   17 1    
    34   33   17 1    
    35   34   17 1    
    36   19   18 1    
    37   31   19 1    
    38   35   22 1    
@<TRIPOS>SUBSTRUCTURE
     1 X8I1270     1 GROUP   
@<TRIPOS>SET

