#    Name: 1i7l_ATP_2_INTS_M
#    Modification time : Tue Mar 25 06:46:18 2014

@<TRIPOS>MOLECULE
1i7l_ATP_2_INTS_M
   76     0    12     0     0
SMALL
NO_CHARGES


@<TRIPOS>ATOM
      1 N          61.9885   79.6450   10.6960 N.am      2 SEC2        0.0000 
      2 N          61.7150   78.5580   11.4600 N.am     10 SEL2        0.0000 
      3 N          62.2620   80.7320    9.9320 N.am      6 SEP2        0.0000 
      4 N          59.1715   77.3965   10.4785 N.am      2 SEC2        0.0000 
      5 N          59.3780   77.5020   11.7000 N.am     10 SEL2        0.0000 
      6 N          58.9650   77.2910    9.2570 N.am      6 SEP2        0.0000 
      7 NZ         59.8875   79.1495   14.5585 N.4       3 LYC4        0.0000 
      8 NZ         60.5450   78.5040   13.7110 N.4      11 LYL4        0.0000 
      9 NZ         59.2300   79.7950   15.4060 N.4       7 LYP4        0.0000 
     10 N          59.8875   79.1495   14.5585 N.am      2 SEC2        0.0000 
     11 N          60.5450   78.5040   13.7110 N.am     10 SEL2        0.0000 
     12 N          59.2300   79.7950   15.4060 N.am      6 SEP2        0.0000 
     13 NZ         56.1245   79.1845   13.1415 N.4       3 LYC4        0.0000 
     14 NZ         57.5650   79.6360   12.9710 N.4      11 LYL4        0.0000 
     15 NZ         54.6840   78.7330   13.3120 N.4       7 LYP4        0.0000 
     16 NZ         58.3975   79.7155   14.1885 N.4       3 LYC4        0.0000 
     17 NZ         56.2825   80.3185   10.3075 N.4       3 LYC4        0.0000 
     18 NZ         57.6330   79.7170   10.4200 N.4      11 LYL4        0.0000 
     19 NZ         54.9320   80.9200   10.1950 N.4       7 LYP4        0.0000 
     20 N          58.3955   79.9040    9.3265 N.am      2 SEC2        0.0000 
     21 N          57.6330   79.7170   10.4200 N.am     10 SEL2        0.0000 
     22 N          59.1580   80.0910    8.2330 N.am      6 SEP2        0.0000 
     23 N          56.2825   80.3185   10.3075 N.am      2 SEC2        0.0000 
     24 N          54.9320   80.9200   10.1950 N.am      6 SEP2        0.0000 
     25 NZ         56.3935   84.4725   13.7595 N.4       3 LYC4        0.0000 
     26 NZ         57.1900   83.4150   13.4860 N.4      11 LYL4        0.0000 
     27 NZ         55.5970   85.5300   14.0330 N.4       7 LYP4        0.0000 
     28 N          56.3935   84.4725   13.7595 N.am      2 SEC2        0.0000 
     29 N          57.1900   83.4150   13.4860 N.am     10 SEL2        0.0000 
     30 N          55.5970   85.5300   14.0330 N.am      6 SEP2        0.0000 
     31 NZ         59.3355   81.0130   14.6810 N.4       3 LYC4        0.0000 
     32 NZ         59.4410   82.2310   13.9560 N.4      11 LYL4        0.0000 
     33 N          59.3355   81.0130   14.6810 N.am      2 SEC2        0.0000 
     34 N          59.4410   82.2310   13.9560 N.am     10 SEL2        0.0000 
     35 CA         62.1310   85.8225   10.4325 C.3       4 GLC5        0.0000 
     36 CA         61.4950   84.9140   12.0470 C.3      12 GLL5        0.0000 
     37 CA         62.7670   86.7310    8.8180 C.3       8 GLP5        0.0000 
     38 O          63.2690   84.7735   15.0720 O.2       1 ALC1        0.0000 
     39 O          62.7020   84.2530   14.0380 O.2       9 ALL1        0.0000 
     40 O          63.8360   85.2940   16.1060 O.2       5 ALP1        0.0000 
     41 CA         61.6640   87.9845   15.3075 C.3       4 GLC5        0.0000 
     42 CA         61.9370   86.5820   13.6330 C.3      12 GLL5        0.0000 
     43 CA         61.3910   89.3870   16.9820 C.3       8 GLP5        0.0000 
     44 N          63.9495   86.6520   11.8580 N.am      2 SEC2        0.0000 
     45 N          63.2700   86.9850   13.4160 N.am     10 SEL2        0.0000 
     46 N          64.6290   86.3190   10.3000 N.am      6 SEP2        0.0000 
     47 N          64.6750   87.3855   12.8445 N.am      2 SEC2        0.0000 
     48 N          66.0800   87.7860   12.2730 N.am      6 SEP2        0.0000 
     49 O          64.1150   87.0310   14.4130 O.2       1 ALC1        0.0000 
     50 O          63.2700   86.9850   13.4160 O.2       9 ALL1        0.0000 
     51 O          64.9600   87.0770   15.4100 O.2       5 ALP1        0.0000 
     52 O          63.5530   86.1395   14.7610 O.2       1 ALC1        0.0000 
     53 CA         60.5235   88.3275   10.9400 C.3       4 GLC5        0.0000 
     54 CA         61.0810   87.2170   12.5100 C.3      12 GLL5        0.0000 
     55 CA         59.9660   89.4380    9.3700 C.3       8 GLP5        0.0000 
     56 CA         61.9240   86.9740   10.6640 C.3       4 GLC5        0.0000 
     57 N          56.6120   86.6510   13.9065 N.am      2 SEC2        0.0000 
     58 N          57.6270   87.7720   13.7800 N.am     10 SEL2        0.0000 
     59 O          55.5630   89.3525   15.0675 O.2       1 ALC1        0.0000 
     60 O          56.4630   90.4540   14.7530 O.2       9 ALL1        0.0000 
     61 O          54.6630   88.2510   15.3820 O.2       5 ALP1        0.0000 
     62 O          55.8110   91.8610   14.9435 O.2       1 ALC1        0.0000 
     63 O          55.1590   93.2680   15.1340 O.2       5 ALP1        0.0000 
     64 N          58.3685   92.8615   14.4510 N.am      2 SEC2        0.0000 
     65 N          58.5650   91.3710   14.2640 N.am     10 SEL2        0.0000 
     66 N          58.1720   94.3520   14.6380 N.am      6 SEP2        0.0000 
     67 CA         59.5985   92.6210   15.2875 C.3       4 GLC5        0.0000 
     68 CA         59.8040   91.2030   13.8120 C.3      12 GLL5        0.0000 
     69 CA         59.3930   94.0390   16.7630 C.3       8 GLP5        0.0000 
     70 CA         60.5975   90.2950   15.3970 C.3       4 GLC5        0.0000 
     71 CA         60.7320   85.4570   15.2222 C.3       4 GLC5        0.0000 
     72 CA         59.6590   85.0710   16.8800 C.3       8 GLP5        0.0000 
     73 CA         57.0475   90.3077   12.5305 C.3       4 GLC5        0.0000 
     74 CA         58.2070   89.0260   13.8660 C.3      12 GLL5        0.0000 
     75 CA         56.1340   90.9530   10.9730 C.3       8 GLP5        0.0000 
     76 CA         60.1280   89.2013   15.3135 C.3       4 GLC5        0.0000 
@<TRIPOS>BOND
@<TRIPOS>SUBSTRUCTURE
     1 ALC1       38 GROUP        1 X    ALC  0     ROOT ALC X 1
     2 SEC2        1 GROUP        1 X    SEC  0     **** SEC X 2
     3 LYC4        7 GROUP        1 X    LYC  0     **** LYC X 4
     4 GLC5       35 GROUP        1 X    GLC  0     **** GLC X 6
     5 ALP1       40 GROUP        1 Y    ALP  0     ROOT ALP Y 8
     6 SEP2        3 GROUP        1 Y    SEP  0     **** SEP Y 9
     7 LYP4        9 GROUP        1 Y    LYP  0     **** LYP Y 11
     8 GLP5       37 GROUP        1 Y    GLP  0     **** GLP Y 13
     9 ALL1       39 GROUP        1 Z    ALL  0     ROOT ALL Z 15
    10 SEL2        2 GROUP        1 Z    SEL  0     **** SEL Z 16
    11 LYL4        8 GROUP        1 Z    LYL  0     **** LYL Z 18
    12 GLL5       36 GROUP        1 Z    GLL  0     **** GLL Z 20
@<TRIPOS>SET

