#    Name: 1i7l_ATP_2_ligand
#    Modification time : Tue Mar 25 06:46:18 2014

@<TRIPOS>MOLECULE
1i7l_ATP_2_ligand
   43    45     1     0     0
SMALL
NO_CHARGES


@<TRIPOS>ATOM
      1 PG         60.4050   78.4920   12.1960 P.3       1 ATP801      0.0000 
      2 O1G        61.7150   78.5580   11.4600 O.co2     1 ATP801      0.0000 
      3 O2G        59.3780   77.5020   11.7000 O.co2     1 ATP801      0.0000 
      4 O3G        60.5450   78.5040   13.7110 O.co2     1 ATP801      0.0000 
      5 PB         58.1430   80.2130   11.6960 P.3       1 ATP801      0.0000 
      6 O1B        57.5650   79.6360   12.9710 O.co2     1 ATP801      0.0000 
      7 O2B        57.6330   79.7170   10.4200 O.co2     1 ATP801      0.0000 
      8 O3B        59.7330   79.9120   11.7680 O.3       1 ATP801      0.0000 
      9 PA         58.4550   82.8090   12.9790 P.3       1 ATP801      0.0000 
     10 O1A        57.1900   83.4150   13.4860 O.co2     1 ATP801      0.0000 
     11 O2A        59.4410   82.2310   13.9560 O.co2     1 ATP801      0.0000 
     12 O3A        58.0800   81.7480   11.8700 O.3       1 ATP801      0.0000 
     13 O5'        59.2200   83.8830   12.0940 O.3       1 ATP801      0.0000 
     14 C5'        60.6140   83.7270   11.6870 C.3       1 ATP801      0.0000 
     15 C4'        61.4950   84.9140   12.0470 C.3       1 ATP801      0.0000 
     16 O4'        60.8400   86.1380   11.5870 O.3       1 ATP801      0.0000 
     17 C3'        61.6730   85.1040   13.4960 C.3       1 ATP801      0.0000 
     18 O3'        62.7020   84.2530   14.0380 O.3       1 ATP801      0.0000 
     19 C2'        61.9370   86.5820   13.6330 C.3       1 ATP801      0.0000 
     20 O2'        63.2700   86.9850   13.4160 O.3       1 ATP801      0.0000 
     21 C1'        61.0810   87.2170   12.5100 C.3       1 ATP801      0.0000 
     22 N9         59.7900   87.7150   13.0480 N.pl3     1 ATP801      0.0000 
     23 C8         58.6160   87.0250   13.2860 C.2       1 ATP801      0.0000 
     24 N7         57.6270   87.7720   13.7800 N.2       1 ATP801      0.0000 
     25 C5         58.2070   89.0260   13.8660 C.ar      1 ATP801      0.0000 
     26 C6         57.7150   90.2990   14.3100 C.ar      1 ATP801      0.0000 
     27 N6         56.4630   90.4540   14.7530 N.pl3     1 ATP801      0.0000 
     28 N1         58.5650   91.3710   14.2640 N.ar      1 ATP801      0.0000 
     29 C2         59.8040   91.2030   13.8120 C.ar      1 ATP801      0.0000 
     30 N3         60.3820   90.0730   13.3730 N.ar      1 ATP801      0.0000 
     31 C4         59.5230   89.0050   13.4240 C.ar      1 ATP801      0.0000 
     32 H          60.6816   83.5701   10.5903 H         1 ATP801      0.0000 
     33 H          61.0537   82.8202   12.1521 H         1 ATP801      0.0000 
     34 H          62.4440   84.8195   11.5648 H         1 ATP801      0.0000 
     35 H          60.7049   84.9095   13.9707 H         1 ATP801      0.0000 
     36 H          61.5239   86.9328   14.5530 H         1 ATP801      0.0000 
     37 H          61.6436   87.9891   12.0630 H         1 ATP801      0.0000 
     38 H          58.5389   86.0446   13.0950 H         1 ATP801      0.0000 
     39 H          56.2112   91.3761   15.0468 H         1 ATP801      0.0000 
     40 H          55.8908   89.6339   14.7508 H         1 ATP801      0.0000 
     41 H          60.4418   92.1024   13.7932 H         1 ATP801      0.0000 
     42 H          63.3551   84.8775   14.4662 H         1 ATP801      0.0000 
     43 H          63.6918   86.9827   14.3227 H         1 ATP801      0.0000 
@<TRIPOS>BOND
     1    2    1 ar   
     2    3    1 ar   
     3    4    1 ar   
     4    8    1 1    
     5    6    5 ar   
     6    7    5 ar   
     7    8    5 1    
     8   12    5 1    
     9   10    9 ar   
    10   11    9 ar   
    11   12    9 1    
    12   13    9 1    
    13   14   13 1    
    14   15   14 1    
    15   32   14 1    
    16   33   14 1    
    17   16   15 1    
    18   17   15 1    
    19   34   15 1    
    20   21   16 1    
    21   18   17 1    
    22   19   17 1    
    23   35   17 1    
    24   42   18 1    
    25   20   19 1    
    26   21   19 1    
    27   36   19 1    
    28   43   20 1    
    29   22   21 1    
    30   37   21 1    
    31   23   22 1    
    32   31   22 1    
    33   24   23 2    
    34   38   23 1    
    35   25   24 1    
    36   26   25 ar   
    37   31   25 ar   
    38   27   26 1    
    39   28   26 ar   
    40   39   27 1    
    41   40   27 1    
    42   29   28 ar   
    43   30   29 ar   
    44   41   29 1    
    45   31   30 ar   
@<TRIPOS>SUBSTRUCTURE
     1 ATP801      1 GROUP   
@<TRIPOS>SET

