#    Name: 3HB8_1_CAVITY_N1_ALL.mol2
#    Modification time : Mon Mar 10 22:05:21 2014

@<TRIPOS>MOLECULE
3HB8_1_CAVITY_N1_ALL.mol2
  100     0     5     0     0
SMALL
NO_CHARGES


@<TRIPOS>ATOM
      1 CA         27.0461  -12.5953   98.7245 C.3       4 GLY6        0.0000 
      2 CA         28.2367  -12.9371   97.8785 C.3       4 GLY6        0.0000 
      3 CA         22.7339  -12.7441  100.6948 C.3       4 GLY6        0.0000 
      4 CA         23.9244  -13.0859   99.8487 C.3       4 GLY6        0.0000 
      5 DU         25.1149  -13.4277   99.0027 H         5 CUB7        0.0000 
      6 O          26.3054  -13.7696   98.1567 O.2       1 ALA2        0.0000 
      7 O          27.4960  -14.1114   97.3106 O.2       1 ALA2        0.0000 
      8 CA         21.9932  -13.9183  100.1270 C.3       4 GLY6        0.0000 
      9 DU         23.1837  -14.2602   99.2809 H         5 CUB7        0.0000 
     10 DU         24.3742  -14.6020   98.4349 H         5 CUB7        0.0000 
     11 DU         25.5648  -14.9439   97.5888 H         5 CUB7        0.0000 
     12 CZ         26.7553  -15.2857   96.7428 C.ar      3 PHE5        0.0000 
     13 CZ         22.4430  -15.4345   98.7131 C.ar      3 PHE5        0.0000 
     14 NZ         23.6335  -15.7763   97.8670 N.2       2 LYS4        0.0000 
     15 NZ         24.8241  -16.1181   97.0210 N.2       2 LYS4        0.0000 
     16 NZ         26.0146  -16.4600   96.1750 N.2       2 LYS4        0.0000 
     17 N          21.5776  -18.0038  101.1929 N.2       1 ALA2        0.0000 
     18 N          22.7682  -18.3457  100.3469 N.2       1 ALA2        0.0000 
     19 N          23.9587  -18.6875   99.5008 N.2       1 ALA2        0.0000 
     20 DU         29.0948  -16.7168  100.6131 H         5 CUB7        0.0000 
     21 DU         30.2853  -17.0586   99.7670 H         5 CUB7        0.0000 
     22 CZ         31.4758  -17.4004   98.9210 C.ar      3 PHE5        0.0000 
     23 CA         32.6663  -17.7423   98.0749 C.3       4 GLY6        0.0000 
     24 CA         28.3541  -17.8910  100.0452 C.3       4 GLY6        0.0000 
     25 CA         22.5677  -14.0394   95.6654 C.3       4 GLY6        0.0000 
     26 N          23.7582  -14.3812   94.8194 N.2       1 ALA2        0.0000 
     27 N          24.9487  -14.7231   93.9733 N.2       1 ALA2        0.0000 
     28 CZ         23.0175  -15.5555   94.2516 C.ar      3 PHE5        0.0000 
     29 DU         26.0977  -15.8123   98.6896 H         5 CUB7        0.0000 
     30 CZ         27.2882  -16.1541   97.8436 C.ar      3 PHE5        0.0000 
     31 CA         20.5949  -15.6192  101.5060 C.3       4 GLY6        0.0000 
     32 CA         21.7854  -15.9611  100.6599 C.3       4 GLY6        0.0000 
     33 DU         22.9759  -16.3029   99.8139 H         5 CUB7        0.0000 
     34 DU         24.1665  -16.6448   98.9679 H         5 CUB7        0.0000 
     35 CA         25.3570  -16.9866   98.1218 C.3       4 GLY6        0.0000 
     36 CA         26.5475  -17.3284   97.2758 C.3       4 GLY6        0.0000 
     37 CZ         21.0447  -17.1354  100.0921 C.ar      3 PHE5        0.0000 
     38 CZ         22.2352  -17.4772   99.2461 C.ar      3 PHE5        0.0000 
     39 O          23.4258  -17.8190   98.4000 O.2       1 ALA2        0.0000 
     40 NZ         24.6163  -18.1609   97.5540 N.2       2 LYS4        0.0000 
     41 CZ         31.2680  -19.4432   99.4539 C.ar      3 PHE5        0.0000 
     42 CA         32.2996  -15.5785  102.0035 C.3       4 GLY6        0.0000 
     43 N          33.4901  -15.9203  101.1574 N.2       1 ALA2        0.0000 
     44 DU         34.6807  -16.2622  100.3114 H         5 CUB7        0.0000 
     45 DU         26.3885  -13.1219  100.6713 H         5 CUB7        0.0000 
     46 CA         27.5791  -13.4637   99.8253 C.3       4 GLY6        0.0000 
     47 CA         28.7696  -13.8056   98.9793 C.3       4 GLY6        0.0000 
     48 CA         29.9601  -14.1474   98.1332 C.3       4 GLY6        0.0000 
     49 CA         22.0763  -13.2707  102.6416 C.3       4 GLY6        0.0000 
     50 DU         23.2668  -13.6125  101.7956 H         5 CUB7        0.0000 
     51 DU         26.8384  -14.6380   99.2575 H         5 CUB7        0.0000 
     52 CZ         28.0289  -14.9799   98.4114 C.ar      3 PHE5        0.0000 
     53 CZ         29.2194  -15.3217   97.5654 C.ar      3 PHE5        0.0000 
     54 CA         21.3356  -14.4450  102.0738 C.3       4 GLY6        0.0000 
     55 DU         22.5261  -14.7868  101.2278 H         5 CUB7        0.0000 
     56 N          34.1477  -15.3937   99.2106 N.2       1 ALA2        0.0000 
     57 N          31.0260  -15.8843  100.3348 N.2       1 ALA2        0.0000 
     58 N          32.2165  -16.2262   99.4888 N.2       1 ALA2        0.0000 
     59 N          33.4070  -16.5680   98.6428 N.2       1 ALA2        0.0000 
     60 N          25.3227  -11.3850   98.4697 N.2       1 ALA2        0.0000 
     61 N          24.5820  -12.5593   97.9019 N.2       1 ALA2        0.0000 
     62 O          25.7725  -12.9011   97.0559 O.2       1 ALA2        0.0000 
     63 CA         29.5446  -18.2329   99.1992 C.3       4 GLY6        0.0000 
     64 CZ         30.7351  -18.5747   98.3531 C.ar      3 PHE5        0.0000 
     65 DU         32.7494  -17.0946  100.5896 H         5 CUB7        0.0000 
     66 DU         33.9400  -17.4364   99.7436 H         5 CUB7        0.0000 
     67 DU         30.8182  -17.9271  100.8678 H         5 CUB7        0.0000 
     68 DU         32.0087  -18.2689  100.0218 H         5 CUB7        0.0000 
     69 CA         33.1993  -18.6107   99.1757 C.3       4 GLY6        0.0000 
     70 CA         22.6508  -13.3917   98.1801 C.3       4 GLY6        0.0000 
     71 N          23.8413  -13.7336   97.3341 N.2       1 ALA2        0.0000 
     72 N          25.0318  -14.0754   96.4880 N.2       1 ALA2        0.0000 
     73 O          26.2224  -14.4172   95.6420 O.2       1 ALA2        0.0000 
     74 CZ         21.9101  -14.5660   97.6123 C.ar      3 PHE5        0.0000 
     75 CZ         23.1006  -14.9079   96.7662 C.ar      3 PHE5        0.0000 
     76 NZ         24.2911  -15.2497   95.9202 N.2       2 LYS4        0.0000 
     77 NZ         25.4817  -15.5915   95.0742 N.2       2 LYS4        0.0000 
     78 CZ         22.3599  -16.0821   96.1984 C.ar      3 PHE5        0.0000 
     79 N          24.4158  -13.8546   92.8725 N.2       1 ALA2        0.0000 
     80 CZ         22.4846  -14.6871   93.1507 C.ar      3 PHE5        0.0000 
     81 CZ         23.6751  -15.0289   92.3047 C.ar      3 PHE5        0.0000 
     82 DU         28.5618  -15.8483   99.5122 H         5 CUB7        0.0000 
     83 CZ         29.7524  -16.1902   98.6662 C.ar      3 PHE5        0.0000 
     84 CA         20.6780  -14.9716  104.0207 C.3       4 GLY6        0.0000 
     85 DU         23.0590  -15.6553  102.3286 H         5 CUB7        0.0000 
     86 DU         24.2495  -15.9971  101.4825 H         5 CUB7        0.0000 
     87 DU         25.4401  -16.3389  100.6365 H         5 CUB7        0.0000 
     88 DU         26.6306  -16.6808   99.7905 H         5 CUB7        0.0000 
     89 CA         27.8211  -17.0226   98.9444 C.3       4 GLY6        0.0000 
     90 CZ         29.0117  -17.3644   98.0984 C.ar      3 PHE5        0.0000 
     91 O          21.1278  -16.4877  102.6068 O.2       1 ALA2        0.0000 
     92 DU         22.3183  -16.8295  101.7608 H         5 CUB7        0.0000 
     93 N          23.5088  -17.1714  100.9147 N.2       1 ALA2        0.0000 
     94 N          24.6994  -17.5132  100.0687 N.2       1 ALA2        0.0000 
     95 CA         25.8899  -17.8550   99.2226 C.3       4 GLY6        0.0000 
     96 CA         24.6651  -11.9116  100.4166 C.3       4 GLY6        0.0000 
     97 DU         25.8556  -12.2535   99.5705 H         5 CUB7        0.0000 
     98 N          29.3025  -14.6740  100.0801 N.2       1 ALA2        0.0000 
     99 N          30.4931  -15.0159   99.2340 N.2       1 ALA2        0.0000 
    100 N          31.6836  -15.3577   98.3880 N.2       1 ALA2        0.0000 
@<TRIPOS>BOND
@<TRIPOS>SUBSTRUCTURE
     1 ALA2        6 GROUP   
     2 LYS4       14 GROUP   
     3 PHE5       12 GROUP   
     4 GLY6        1 GROUP   
     5 CUB7        5 GROUP   
@<TRIPOS>SET

