#    Name: 3hb8_UMP_1_INTS_M
#    Modification time : Tue Mar 25 13:52:10 2014

@<TRIPOS>MOLECULE
3hb8_UMP_1_INTS_M
   45     0    12     0     0
SMALL
NO_CHARGES


@<TRIPOS>ATOM
      1 O          26.7195  -10.8300   97.1495 O.2       1 ALC1        0.0000 
      2 O          25.8450  -11.4540   98.2500 O.2       9 ALL1        0.0000 
      3 O          27.5940  -10.2060   96.0490 O.2       5 ALP1        0.0000 
      4 N          24.9325  -12.4990   95.7630 N.am      2 SEC2        0.0000 
      5 N          25.8520  -13.2960   96.9740 N.am     10 SEL2        0.0000 
      6 N          24.0130  -11.7020   94.5520 N.am      6 SEP2        0.0000 
      7 N          26.7495  -12.8080   96.1735 N.am      2 SEC2        0.0000 
      8 N          27.6470  -12.3200   95.3730 N.am      6 SEP2        0.0000 
      9 CA         23.8045  -10.3440  100.6560 C.3       4 GLC5        0.0000 
     10 CA         25.3010  -11.1280  101.9690 C.3      12 GLL5        0.0000 
     11 CA         22.3080   -9.5600   99.3430 C.3       8 GLP5        0.0000 
     12 N          26.6025   -7.7845  104.6110 N.am      2 SEC2        0.0000 
     13 N          26.2650   -9.4830  104.8150 N.am     10 SEL2        0.0000 
     14 N          26.9400   -6.0860  104.4070 N.am      6 SEP2        0.0000 
     15 NZ         19.8075   -7.9260  102.2570 N.4       3 LYC4        0.0000 
     16 NZ         20.7300   -7.2520  103.4420 N.4      11 LYL4        0.0000 
     17 NZ         18.8040   -7.3430  100.6350 N.4       7 LYP4        0.0000 
     18 N          19.9570   -6.7910  102.4300 N.am      2 SEC2        0.0000 
     19 N          20.7300   -7.2520  103.4420 N.am     10 SEL2        0.0000 
     20 N          19.1840   -6.3300  101.4180 N.am      6 SEP2        0.0000 
     21 N          19.8075   -7.9260  102.2570 N.am      2 SEC2        0.0000 
     22 N          18.8850   -8.6000  101.0720 N.am      6 SEP2        0.0000 
     23 N          21.4995   -6.8230  102.1945 N.am      2 SEC2        0.0000 
     24 N          22.2690   -6.3940  100.9470 N.am      6 SEP2        0.0000 
     25 N          21.7325   -6.2025  104.3445 N.am      2 SEC2        0.0000 
     26 N          22.7350   -5.1530  105.2470 N.am      6 SEP2        0.0000 
     27 NZ         18.2250   -8.6165  104.2620 N.4       3 LYC4        0.0000 
     28 NZ         19.3580   -9.1820  104.2670 N.4      11 LYL4        0.0000 
     29 NZ         16.5400   -8.9930  105.0130 N.4       7 LYP4        0.0000 
     30 N          19.1215   -8.8910  102.6695 N.am      2 SEC2        0.0000 
     31 N          19.3580   -9.1820  104.2670 N.am     10 SEL2        0.0000 
     32 N          18.2250   -8.6165  104.2620 N.am      2 SEC2        0.0000 
     33 N          17.0920   -8.0510  104.2570 N.am      6 SEP2        0.0000 
     34 N          18.2565   -9.6740  104.7135 N.am      2 SEC2        0.0000 
     35 N          17.1550  -10.1660  105.1600 N.am      6 SEP2        0.0000 
     36 NZ         22.4460   -7.3965  106.0560 N.4       3 LYC4        0.0000 
     37 NZ         21.0240   -7.9390  105.8220 N.4      11 LYL4        0.0000 
     38 NZ         23.7330   -5.5660  106.0180 N.4       7 LYP4        0.0000 
     39 N          21.8795   -6.5460  105.5345 N.am      2 SEC2        0.0000 
     40 N          21.0240   -7.9390  105.8220 N.am     10 SEL2        0.0000 
     41 N          22.4460   -7.3965  106.0560 N.am      2 SEC2        0.0000 
     42 N          23.8680   -6.8540  106.2900 N.am      6 SEP2        0.0000 
     43 CA         27.8747   -9.2595  102.9783 C.3       4 GLC5        0.0000 
     44 CA         25.6840   -9.3010  103.5180 C.3      12 GLL5        0.0000 
     45 CA         29.6930   -8.7810  102.9690 C.3       8 GLP5        0.0000 
@<TRIPOS>BOND
@<TRIPOS>SUBSTRUCTURE
     1 ALC1        1 GROUP        1 X    ALC  0     ROOT ALC X 1
     2 SEC2        4 GROUP        1 X    SEC  0     **** SEC X 2
     3 LYC4       15 GROUP        1 X    LYC  0     **** LYC X 4
     4 GLC5        9 GROUP        1 X    GLC  0     **** GLC X 6
     5 ALP1        3 GROUP        1 Y    ALP  0     ROOT ALP Y 8
     6 SEP2        6 GROUP        1 Y    SEP  0     **** SEP Y 9
     7 LYP4       17 GROUP        1 Y    LYP  0     **** LYP Y 11
     8 GLP5       11 GROUP        1 Y    GLP  0     **** GLP Y 13
     9 ALL1        2 GROUP        1 Z    ALL  0     ROOT ALL Z 15
    10 SEL2        5 GROUP        1 Z    SEL  0     **** SEL Z 16
    11 LYL4       16 GROUP        1 Z    LYL  0     **** LYL Z 18
    12 GLL5       10 GROUP        1 Z    GLL  0     **** GLL Z 20
@<TRIPOS>SET

