#    Name: 3hb8_UMP_1_ligand
#    Modification time : Tue Mar 25 13:52:10 2014

@<TRIPOS>MOLECULE
3hb8_UMP_1_ligand
   31    32     1     0     0
SMALL
NO_CHARGES


@<TRIPOS>ATOM
      1 N1         25.4610  -11.6780  100.5810 N.am      1 UMP314      0.0000 
      2 C2         25.7200  -10.8880   99.4780 C.2       1 UMP314      0.0000 
      3 N3         25.8450  -11.4540   98.2500 N.am      1 UMP314      0.0000 
      4 C4         25.7320  -12.8080   98.0710 C.2       1 UMP314      0.0000 
      5 C5         25.4720  -13.6500   99.1990 C.2       1 UMP314      0.0000 
      6 C6         25.3440  -13.0630  100.4330 C.2       1 UMP314      0.0000 
      7 O2         25.8290   -9.6840   99.5760 O.2       1 UMP314      0.0000 
      8 O4         25.8520  -13.2960   96.9740 O.2       1 UMP314      0.0000 
      9 C1'        25.3010  -11.1280  101.9690 C.3       1 UMP314      0.0000 
     10 C2'        26.4290  -10.1750  102.4570 C.3       1 UMP314      0.0000 
     11 C3'        25.6840   -9.3010  103.5180 C.3       1 UMP314      0.0000 
     12 C4'        24.2640   -9.8770  103.5090 C.3       1 UMP314      0.0000 
     13 O3'        26.2650   -9.4830  104.8150 O.3       1 UMP314      0.0000 
     14 O4'        24.1130  -10.3440  102.1360 O.3       1 UMP314      0.0000 
     15 C5'        23.2030   -8.8290  103.9040 C.3       1 UMP314      0.0000 
     16 O5'        21.9190   -9.4540  103.8820 O.3       1 UMP314      0.0000 
     17 P          20.7600   -8.4250  104.3260 P.3       1 UMP314      0.0000 
     18 OP1        20.7300   -7.2520  103.4420 O.co2     1 UMP314      0.0000 
     19 OP2        19.3580   -9.1820  104.2670 O.co2     1 UMP314      0.0000 
     20 OP3        21.0240   -7.9390  105.8220 O.co2     1 UMP314      0.0000 
     21 H          26.0321  -10.8467   97.4174 H         1 UMP314      0.0000 
     22 H          25.3893  -14.6500   99.0616 H         1 UMP314      0.0000 
     23 H          25.1586  -13.6429  101.2704 H         1 UMP314      0.0000 
     24 H          25.2774  -11.9535  102.6969 H         1 UMP314      0.0000 
     25 H          26.7447   -9.5668  101.6656 H         1 UMP314      0.0000 
     26 H          27.1804  -10.7298  102.9296 H         1 UMP314      0.0000 
     27 H          25.6587   -8.3179  103.1788 H         1 UMP314      0.0000 
     28 H          24.2403  -10.7017  104.1862 H         1 UMP314      0.0000 
     29 H          23.2723   -8.0076  103.1915 H         1 UMP314      0.0000 
     30 H          23.4621   -8.4575  104.8949 H         1 UMP314      0.0000 
     31 H          27.2207   -9.7193  104.6395 H         1 UMP314      0.0000 
@<TRIPOS>BOND
     1    2    1 1    
     2    6    1 1    
     3    9    1 1    
     4    3    2 1    
     5    7    2 2    
     6    4    3 1    
     7   21    3 1    
     8    5    4 1    
     9    8    4 2    
    10    6    5 2    
    11   22    5 1    
    12   23    6 1    
    13   10    9 1    
    14   14    9 1    
    15   24    9 1    
    16   11   10 1    
    17   25   10 1    
    18   26   10 1    
    19   12   11 1    
    20   13   11 1    
    21   27   11 1    
    22   14   12 1    
    23   15   12 1    
    24   28   12 1    
    25   31   13 1    
    26   16   15 1    
    27   29   15 1    
    28   30   15 1    
    29   17   16 1    
    30   18   17 ar   
    31   19   17 ar   
    32   20   17 ar   
@<TRIPOS>SUBSTRUCTURE
     1 UMP314      1 GROUP   
@<TRIPOS>SET

