#    Name: 4l70_1V9_1_INTS_M
#    Modification time : Tue Mar 25 09:51:00 2014

@<TRIPOS>MOLECULE
4l70_1V9_1_INTS_M
   55     0     9     0     0
SMALL
NO_CHARGES


@<TRIPOS>ATOM
      1 CA         26.3970   -2.4840   12.5545 C.3       3 GLC5        0.0000 
      2 CA         24.4440   -1.8340   12.1930 C.3       9 GLL5        0.0000 
      3 CA         28.3500   -3.1340   12.9160 C.3       6 GLP5        0.0000 
      4 CA         24.0565   -0.3870   15.9930 C.3       3 GLC5        0.0000 
      5 CA         23.8700   -0.1950   13.8640 C.3       9 GLL5        0.0000 
      6 CA         24.2430   -0.5790   18.1220 C.3       6 GLP5        0.0000 
      7 CA         18.7530   -2.0250   12.6400 C.3       3 GLC5        0.0000 
      8 CA         19.8540   -3.8980   12.2940 C.3       9 GLL5        0.0000 
      9 CA         17.6520   -0.1520   12.9860 C.3       6 GLP5        0.0000 
     10 CA         17.7120   -5.3385   14.5130 C.3       3 GLC5        0.0000 
     11 CA         19.0970   -4.8820   13.2050 C.3       9 GLL5        0.0000 
     12 CA         16.3270   -5.7950   15.8210 C.3       6 GLP5        0.0000 
     13 CA         16.0135  -11.3560   11.4715 C.3       3 GLC5        0.0000 
     14 CA         17.2730   -9.9090   10.5240 C.3       9 GLL5        0.0000 
     15 CA         14.7540  -12.8030   12.4190 C.3       6 GLP5        0.0000 
     16 CA         14.3760  -10.4505   10.9785 C.3       3 GLC5        0.0000 
     17 CA         16.0010   -9.4740   10.1490 C.3       9 GLL5        0.0000 
     18 CA         12.7510  -11.4270   11.8080 C.3       6 GLP5        0.0000 
     19 CA         15.3275   -7.4440    8.4700 C.3       3 GLC5        0.0000 
     20 CA         15.5850   -8.1520   10.4370 C.3       9 GLL5        0.0000 
     21 CA         15.0700   -6.7360    6.5030 C.3       6 GLP5        0.0000 
     22 CA         13.8610   -7.5110   11.7185 C.3       3 GLC5        0.0000 
     23 CA         12.1370   -6.8700   13.0000 C.3       6 GLP5        0.0000 
     24 N          14.3680   -4.2655   11.5455 N.am      2 SEC2        0.0000 
     25 N          14.8460   -5.5160   11.1700 N.am      8 SEL2        0.0000 
     26 N          13.8900   -3.0150   11.9210 N.am      5 SEP2        0.0000 
     27 N          13.5645   -5.8860   10.9275 N.am      2 SEC2        0.0000 
     28 N          12.2830   -6.2560   10.6850 N.am      5 SEP2        0.0000 
     29 O          16.5095   -4.0710   12.8140 O.2       1 ALC1        0.0000 
     30 O          16.9150   -5.2060   12.1570 O.2       7 ALL1        0.0000 
     31 O          16.1040   -2.9360   13.4710 O.2       4 ALP1        0.0000 
     32 CA         26.6517   -0.6733   13.0977 C.3       3 GLC5        0.0000 
     33 CA         25.2160   -0.8850   11.5130 C.3       9 GLL5        0.0000 
     34 CA         28.0310   -1.1120   14.4300 C.3       6 GLP5        0.0000 
     35 CA         26.7568   -0.0538   10.4032 C.3       3 GLC5        0.0000 
     36 CA         25.3290    0.4160   12.0180 C.3       9 GLL5        0.0000 
     37 CA         28.2410    0.1270    9.0410 C.3       6 GLP5        0.0000 
     38 CA         23.2428    1.4760   14.8598 C.3       3 GLC5        0.0000 
     39 CA         24.6490    0.7250   13.1950 C.3       9 GLL5        0.0000 
     40 CA         22.2260    2.6870   16.1900 C.3       6 GLP5        0.0000 
     41 CA         26.0194   -0.8630   13.9414 C.3       3 GLC5        0.0000 
     42 CA         25.0623   -4.6830   16.2580 C.3       3 GLC5        0.0000 
     43 CA         23.9200   -3.2750   14.8780 C.3       9 GLL5        0.0000 
     44 CA         26.6350   -5.7800   17.0840 C.3       6 GLP5        0.0000 
     45 CA         23.8663   -2.0825   16.7770 C.3       3 GLC5        0.0000 
     46 CA         23.0590   -3.8970   15.9860 C.3       9 GLL5        0.0000 
     47 CA         18.5277   -8.0260    9.8165 C.3       3 GLC5        0.0000 
     48 CA         17.6920   -7.7280   11.4730 C.3       9 GLL5        0.0000 
     49 CA         19.1500   -7.6800    8.2890 C.3       6 GLP5        0.0000 
     50 CA         17.8935   -8.6857    9.3127 C.3       3 GLC5        0.0000 
     51 CA         16.5730  -11.5198    9.5362 C.3       3 GLC5        0.0000 
     52 CA         16.5090  -13.3480    8.7360 C.3       6 GLP5        0.0000 
     53 CA         13.8270   -8.9440    9.6030 C.3       3 GLC5        0.0000 
     54 CA         11.8610   -9.0750    8.9130 C.3       6 GLP5        0.0000 
     55 CA         17.5730   -7.7017    9.5330 C.3       3 GLC5        0.0000 
@<TRIPOS>BOND
@<TRIPOS>SUBSTRUCTURE
     1 ALC1       29 GROUP        1 X    ALC  0     ROOT ALC X 1
     2 SEC2       24 GROUP        1 X    SEC  0     **** SEC X 2
     3 GLC5        1 GROUP        1 X    GLC  0     **** GLC X 6
     4 ALP1       31 GROUP        1 Y    ALP  0     ROOT ALP Y 8
     5 SEP2       26 GROUP        1 Y    SEP  0     **** SEP Y 9
     6 GLP5        3 GROUP        1 Y    GLP  0     **** GLP Y 13
     7 ALL1       30 GROUP        1 Z    ALL  0     ROOT ALL Z 15
     8 SEL2       25 GROUP        1 Z    SEL  0     **** SEL Z 16
     9 GLL5        2 GROUP        1 Z    GLL  0     **** GLL Z 20
@<TRIPOS>SET

