#    Name: 4l70_1V9_1_ligand
#    Modification time : Tue Mar 25 09:51:00 2014

@<TRIPOS>MOLECULE
4l70_1V9_1_ligand
   46    48     1     0     0
SMALL
NO_CHARGES


@<TRIPOS>ATOM
      1 CAI        24.4440   -1.8340   12.1930 C.ar      1 1V9601      0.0000 
      2 CAE        25.2160   -0.8850   11.5130 C.ar      1 1V9601      0.0000 
      3 CAD        25.3290    0.4160   12.0180 C.ar      1 1V9601      0.0000 
      4 CAF        24.6490    0.7250   13.1950 C.ar      1 1V9601      0.0000 
      5 CAJ        23.8700   -0.1950   13.8640 C.ar      1 1V9601      0.0000 
      6 CAT        23.7560   -1.4930   13.3760 C.ar      1 1V9601      0.0000 
      7 CAY        22.9680   -2.4100   14.0820 C.3       1 1V9601      0.0000 
      8 CAM        23.9200   -3.2750   14.8780 C.3       1 1V9601      0.0000 
      9 CAA        23.0590   -3.8970   15.9860 C.3       1 1V9601      0.0000 
     10 NAQ        22.0560   -3.1830   13.1660 N.am      1 1V9601      0.0000 
     11 CAS        20.7100   -3.0340   13.2300 C.2       1 1V9601      0.0000 
     12 OAB        20.1470   -2.2500   13.9990 O.2       1 1V9601      0.0000 
     13 CAN        19.8540   -3.8980   12.2940 C.3       1 1V9601      0.0000 
     14 CAO        19.0970   -4.8820   13.2050 C.3       1 1V9601      0.0000 
     15 CAU        18.1780   -5.6900   12.5020 C.2       1 1V9601      0.0000 
     16 NAP        18.5300   -6.9310   12.1520 N.2       1 1V9601      0.0000 
     17 CAW        17.6920   -7.7280   11.4730 C.ar      1 1V9601      0.0000 
     18 CAK        18.1190   -9.0160   11.2150 C.ar      1 1V9601      0.0000 
     19 CAG        17.2730   -9.9090   10.5240 C.ar      1 1V9601      0.0000 
     20 CAH        16.0010   -9.4740   10.1490 C.ar      1 1V9601      0.0000 
     21 CAL        15.5850   -8.1520   10.4370 C.ar      1 1V9601      0.0000 
     22 CAX        16.4070   -7.2950   11.1170 C.ar      1 1V9601      0.0000 
     23 CAV        15.9820   -5.9860   11.4540 C.2       1 1V9601      0.0000 
     24 OAC        14.8460   -5.5160   11.1700 O.2       1 1V9601      0.0000 
     25 NAR        16.9150   -5.2060   12.1570 N.am      1 1V9601      0.0000 
     26 H          24.3745   -2.7944   11.8288 H         1 1V9601      0.0000 
     27 H          25.6983   -1.1420   10.6460 H         1 1V9601      0.0000 
     28 H          25.8896    1.1108   11.5396 H         1 1V9601      0.0000 
     29 H          24.7373    1.6947   13.5806 H         1 1V9601      0.0000 
     30 H          23.3711    0.0724   14.7239 H         1 1V9601      0.0000 
     31 H          22.3430   -1.8702   14.8143 H         1 1V9601      0.0000 
     32 H          24.6825   -2.6748   15.3188 H         1 1V9601      0.0000 
     33 H          24.3165   -4.0497   14.2626 H         1 1V9601      0.0000 
     34 H          22.5227   -3.8144   12.5075 H         1 1V9601      0.0000 
     35 H          20.4856   -4.4424   11.6296 H         1 1V9601      0.0000 
     36 H          19.1542   -3.2823   11.7763 H         1 1V9601      0.0000 
     37 H          18.5994   -4.2749   13.9913 H         1 1V9601      0.0000 
     38 H          19.8646   -5.4882   13.7320 H         1 1V9601      0.0000 
     39 H          19.0444   -9.3346   11.5188 H         1 1V9601      0.0000 
     40 H          17.5900  -10.8487   10.3070 H         1 1V9601      0.0000 
     41 H          15.3586  -10.1080    9.6625 H         1 1V9601      0.0000 
     42 H          14.6488   -7.8513   10.1222 H         1 1V9601      0.0000 
     43 H          16.6526   -4.2364   12.4277 H         1 1V9601      0.0000 
     44 H          23.5953   -4.4954   16.5813 H         1 1V9601      0.0000 
     45 H          22.6436   -3.1991   16.5694 H         1 1V9601      0.0000 
     46 H          22.3132   -4.4480   15.6116 H         1 1V9601      0.0000 
@<TRIPOS>BOND
     1    2    1 ar   
     2    6    1 ar   
     3   26    1 1    
     4    3    2 ar   
     5   27    2 1    
     6    4    3 ar   
     7   28    3 1    
     8    5    4 ar   
     9   29    4 1    
    10    6    5 ar   
    11   30    5 1    
    12    7    6 1    
    13    8    7 1    
    14   10    7 1    
    15   31    7 1    
    16    9    8 1    
    17   32    8 1    
    18   33    8 1    
    19   44    9 1    
    20   45    9 1    
    21   46    9 1    
    22   11   10 am   
    23   34   10 1    
    24   12   11 2    
    25   13   11 1    
    26   14   13 1    
    27   35   13 1    
    28   36   13 1    
    29   15   14 1    
    30   37   14 1    
    31   38   14 1    
    32   16   15 2    
    33   25   15 1    
    34   17   16 1    
    35   18   17 ar   
    36   22   17 ar   
    37   19   18 ar   
    38   39   18 1    
    39   20   19 ar   
    40   40   19 1    
    41   21   20 ar   
    42   41   20 1    
    43   22   21 ar   
    44   42   21 1    
    45   23   22 1    
    46   24   23 2    
    47   25   23 am   
    48   43   25 1    
@<TRIPOS>SUBSTRUCTURE
     1 1V9601      1 GROUP   
@<TRIPOS>SET

