#    Name: 3dr1_C5D_1_INTS_M
#    Modification time : Mon Mar 24 23:59:42 2014

@<TRIPOS>MOLECULE
3dr1_C5D_1_INTS_M
  130     0     9     0     0
SMALL
NO_CHARGES


@<TRIPOS>ATOM
      1 CA          0.7945   28.5845   36.4645 C.3       3 GLC5        0.0000 
      2 CA          2.6040   29.6600   36.0460 C.3       9 GLL5        0.0000 
      3 CA         -1.0150   27.5090   36.8830 C.3       6 GLP5        0.0000 
      4 N           4.8240   26.2145   34.6520 N.am      2 SEC2        0.0000 
      5 N           5.6710   26.9600   33.8810 N.am      8 SEL2        0.0000 
      6 N           3.9770   25.4690   35.4230 N.am      5 SEP2        0.0000 
      7 N           6.5230   27.0870   35.2250 N.am      2 SEC2        0.0000 
      8 N           7.3750   27.2140   36.5690 N.am      5 SEP2        0.0000 
      9 CA          8.4260   27.4070   31.9555 C.3       3 GLC5        0.0000 
     10 CA          7.3390   28.5800   32.2820 C.3       9 GLL5        0.0000 
     11 CA          9.5130   26.2340   31.6290 C.3       6 GLP5        0.0000 
     12 CA          6.9690   28.1770   30.1975 C.3       3 GLC5        0.0000 
     13 CA          6.5990   27.7740   28.1130 C.3       6 GLP5        0.0000 
     14 CA          9.1875   29.1265   33.0005 C.3       3 GLC5        0.0000 
     15 CA         11.0360   29.6730   33.7190 C.3       6 GLP5        0.0000 
     16 CA          6.8895   27.9665   35.9700 C.3       3 GLC5        0.0000 
     17 CA          7.0570   29.3030   34.3140 C.3       9 GLL5        0.0000 
     18 CA          6.7220   26.6300   37.6260 C.3       6 GLP5        0.0000 
     19 CA          5.1250   31.2630   31.0505 C.3       3 GLC5        0.0000 
     20 CA          6.0790   30.3220   32.6560 C.3       9 GLL5        0.0000 
     21 CA          4.1710   32.2040   29.4450 C.3       6 GLP5        0.0000 
     22 CA          5.4640   31.5725   33.4770 C.3       3 GLC5        0.0000 
     23 CA          4.8490   32.8230   34.2980 C.3       6 GLP5        0.0000 
     24 CA          7.3820   26.8155   31.3435 C.3       3 GLC5        0.0000 
     25 CA          5.2510   27.3970   31.0580 C.3       9 GLL5        0.0000 
     26 CA          2.1715   30.3225   31.7060 C.3       3 GLC5        0.0000 
     27 CA          3.9730   29.0940   31.4880 C.3       9 GLL5        0.0000 
     28 CA          0.3700   31.5510   31.9240 C.3       6 GLP5        0.0000 
     29 CA          4.0720   30.6490   30.4665 C.3       3 GLC5        0.0000 
     30 CA          1.3515   27.2405   31.9930 C.3       3 GLC5        0.0000 
     31 CA          3.4320   27.1160   32.1890 C.3       9 GLL5        0.0000 
     32 CA         -0.7290   27.3650   31.7970 C.3       6 GLP5        0.0000 
     33 CA          3.0185   26.3315   33.7955 C.3       3 GLC5        0.0000 
     34 CA          2.6050   25.5470   35.4020 C.3       6 GLP5        0.0000 
     35 N           0.9785   41.5640   41.1255 N.am      2 SEC2        0.0000 
     36 N           0.9460   40.3050   40.5310 N.am      8 SEL2        0.0000 
     37 N           1.0110   42.8230   41.7200 N.am      5 SEP2        0.0000 
     38 O          -0.3625   39.8095   40.9025 O.2       1 ALC1        0.0000 
     39 O           0.9460   40.3050   40.5310 O.2       7 ALL1        0.0000 
     40 O          -1.6710   39.3140   41.2740 O.2       4 ALP1        0.0000 
     41 CA          5.0405   39.5620   39.7690 C.3       3 GLC5        0.0000 
     42 CA          3.2780   39.3320   38.8870 C.3       9 GLL5        0.0000 
     43 CA          6.8030   39.7920   40.6510 C.3       6 GLP5        0.0000 
     44 CA          2.6980   38.6705   40.8215 C.3       3 GLC5        0.0000 
     45 CA          2.1180   38.0090   42.7560 C.3       6 GLP5        0.0000 
     46 CA          2.9120   41.8825   40.0745 C.3       3 GLC5        0.0000 
     47 CA          2.4490   40.6300   38.6450 C.3       9 GLL5        0.0000 
     48 CA          3.3750   43.1350   41.5040 C.3       6 GLP5        0.0000 
     49 CA          1.5325   42.0660   40.3395 C.3       3 GLC5        0.0000 
     50 CA          0.9680   40.4710   39.1100 C.3       9 GLL5        0.0000 
     51 CA          2.0970   43.6610   41.5690 C.3       6 GLP5        0.0000 
     52 CA          0.4280   36.3820   36.9365 C.3       3 GLC5        0.0000 
     53 CA          0.5300   36.8220   39.0720 C.3       9 GLL5        0.0000 
     54 CA          0.3260   35.9420   34.8010 C.3       6 GLP5        0.0000 
     55 CA         -0.4735   34.0650   40.6125 C.3       3 GLC5        0.0000 
     56 CA          0.5350   34.2990   39.0680 C.3       9 GLL5        0.0000 
     57 CA         -1.4820   33.8310   42.1570 C.3       6 GLP5        0.0000 
     58 CA          4.2620   36.7060   38.6225 C.3       3 GLC5        0.0000 
     59 CA          2.5440   38.1060   38.2590 C.3       9 GLL5        0.0000 
     60 CA          5.9800   35.3060   38.9860 C.3       6 GLP5        0.0000 
     61 CA         -0.6320   32.4385   35.2190 C.3       3 GLC5        0.0000 
     62 CA          0.0790   32.0380   37.1800 C.3       9 GLL5        0.0000 
     63 CA         -1.3430   32.8390   33.2580 C.3       6 GLP5        0.0000 
     64 CA         -1.3280   30.6300   37.2770 C.3       3 GLC5        0.0000 
     65 CA         -2.7350   29.2220   37.3740 C.3       6 GLP5        0.0000 
     66 CA          0.0655   32.7385   40.8355 C.3       3 GLC5        0.0000 
     67 CA          1.2620   32.9630   39.1970 C.3       9 GLL5        0.0000 
     68 CA         -1.1310   32.5140   42.4740 C.3       6 GLP5        0.0000 
     69 CA          4.3395   34.1040   39.4135 C.3       3 GLC5        0.0000 
     70 CA          2.6990   32.9020   39.8410 C.3       9 GLL5        0.0000 
     71 CA          2.3565   34.7400   41.0345 C.3       3 GLC5        0.0000 
     72 CA          2.0140   36.5780   42.2280 C.3       6 GLP5        0.0000 
     73 CA          5.3595   30.9215   39.5900 C.3       3 GLC5        0.0000 
     74 CA          3.3140   31.5850   39.2960 C.3       9 GLL5        0.0000 
     75 CA          7.4050   30.2580   39.8840 C.3       6 GLP5        0.0000 
     76 CA          4.5415   31.6165   41.1430 C.3       3 GLC5        0.0000 
     77 CA          5.7690   31.6480   42.9900 C.3       6 GLP5        0.0000 
     78 CA          1.2645   34.5620   35.7840 C.3       3 GLC5        0.0000 
     79 CA          2.2030   33.1820   36.7670 C.3       9 GLL5        0.0000 
     80 CA          3.5260   33.0025   35.5325 C.3       3 GLC5        0.0000 
     81 N           5.4660   40.5975   38.5830 N.am      2 SEC2        0.0000 
     82 N           4.6340   39.4720   38.4240 N.am      8 SEL2        0.0000 
     83 N           6.2980   41.7230   38.7420 N.am      5 SEP2        0.0000 
     84 O           5.0610   38.9605   37.1910 O.2       1 ALC1        0.0000 
     85 O           4.6340   39.4720   38.4240 O.2       7 ALL1        0.0000 
     86 O           5.4880   38.4490   35.9580 O.2       4 ALP1        0.0000 
     87 CA         -0.2685   30.7910   40.5250 C.3       3 GLC5        0.0000 
     88 CA          1.3140   30.0760   39.1630 C.3       9 GLL5        0.0000 
     89 CA         -1.8510   31.5060   41.8870 C.3       6 GLP5        0.0000 
     90 CA          0.1495   28.7925   38.0230 C.3       3 GLC5        0.0000 
     91 CA          1.1940   29.5855   40.7450 C.3       3 GLC5        0.0000 
     92 CA          1.0740   29.0950   42.3270 C.3       6 GLP5        0.0000 
     93 CA          3.8680   31.4047   35.4892 C.3       3 GLC5        0.0000 
     94 CA          3.1700   30.3130   37.3150 C.3       9 GLL5        0.0000 
     95 CA          2.8373   27.4750   35.4832 C.3       3 GLC5        0.0000 
     96 CA          4.3822   30.8783   34.4920 C.3       3 GLC5        0.0000 
     97 CA          3.5350   29.1460   35.0830 C.3       9 GLL5        0.0000 
     98 CA          3.6852   27.0027   34.6005 C.3       3 GLC5        0.0000 
     99 CA          4.2960   28.7210   34.2890 C.3       9 GLL5        0.0000 
    100 CA          7.0542   31.1065   33.9172 C.3       3 GLC5        0.0000 
    101 CA          6.4620   29.1310   33.1310 C.3       9 GLL5        0.0000 
    102 CA          7.3490   32.9960   34.1120 C.3       6 GLP5        0.0000 
    103 CA          7.8778   27.4220   33.2472 C.3       3 GLC5        0.0000 
    104 CA          8.9960   25.6270   32.7720 C.3       6 GLP5        0.0000 
    105 CA          8.5523   29.9125   34.1012 C.3       3 GLC5        0.0000 
    106 CA         10.3450   30.6080   34.4800 C.3       6 GLP5        0.0000 
    107 CA          8.1424   29.8384   31.4966 C.3       3 GLC5        0.0000 
    108 CA          9.7950   30.0880   30.3120 C.3       6 GLP5        0.0000 
    109 CA          5.5057   28.0780   29.8070 C.3       3 GLC5        0.0000 
    110 CA          3.2881   27.4790   30.2855 C.3       3 GLC5        0.0000 
    111 CA          4.4530   27.9430   31.9700 C.3       9 GLL5        0.0000 
    112 CA          2.6540   27.2090   28.7260 C.3       6 GLP5        0.0000 
    113 CA          4.3925   25.7295   31.3272 C.3       3 GLC5        0.0000 
    114 CA          4.6430   24.0660   30.8030 C.3       6 GLP5        0.0000 
    115 CA          0.2762   40.5595   36.8340 C.3       3 GLC5        0.0000 
    116 CA         -0.0780   41.2570   34.9050 C.3       6 GLP5        0.0000 
    117 CA         -0.8287   40.2165   40.1375 C.3       3 GLC5        0.0000 
    118 CA          0.2930   39.2530   38.4160 C.3       9 GLL5        0.0000 
    119 CA         -2.2880   40.5710   41.5120 C.3       6 GLP5        0.0000 
    120 CA         -1.2248   39.9940   38.3105 C.3       3 GLC5        0.0000 
    121 CA         -3.0800   40.1260   37.8580 C.3       6 GLP5        0.0000 
    122 CA          0.1284   41.7304   38.7409 C.3       3 GLC5        0.0000 
    123 CA         -0.7440   43.5590   38.8350 C.3       6 GLP5        0.0000 
    124 CA         -0.4095   36.0990   40.6052 C.3       3 GLC5        0.0000 
    125 CA         -1.6260   36.0570   41.9930 C.3       6 GLP5        0.0000 
    126 CA          1.4118   35.7288   40.7218 C.3       3 GLC5        0.0000 
    127 CA          1.0840   35.4600   39.3630 C.3       9 GLL5        0.0000 
    128 CA          1.6316   38.1945   36.5050 C.3       3 GLC5        0.0000 
    129 CA          1.6540   38.0360   34.6240 C.3       6 GLP5        0.0000 
    130 CA          1.8412   37.1616   40.3890 C.3       3 GLC5        0.0000 
@<TRIPOS>BOND
@<TRIPOS>SUBSTRUCTURE
     1 ALC1       38 GROUP        1 X    ALC  0     ROOT ALC X 1
     2 SEC2        4 GROUP        1 X    SEC  0     **** SEC X 2
     3 GLC5        1 GROUP        1 X    GLC  0     **** GLC X 6
     4 ALP1       40 GROUP        1 Y    ALP  0     ROOT ALP Y 8
     5 SEP2        6 GROUP        1 Y    SEP  0     **** SEP Y 9
     6 GLP5        3 GROUP        1 Y    GLP  0     **** GLP Y 13
     7 ALL1       39 GROUP        1 Z    ALL  0     ROOT ALL Z 15
     8 SEL2        5 GROUP        1 Z    SEL  0     **** SEL Z 16
     9 GLL5        2 GROUP        1 Z    GLL  0     **** GLL Z 20
@<TRIPOS>SET

