#    Name: 3dr1_C5D_1_ligand
#    Modification time : Mon Mar 24 23:59:42 2014

@<TRIPOS>MOLECULE
3dr1_C5D_1_ligand
   65    66     1     0     0
SMALL
NO_CHARGES


@<TRIPOS>ATOM
      1 C20         3.1700   30.3130   37.3150 C.3       1 C5D500      0.0000 
      2 C22         2.6040   29.6600   36.0460 C.3       1 C5D500      0.0000 
      3 C23         3.5350   29.1460   35.0830 C.1       1 C5D500      0.0000 
      4 C24         4.2960   28.7210   34.2890 C.1       1 C5D500      0.0000 
      5 C25         5.2350   28.1960   33.3090 C.3       1 C5D500      0.0000 
      6 C27         6.4620   29.1310   33.1310 C.3       1 C5D500      0.0000 
      7 C26         4.4530   27.9430   31.9700 C.3       1 C5D500      0.0000 
      8 O3          5.6710   26.9600   33.8810 O.3       1 C5D500      0.0000 
      9 F11         7.3390   28.5800   32.2820 F         1 C5D500      0.0000 
     10 F19         7.0570   29.3030   34.3140 F         1 C5D500      0.0000 
     11 F21         6.0790   30.3220   32.6560 F         1 C5D500      0.0000 
     12 F28         5.2510   27.3970   31.0580 F         1 C5D500      0.0000 
     13 F29         3.9730   29.0940   31.4880 F         1 C5D500      0.0000 
     14 F30         3.4320   27.1160   32.1890 F         1 C5D500      0.0000 
     15 O2          0.9460   40.3050   40.5310 O.3       1 C5D500      0.0000 
     16 C1          3.2780   39.3320   38.8870 C.3       1 C5D500      0.0000 
     17 C2          2.4490   40.6300   38.6450 C.3       1 C5D500      0.0000 
     18 C3          0.9680   40.4710   39.1100 C.3       1 C5D500      0.0000 
     19 C4          0.2930   39.2530   38.4160 C.3       1 C5D500      0.0000 
     20 C5          1.0560   37.9470   38.6100 C.2       1 C5D500      0.0000 
     21 C6          0.5300   36.8220   39.0720 C.2       1 C5D500      0.0000 
     22 C7          1.0840   35.4600   39.3630 C.2       1 C5D500      0.0000 
     23 C8          0.5350   34.2990   39.0680 C.2       1 C5D500      0.0000 
     24 C10         2.5440   38.1060   38.2590 C.3       1 C5D500      0.0000 
     25 C12         0.0790   32.0380   37.1800 C.3       1 C5D500      0.0000 
     26 C13         1.4910   32.2570   37.8070 C.3       1 C5D500      0.0000 
     27 C14         1.2620   32.9630   39.1970 C.3       1 C5D500      0.0000 
     28 C15         2.6990   32.9020   39.8410 C.3       1 C5D500      0.0000 
     29 C16         3.3140   31.5850   39.2960 C.3       1 C5D500      0.0000 
     30 C17         2.2580   31.0090   38.3360 C.3       1 C5D500      0.0000 
     31 C18         2.2030   33.1820   36.7670 C.3       1 C5D500      0.0000 
     32 O1          4.6340   39.4720   38.4240 O.3       1 C5D500      0.0000 
     33 C9          1.3140   30.0760   39.1630 C.3       1 C5D500      0.0000 
     34 H           3.9665   31.0580   36.9967 H         1 C5D500      0.0000 
     35 H           3.7755   29.5276   37.8693 H         1 C5D500      0.0000 
     36 H           1.9170   30.4197   35.5686 H         1 C5D500      0.0000 
     37 H           1.8956   28.8481   36.3868 H         1 C5D500      0.0000 
     38 H           3.2647   39.1670   39.9831 H         1 C5D500      0.0000 
     39 H           2.4611   40.8633   37.5839 H         1 C5D500      0.0000 
     40 H           2.9049   41.4475   39.1969 H         1 C5D500      0.0000 
     41 H           0.4373   41.3609   38.8104 H         1 C5D500      0.0000 
     42 H           0.2072   39.4715   37.3443 H         1 C5D500      0.0000 
     43 H          -0.7224   39.1472   38.8176 H         1 C5D500      0.0000 
     44 H          -0.5683   36.8375   39.3148 H         1 C5D500      0.0000 
     45 H           2.0334   35.5075   39.8680 H         1 C5D500      0.0000 
     46 H          -0.4482   34.1975   38.7198 H         1 C5D500      0.0000 
     47 H           3.0860   37.1882   38.5650 H         1 C5D500      0.0000 
     48 H           2.6488   38.1712   37.1570 H         1 C5D500      0.0000 
     49 H           0.6455   32.2405   39.7655 H         1 C5D500      0.0000 
     50 H           2.6018   32.8454   40.8900 H         1 C5D500      0.0000 
     51 H           3.2613   33.7278   39.5020 H         1 C5D500      0.0000 
     52 H           3.4727   30.9120   40.1025 H         1 C5D500      0.0000 
     53 H           4.2037   31.8088   38.7604 H         1 C5D500      0.0000 
     54 H           0.1343   31.5899   36.2877 H         1 C5D500      0.0000 
     55 H          -0.5002   31.4654   37.7602 H         1 C5D500      0.0000 
     56 H          -0.4053   32.9023   37.0444 H         1 C5D500      0.0000 
     57 H           3.1364   33.4062   37.0471 H         1 C5D500      0.0000 
     58 H           2.2627   32.7513   35.8665 H         1 C5D500      0.0000 
     59 H           1.7173   34.0477   36.6462 H         1 C5D500      0.0000 
     60 H           1.8291   29.4043   39.6954 H         1 C5D500      0.0000 
     61 H           0.7527   30.5937   39.8087 H         1 C5D500      0.0000 
     62 H           0.6876   29.5653   38.5741 H         1 C5D500      0.0000 
     63 H           5.4836   26.5810   32.9747 H         1 C5D500      0.0000 
     64 H          -0.0230   40.3166   40.7778 H         1 C5D500      0.0000 
     65 H           4.6544   39.0071   37.5389 H         1 C5D500      0.0000 
@<TRIPOS>BOND
     1    2    1 1    
     2   30    1 1    
     3   34    1 1    
     4   35    1 1    
     5    3    2 1    
     6   36    2 1    
     7   37    2 1    
     8    4    3 3    
     9    5    4 1    
    10    6    5 1    
    11    7    5 1    
    12    8    5 1    
    13    9    6 1    
    14   10    6 1    
    15   11    6 1    
    16   12    7 1    
    17   13    7 1    
    18   14    7 1    
    19   63    8 1    
    20   18   15 1    
    21   64   15 1    
    22   17   16 1    
    23   24   16 1    
    24   32   16 1    
    25   38   16 1    
    26   18   17 1    
    27   39   17 1    
    28   40   17 1    
    29   19   18 1    
    30   41   18 1    
    31   20   19 1    
    32   42   19 1    
    33   43   19 1    
    34   21   20 2    
    35   24   20 1    
    36   22   21 1    
    37   44   21 1    
    38   23   22 2    
    39   45   22 1    
    40   27   23 1    
    41   46   23 1    
    42   47   24 1    
    43   48   24 1    
    44   26   25 1    
    45   54   25 1    
    46   55   25 1    
    47   56   25 1    
    48   27   26 1    
    49   30   26 1    
    50   31   26 1    
    51   28   27 1    
    52   49   27 1    
    53   29   28 1    
    54   50   28 1    
    55   51   28 1    
    56   30   29 1    
    57   52   29 1    
    58   53   29 1    
    59   33   30 1    
    60   57   31 1    
    61   58   31 1    
    62   59   31 1    
    63   65   32 1    
    64   60   33 1    
    65   61   33 1    
    66   62   33 1    
@<TRIPOS>SUBSTRUCTURE
     1 C5D500      1 GROUP   
@<TRIPOS>SET

