#    Name: 2R7N_1_CAVITY_N1_6.mol2
#    Modification time : Mon Mar 10 12:33:51 2014

@<TRIPOS>MOLECULE
2R7N_1_CAVITY_N1_6.mol2
  123     0     7     0     0
SMALL
NO_CHARGES


@<TRIPOS>ATOM
      1 N           3.5537    9.7763   39.1199 N.2       2 ALA2        0.0000 
      2 OG          4.2238    8.4480   39.3111 O.2       1 SER1        0.0000 
      3 OG          4.8939    7.1197   39.5024 O.2       1 SER1        0.0000 
      4 OG          5.5639    5.7914   39.6937 O.2       1 SER1        0.0000 
      5 CA          9.0007   12.6233   39.8090 C.3       6 GLY6        0.0000 
      6 CA          9.6708   11.2950   40.0003 C.3       6 GLY6        0.0000 
      7 N           7.7763   11.9307   39.2883 N.2       2 ALA2        0.0000 
      8 CZ          8.4464   10.6024   39.4796 C.ar      5 PHE5        0.0000 
      9 CA          9.1165    9.2741   39.6709 C.3       6 GLY6        0.0000 
     10 CZ          7.2220    9.9097   38.9589 C.ar      5 PHE5        0.0000 
     11 OG          7.8921    8.5814   39.1502 O.2       1 SER1        0.0000 
     12 OG          5.9976    9.2171   38.4382 O.2       1 SER1        0.0000 
     13 OG          6.6677    7.8888   38.6295 O.2       1 SER1        0.0000 
     14 CZ          7.3378    6.5605   38.8208 C.ar      5 PHE5        0.0000 
     15 N           4.1032    9.8528   37.7262 N.2       2 ALA2        0.0000 
     16 OG          4.7732    8.5245   37.9175 O.2       1 SER1        0.0000 
     17 OG          5.4433    7.1962   38.1088 O.2       1 SER1        0.0000 
     18 OG          6.1134    5.8678   38.3001 O.2       1 SER1        0.0000 
     19 CA          6.7834    4.5395   38.4914 C.3       6 GLY6        0.0000 
     20 N           3.5488    7.8318   37.3968 N.2       2 ALA2        0.0000 
     21 DU          4.2189    6.5035   37.5881 H         7 CUB7        0.0000 
     22 DU          4.8890    5.1752   37.7794 H         7 CUB7        0.0000 
     23 NZ          5.5590    3.8469   37.9707 N.2       4 LYS4        0.0000 
     24 NZ          9.5501   12.6998   38.4154 N.2       4 LYS4        0.0000 
     25 CA         10.2202   11.3715   38.6067 C.3       6 GLY6        0.0000 
     26 CA          8.3258   12.0071   37.8947 C.3       6 GLY6        0.0000 
     27 CA          8.9958   10.6788   38.0859 C.3       6 GLY6        0.0000 
     28 CA          9.6659    9.3505   38.2772 C.3       6 GLY6        0.0000 
     29 CZ         10.3360    8.0222   38.4685 C.ar      5 PHE5        0.0000 
     30 CA          7.7714    9.9862   37.5652 C.3       6 GLY6        0.0000 
     31 DU          8.4415    8.6579   37.7565 H         7 CUB7        0.0000 
     32 CZ          9.1116    7.3296   37.9478 C.ar      5 PHE5        0.0000 
     33 CA          6.5470    9.2936   37.0445 C.3       6 GLY6        0.0000 
     34 DU          7.2171    7.9653   37.2358 H         7 CUB7        0.0000 
     35 CZ          7.8872    6.6369   37.4271 C.ar      5 PHE5        0.0000 
     36 CZ          8.5573    5.3086   37.6184 C.ar      5 PHE5        0.0000 
     37 CA          5.3227    8.6009   36.5238 C.3       6 GLY6        0.0000 
     38 DU          5.9927    7.2726   36.7151 H         7 CUB7        0.0000 
     39 DU          6.6628    5.9443   36.9064 H         7 CUB7        0.0000 
     40 CA          7.3329    4.6160   37.0977 C.3       6 GLY6        0.0000 
     41 N           4.0983    7.9083   36.0031 N.2       2 ALA2        0.0000 
     42 DU          4.7683    6.5800   36.1944 H         7 CUB7        0.0000 
     43 NZ          5.4384    5.2517   36.3857 N.2       4 LYS4        0.0000 
     44 NZ          6.1085    3.9234   36.5770 N.2       4 LYS4        0.0000 
     45 DU          3.5439    5.8874   35.6737 H         7 CUB7        0.0000 
     46 NZ          4.2140    4.5590   35.8650 N.2       4 LYS4        0.0000 
     47 CZ         10.7696   11.4479   37.2130 C.ar      5 PHE5        0.0000 
     48 CA         12.1098    8.7913   37.5956 C.3       6 GLY6        0.0000 
     49 CA          8.8752   12.0836   36.5010 C.3       6 GLY6        0.0000 
     50 CA          9.5453   10.7553   36.6923 C.3       6 GLY6        0.0000 
     51 DU         10.2153    9.4270   36.8836 H         7 CUB7        0.0000 
     52 CZ         10.8854    8.0987   37.0749 C.ar      5 PHE5        0.0000 
     53 CA          8.3209   10.0627   36.1716 C.3       6 GLY6        0.0000 
     54 DU          8.9909    8.7343   36.3629 H         7 CUB7        0.0000 
     55 NZ          9.6610    7.4060   36.5542 N.2       4 LYS4        0.0000 
     56 CA          7.0965    9.3700   35.6509 C.3       6 GLY6        0.0000 
     57 DU          7.7665    8.0417   35.8422 H         7 CUB7        0.0000 
     58 NZ          8.4366    6.7134   36.0335 N.2       4 LYS4        0.0000 
     59 CA          5.8721    8.6774   35.1302 C.3       6 GLY6        0.0000 
     60 DU          6.5422    7.3491   35.3215 H         7 CUB7        0.0000 
     61 NZ          7.2122    6.0208   35.5128 N.2       4 LYS4        0.0000 
     62 NZ          7.8823    4.6925   35.7040 N.2       4 LYS4        0.0000 
     63 CA          4.6477    7.9848   34.6095 C.3       6 GLY6        0.0000 
     64 CA          5.3178    6.6565   34.8008 C.3       6 GLY6        0.0000 
     65 DU          5.9878    5.3281   34.9921 H         7 CUB7        0.0000 
     66 NZ          6.6579    3.9998   35.1833 N.2       4 LYS4        0.0000 
     67 CA          3.4233    7.2921   34.0888 C.3       6 GLY6        0.0000 
     68 CA          4.0934    5.9638   34.2801 C.3       6 GLY6        0.0000 
     69 NZ          4.7635    4.6355   34.4714 N.2       4 LYS4        0.0000 
     70 CA         13.2135   10.8887   36.5313 C.3       6 GLY6        0.0000 
     71 CZ         13.8836    9.5604   36.7226 C.ar      5 PHE5        0.0000 
     72 CZ         11.9891   10.1961   36.0106 C.ar      5 PHE5        0.0000 
     73 DU         12.6592    8.8678   36.2019 H         7 CUB7        0.0000 
     74 CA         13.3293    7.5394   36.3932 C.3       6 GLY6        0.0000 
     75 CZ         10.7648    9.5034   35.4899 C.ar      5 PHE5        0.0000 
     76 NZ         11.4348    8.1751   35.6812 N.2       4 LYS4        0.0000 
     77 NZ         12.1049    6.8468   35.8725 N.2       4 LYS4        0.0000 
     78 CZ          8.8703   10.1391   34.7779 C.ar      5 PHE5        0.0000 
     79 CZ          9.5404    8.8108   34.9692 C.ar      5 PHE5        0.0000 
     80 CZ          7.6459    9.4465   34.2572 C.ar      5 PHE5        0.0000 
     81 NZ          8.3160    8.1182   34.4485 N.2       4 LYS4        0.0000 
     82 CA          6.4215    8.7539   33.7365 C.3       6 GLY6        0.0000 
     83 N           7.0916    7.4255   33.9278 N.2       2 ALA2        0.0000 
     84 NZ          7.7617    6.0972   34.1191 N.2       4 LYS4        0.0000 
     85 CA          5.8672    6.7329   33.4071 C.3       6 GLY6        0.0000 
     86 N           6.5373    5.4046   33.5984 N.2       2 ALA2        0.0000 
     87 N           5.3129    4.7120   33.0777 N.2       2 ALA2        0.0000 
     88 OD1        14.9874   11.6578   35.6584 O.3       3 ASP3        0.0000 
     89 OG         15.6574   10.3295   35.8497 O.2       1 SER1        0.0000 
     90 CZ         13.7630   10.9652   35.1377 C.ar      5 PHE5        0.0000 
     91 OG         14.4330    9.6369   35.3290 O.2       1 SER1        0.0000 
     92 OG         15.1031    8.3085   35.5203 O.2       1 SER1        0.0000 
     93 OG         15.7732    6.9802   35.7115 O.2       1 SER1        0.0000 
     94 CZ         13.2087    8.9442   34.8083 C.ar      5 PHE5        0.0000 
     95 NZ         13.8787    7.6159   34.9996 N.2       4 LYS4        0.0000 
     96 NZ         11.9843    8.2516   34.2876 N.2       4 LYS4        0.0000 
     97 CZ         10.0898    8.8873   33.5756 C.ar      5 PHE5        0.0000 
     98 CZ          8.1953    9.5230   32.8636 C.ar      5 PHE5        0.0000 
     99 CA          8.8654    8.1946   33.0549 C.3       6 GLY6        0.0000 
    100 OG         17.4313   11.0986   34.9767 O.2       1 SER1        0.0000 
    101 NZ         15.5368   11.7343   34.2647 N.2       4 LYS4        0.0000 
    102 OG         16.2069   10.4060   34.4560 O.2       1 SER1        0.0000 
    103 CZ         14.3124   11.0416   33.7440 C.ar      5 PHE5        0.0000 
    104 DU         14.9825    9.7133   33.9353 H         7 CUB7        0.0000 
    105 OG         15.6525    8.3850   34.1266 O.2       1 SER1        0.0000 
    106 OG         16.3226    7.0567   34.3179 O.2       1 SER1        0.0000 
    107 N          16.9927    5.7284   34.5092 N.2       2 ALA2        0.0000 
    108 CZ         13.7581    9.0207   33.4146 C.ar      5 PHE5        0.0000 
    109 NZ         14.4282    7.6924   33.6059 N.2       4 LYS4        0.0000 
    110 N          15.0982    6.3641   33.7972 N.2       2 ALA2        0.0000 
    111 NZ         12.5337    8.3281   32.8939 N.2       4 LYS4        0.0000 
    112 NZ         16.7563   10.4824   33.0624 N.2       4 LYS4        0.0000 
    113 OG         17.4264    9.1541   33.2536 O.2       1 SER1        0.0000 
    114 CA         15.5319    9.7898   32.5417 C.3       6 GLY6        0.0000 
    115 DU         16.2020    8.4615   32.7329 H         7 CUB7        0.0000 
    116 DU         16.8720    7.1332   32.9242 H         7 CUB7        0.0000 
    117 O          14.3075    9.0972   32.0210 O.2       2 ALA2        0.0000 
    118 DU         14.9776    7.7688   32.2122 H         7 CUB7        0.0000 
    119 DU         15.6477    6.4405   32.4035 H         7 CUB7        0.0000 
    120 O          16.3177    5.1122   32.5948 O.2       2 ALA2        0.0000 
    121 NZ         13.7532    7.0762   31.6915 N.2       4 LYS4        0.0000 
    122 DU         15.5270    7.8453   30.8186 H         7 CUB7        0.0000 
    123 CA         16.1971    6.5170   31.0099 C.3       6 GLY6        0.0000 
@<TRIPOS>BOND
@<TRIPOS>SUBSTRUCTURE
     1 SER1        2 GROUP   
     2 ALA2        1 GROUP   
     3 ASP3       88 GROUP   
     4 LYS4       23 GROUP   
     5 PHE5        8 GROUP   
     6 GLY6        5 GROUP   
     7 CUB7       21 GROUP   
@<TRIPOS>SET

