#    Name: 2r7n_ADP_1_INTS_M
#    Modification time : Mon Mar 24 23:19:10 2014

@<TRIPOS>MOLECULE
2r7n_ADP_1_INTS_M
   65     0    12     0     0
SMALL
NO_CHARGES


@<TRIPOS>ATOM
      1 N          13.9400    9.7535   30.5590 N.am      2 SEC2        0.0000 
      2 N          15.0200    8.7430   31.3110 N.am     10 SEL2        0.0000 
      3 N          12.8600   10.7640   29.8070 N.am      6 SEP2        0.0000 
      4 NZ         14.2770   12.6455   36.1995 N.4       3 LYC4        0.0000 
      5 NZ         14.6270   11.9020   35.0850 N.4      11 LYL4        0.0000 
      6 NZ         13.9270   13.3890   37.3140 N.4       7 LYP4        0.0000 
      7 N          14.2770   12.6455   36.1995 N.am      2 SEC2        0.0000 
      8 N          14.6270   11.9020   35.0850 N.am     10 SEL2        0.0000 
      9 N          13.9270   13.3890   37.3140 N.am      6 SEP2        0.0000 
     10 N          16.8500    9.3045   36.0740 N.am      2 SEC2        0.0000 
     11 N          16.0610    9.6850   35.2980 N.am     10 SEL2        0.0000 
     12 N          17.6390    8.9240   36.8500 N.am      6 SEP2        0.0000 
     13 CA         14.8305    8.6120   37.1530 C.3       4 GLC5        0.0000 
     14 CA         13.6460    8.2560   35.7050 C.3      12 GLL5        0.0000 
     15 CA         16.0150    8.9680   38.6010 C.3       8 GLP5        0.0000 
     16 CA         11.2565   10.1250   34.0930 C.3       4 GLC5        0.0000 
     17 CA         11.2860    8.5450   34.9000 C.3      12 GLL5        0.0000 
     18 CA         11.2270   11.7050   33.2860 C.3       8 GLP5        0.0000 
     19 O          10.6900    6.3225   34.3905 O.2       1 ALC1        0.0000 
     20 O          11.0830    7.7780   33.7120 O.2       9 ALL1        0.0000 
     21 O          10.2970    4.8670   35.0690 O.2       5 ALP1        0.0000 
     22 O          11.3580    6.6445   33.5740 O.2       1 ALC1        0.0000 
     23 O          11.6330    5.5110   33.4360 O.2       5 ALP1        0.0000 
     24 CA          9.9945   10.0255   34.2565 C.3       4 GLC5        0.0000 
     25 CA         10.0030    8.7500   35.6810 C.3      12 GLL5        0.0000 
     26 CA          9.9860   11.3010   32.8320 C.3       8 GLP5        0.0000 
     27 O           9.7100    6.2535   35.2880 O.2       1 ALC1        0.0000 
     28 O           9.1230    7.6400   35.5070 O.2       9 ALL1        0.0000 
     29 CA         11.1010    9.3215   39.0040 C.3       4 GLC5        0.0000 
     30 CA         10.4730    8.8130   37.1320 C.3      12 GLL5        0.0000 
     31 CA         11.7290    9.8300   40.8760 C.3       8 GLP5        0.0000 
     32 CA         10.7965    7.0095   37.9205 C.3       4 GLC5        0.0000 
     33 CA         11.1200    5.2060   38.7090 C.3       8 GLP5        0.0000 
     34 N          12.6270   12.8630   37.4135 N.am      2 SEC2        0.0000 
     35 N          11.3270   12.3370   37.5130 N.am     10 SEL2        0.0000 
     36 CA         12.2795   12.3760   38.2470 C.3       4 GLC5        0.0000 
     37 CA         10.1440   12.3200   38.1640 C.3      12 GLL5        0.0000 
     38 CA         14.4150   12.4320   38.3300 C.3       8 GLP5        0.0000 
     39 CA          8.4655   13.7570   40.8325 C.3       4 GLC5        0.0000 
     40 CA          9.3020   13.3040   38.8770 C.3      12 GLL5        0.0000 
     41 CA          7.6290   14.2100   42.7880 C.3       8 GLP5        0.0000 
     42 O          10.9645   14.9750   38.8235 O.2       1 ALC1        0.0000 
     43 O           9.6610   14.6080   38.9790 O.2       9 ALL1        0.0000 
     44 O          12.2680   15.3420   38.6680 O.2       5 ALP1        0.0000 
     45 O           9.3450   15.3845   40.2330 O.2       1 ALC1        0.0000 
     46 O           9.0290   16.1610   41.4870 O.2       5 ALP1        0.0000 
     47 N           7.2205   13.7560   40.1040 N.am      2 SEC2        0.0000 
     48 N           8.1420   12.8670   39.4010 N.am     10 SEL2        0.0000 
     49 N           6.2990   14.6450   40.8070 N.am      6 SEP2        0.0000 
     50 CA          7.6925   12.8940   41.0465 C.3       4 GLC5        0.0000 
     51 CA          7.7560   11.5780   39.3050 C.3      12 GLL5        0.0000 
     52 CA          6.4110   13.2850   39.7050 C.3       4 GLC5        0.0000 
     53 CA          5.0660   14.9920   40.1050 C.3       8 GLP5        0.0000 
     54 CA          7.0355   12.1295   37.7470 C.3       4 GLC5        0.0000 
     55 CA          6.3150   12.6810   36.1890 C.3       8 GLP5        0.0000 
     56 CA         10.6905   10.3835   39.4885 C.3       4 GLC5        0.0000 
     57 CA          9.6520   10.9370   38.1010 C.3      12 GLL5        0.0000 
     58 CA         13.1885    6.3353   36.8520 C.3       4 GLC5        0.0000 
     59 CA         12.2020    7.8290   35.8850 C.3      12 GLL5        0.0000 
     60 CA         13.4530    4.6280   37.9090 C.3       8 GLP5        0.0000 
     61 CA         10.8210   12.8200   40.0712 C.3       4 GLC5        0.0000 
     62 CA         11.9190   12.8280   41.6220 C.3       8 GLP5        0.0000 
     63 CA         10.0570   13.8960   36.7598 C.3       4 GLC5        0.0000 
     64 CA         10.3910   14.9800   34.9990 C.3       8 GLP5        0.0000 
     65 CA          8.0012   12.2777   37.2499 C.3       4 GLC5        0.0000 
@<TRIPOS>BOND
@<TRIPOS>SUBSTRUCTURE
     1 ALC1       19 GROUP        1 X    ALC  0     ROOT ALC X 1
     2 SEC2        1 GROUP        1 X    SEC  0     **** SEC X 2
     3 LYC4        4 GROUP        1 X    LYC  0     **** LYC X 4
     4 GLC5       13 GROUP        1 X    GLC  0     **** GLC X 6
     5 ALP1       21 GROUP        1 Y    ALP  0     ROOT ALP Y 8
     6 SEP2        3 GROUP        1 Y    SEP  0     **** SEP Y 9
     7 LYP4        6 GROUP        1 Y    LYP  0     **** LYP Y 11
     8 GLP5       15 GROUP        1 Y    GLP  0     **** GLP Y 13
     9 ALL1       20 GROUP        1 Z    ALL  0     ROOT ALL Z 15
    10 SEL2        2 GROUP        1 Z    SEL  0     **** SEL Z 16
    11 LYL4        5 GROUP        1 Z    LYL  0     **** LYL Z 18
    12 GLL5       14 GROUP        1 Z    GLL  0     **** GLL Z 20
@<TRIPOS>SET

