#    Name: 2r7n_ADP_1_ligand
#    Modification time : Mon Mar 24 23:19:10 2014

@<TRIPOS>MOLECULE
2r7n_ADP_1_ligand
   39    41     1     0     0
SMALL
NO_CHARGES


@<TRIPOS>ATOM
      1 PB         15.7540    9.5470   32.3710 P.3       1 ADP400      0.0000 
      2 O1B        16.4150   10.8010   31.8350 O.co2     1 ADP400      0.0000 
      3 O2B        16.6420    8.7170   33.2790 O.co2     1 ADP400      0.0000 
      4 O3B        15.0200    8.7430   31.3110 O.co2     1 ADP400      0.0000 
      5 PA         14.8150   10.4170   34.8800 P.3       1 ADP400      0.0000 
      6 O1A        14.6270   11.9020   35.0850 O.co2     1 ADP400      0.0000 
      7 O2A        16.0610    9.6850   35.2980 O.co2     1 ADP400      0.0000 
      8 O3A        14.5640   10.1080   33.3190 O.3       1 ADP400      0.0000 
      9 O5'        13.6230    9.6700   35.6420 O.3       1 ADP400      0.0000 
     10 C5'        13.6460    8.2560   35.7050 C.3       1 ADP400      0.0000 
     11 C4'        12.2020    7.8290   35.8850 C.3       1 ADP400      0.0000 
     12 O4'        11.7590    8.2050   37.1940 O.3       1 ADP400      0.0000 
     13 C3'        11.2860    8.5450   34.9000 C.3       1 ADP400      0.0000 
     14 O3'        11.0830    7.7780   33.7120 O.3       1 ADP400      0.0000 
     15 C2'        10.0030    8.7500   35.6810 C.3       1 ADP400      0.0000 
     16 O2'         9.1230    7.6400   35.5070 O.3       1 ADP400      0.0000 
     17 C1'        10.4730    8.8130   37.1320 C.3       1 ADP400      0.0000 
     18 N9         10.5800   10.2410   37.4460 N.pl3     1 ADP400      0.0000 
     19 C8         11.5750   11.0700   37.0810 C.2       1 ADP400      0.0000 
     20 N7         11.3270   12.3370   37.5130 N.2       1 ADP400      0.0000 
     21 C5         10.1440   12.3200   38.1640 C.ar      1 ADP400      0.0000 
     22 C6          9.3020   13.3040   38.8770 C.ar      1 ADP400      0.0000 
     23 N6          9.6610   14.6080   38.9790 N.pl3     1 ADP400      0.0000 
     24 N1          8.1420   12.8670   39.4010 N.ar      1 ADP400      0.0000 
     25 C2          7.7560   11.5780   39.3050 C.ar      1 ADP400      0.0000 
     26 N3          8.4720   10.6260   38.6840 N.ar      1 ADP400      0.0000 
     27 C4          9.6520   10.9370   38.1010 C.ar      1 ADP400      0.0000 
     28 H          14.2144    7.8911   36.5512 H         1 ADP400      0.0000 
     29 H          14.0193    7.8095   34.7919 H         1 ADP400      0.0000 
     30 H          12.1142    6.7785   35.7348 H         1 ADP400      0.0000 
     31 H          11.7125    9.5121   34.7083 H         1 ADP400      0.0000 
     32 H           9.5840    9.6778   35.4224 H         1 ADP400      0.0000 
     33 H           9.7587    8.3421   37.7368 H         1 ADP400      0.0000 
     34 H          12.3703   10.8073   36.5751 H         1 ADP400      0.0000 
     35 H           9.0337   15.1987   39.4865 H         1 ADP400      0.0000 
     36 H          10.5213   14.8634   38.5377 H         1 ADP400      0.0000 
     37 H           6.8242   11.2997   39.7505 H         1 ADP400      0.0000 
     38 H          10.9679    6.8364   34.0285 H         1 ADP400      0.0000 
     39 H           9.7234    6.8561   35.3490 H         1 ADP400      0.0000 
@<TRIPOS>BOND
     1    2    1 ar   
     2    3    1 ar   
     3    4    1 ar   
     4    8    1 1    
     5    6    5 ar   
     6    7    5 ar   
     7    8    5 1    
     8    9    5 1    
     9   10    9 1    
    10   11   10 1    
    11   28   10 1    
    12   29   10 1    
    13   12   11 1    
    14   13   11 1    
    15   30   11 1    
    16   17   12 1    
    17   14   13 1    
    18   15   13 1    
    19   31   13 1    
    20   38   14 1    
    21   16   15 1    
    22   17   15 1    
    23   32   15 1    
    24   39   16 1    
    25   18   17 1    
    26   33   17 1    
    27   19   18 1    
    28   27   18 1    
    29   20   19 2    
    30   34   19 1    
    31   21   20 1    
    32   22   21 ar   
    33   27   21 ar   
    34   23   22 1    
    35   24   22 ar   
    36   35   23 1    
    37   36   23 1    
    38   25   24 ar   
    39   26   25 ar   
    40   37   25 1    
    41   27   26 ar   
@<TRIPOS>SUBSTRUCTURE
     1 ADP400      1 GROUP   
@<TRIPOS>SET

