#    Name: 3crz_FAD_2_INTS_M
#    Modification time : Mon Mar 24 22:14:58 2014

@<TRIPOS>MOLECULE
3crz_FAD_2_INTS_M
  122     0    12     0     0
SMALL
NO_CHARGES


@<TRIPOS>ATOM
      1 NZ        131.5985   28.5865   16.4540 N.4       3 LYC4        0.0000 
      2 NZ        130.9600   28.9850   15.2130 N.4      11 LYL4        0.0000 
      3 NZ        132.2370   28.1880   17.6950 N.4       7 LYP4        0.0000 
      4 N         131.5985   28.5865   16.4540 N.am      2 SEC2        0.0000 
      5 N         130.9600   28.9850   15.2130 N.am     10 SEL2        0.0000 
      6 N         132.2370   28.1880   17.6950 N.am      6 SEP2        0.0000 
      7 CA        129.5250   31.2280   16.3755 C.3       4 GLC5        0.0000 
      8 CA        128.6250   31.6020   14.5130 C.3      12 GLL5        0.0000 
      9 CA        130.4250   30.8540   18.2380 C.3       8 GLP5        0.0000 
     10 CA        128.6130   31.0655   17.3260 C.3       4 GLC5        0.0000 
     11 CA        126.8010   31.2770   16.4140 C.3      12 GLL5        0.0000 
     12 N         127.6400   32.1925   18.5755 N.am      2 SEC2        0.0000 
     13 N         127.0790   32.2020   17.3920 N.am     10 SEL2        0.0000 
     14 N         128.2010   32.1830   19.7590 N.am      6 SEP2        0.0000 
     15 CA        123.1305   31.1215   16.2355 C.3       4 GLC5        0.0000 
     16 CA        125.3310   30.8930   16.2620 C.3      12 GLL5        0.0000 
     17 CA        120.9300   31.3500   16.2090 C.3       8 GLP5        0.0000 
     18 N         123.3320   31.1575   15.2850 N.am      2 SEC2        0.0000 
     19 N         124.4700   31.9890   16.2580 N.am     10 SEL2        0.0000 
     20 N         122.1940   30.3260   14.3120 N.am      6 SEP2        0.0000 
     21 O         124.1980   32.3830   17.5710 O.2       1 ALC1        0.0000 
     22 O         124.4700   31.9890   16.2580 O.2       9 ALL1        0.0000 
     23 O         123.9260   32.7770   18.8840 O.2       5 ALP1        0.0000 
     24 CA        126.0765   29.8935   12.9965 C.3       4 GLC5        0.0000 
     25 CA        125.2980   30.1360   14.9710 C.3      12 GLL5        0.0000 
     26 CA        126.8550   29.6510   11.0220 C.3       8 GLP5        0.0000 
     27 CA        123.1605   30.2015   15.0445 C.3       4 GLC5        0.0000 
     28 CA        121.0230   30.2670   15.1180 C.3       8 GLP5        0.0000 
     29 CA        125.9835   26.1870   12.5245 C.3       4 GLC5        0.0000 
     30 CA        125.3820   26.5630   14.2380 C.3      12 GLL5        0.0000 
     31 CA        126.5850   25.8110   10.8110 C.3       8 GLP5        0.0000 
     32 CA        124.8550   25.4570   12.1380 C.3       4 GLC5        0.0000 
     33 CA        124.5730   25.4530   13.9030 C.3      12 GLL5        0.0000 
     34 CA        125.1370   25.4610   10.3730 C.3       8 GLP5        0.0000 
     35 O         124.2705   23.1310   13.6440 O.2       1 ALC1        0.0000 
     36 O         125.0710   24.2080   13.7230 O.2       9 ALL1        0.0000 
     37 O         123.4700   22.0540   13.5650 O.2       5 ALP1        0.0000 
     38 CA        122.7165   26.6555   12.1360 C.3       4 GLC5        0.0000 
     39 CA        122.6640   26.9350   13.9460 C.3      12 GLL5        0.0000 
     40 CA        122.7690   26.3760   10.3260 C.3       8 GLP5        0.0000 
     41 CA        121.8435   28.6010   14.5320 C.3       4 GLC5        0.0000 
     42 CA        124.5055   27.2650   12.3405 C.3       4 GLC5        0.0000 
     43 CA        124.7480   27.8180   14.4100 C.3      12 GLL5        0.0000 
     44 CA        124.2630   26.7120   10.2710 C.3       8 GLP5        0.0000 
     45 CA        125.8015   28.7345   12.7160 C.3       4 GLC5        0.0000 
     46 N         126.3830   23.0525   10.3240 N.am      2 SEC2        0.0000 
     47 N         126.9200   22.6680   11.4610 N.am     10 SEL2        0.0000 
     48 N         125.8460   23.4370    9.1870 N.am      6 SEP2        0.0000 
     49 O         126.7025   19.8930   11.2970 O.2       1 ALC1        0.0000 
     50 O         127.1300   20.6020   12.4240 O.2       9 ALL1        0.0000 
     51 O         126.2750   19.1840   10.1700 O.2       5 ALP1        0.0000 
     52 N         128.4190   17.7265   14.2300 N.am      2 SEC2        0.0000 
     53 N         127.3410   18.5320   13.4300 N.am     10 SEL2        0.0000 
     54 N         129.4970   16.9210   15.0300 N.am      6 SEP2        0.0000 
     55 N         128.8140   18.3220   15.4450 N.am      2 SEC2        0.0000 
     56 N         128.1310   19.7230   15.8600 N.am     10 SEL2        0.0000 
     57 CA        129.9010   17.8055   18.1830 C.3       4 GLC5        0.0000 
     58 CA        128.7690   19.6380   18.2040 C.3      12 GLL5        0.0000 
     59 CA        131.0330   15.9730   18.1620 C.3       8 GLP5        0.0000 
     60 CA        130.1855   17.8575   20.6500 C.3       4 GLC5        0.0000 
     61 CA        129.3880   19.4150   20.6350 C.3      12 GLL5        0.0000 
     62 CA        130.9830   16.3000   20.6650 C.3       8 GLP5        0.0000 
     63 CA        128.0180   18.5040   21.5345 C.3       4 GLC5        0.0000 
     64 CA        126.6480   17.5930   22.4340 C.3       8 GLP5        0.0000 
     65 CA        127.0490   24.7565   16.5590 C.3       4 GLC5        0.0000 
     66 CA        128.6640   23.9870   15.6900 C.3      12 GLL5        0.0000 
     67 CA        125.4340   25.5260   17.4280 C.3       8 GLP5        0.0000 
     68 CA        131.9910   24.1515   14.6410 C.3       4 GLC5        0.0000 
     69 CA        130.0330   24.1420   15.0490 C.3      12 GLL5        0.0000 
     70 CA        133.9490   24.1610   14.2330 C.3       8 GLP5        0.0000 
     71 CA        130.8230   23.1310   13.4490 C.3       4 GLC5        0.0000 
     72 CA        131.6130   22.1200   11.8490 C.3       8 GLP5        0.0000 
     73 O         131.1375   22.4340   15.8435 O.2       1 ALC1        0.0000 
     74 O         130.9990   23.7370   16.0250 O.2       9 ALL1        0.0000 
     75 O         131.2760   21.1310   15.6620 O.2       5 ALP1        0.0000 
     76 CA        132.2035   26.0035   14.8120 C.3       4 GLC5        0.0000 
     77 CA        130.3550   25.5330   14.5520 C.3      12 GLL5        0.0000 
     78 CA        134.0520   26.4740   15.0720 C.3       8 GLP5        0.0000 
     79 CA        131.9060   24.8790   13.6480 C.3       4 GLC5        0.0000 
     80 CA        129.8630   25.5970   13.0630 C.3      12 GLL5        0.0000 
     81 CA        130.7380   23.8585   12.4560 C.3       4 GLC5        0.0000 
     82 O         130.3625   23.9465   11.3135 O.2       1 ALC1        0.0000 
     83 O         130.5180   24.7040   12.3610 O.2       9 ALL1        0.0000 
     84 O         130.2070   23.1890   10.2660 O.2       5 ALP1        0.0000 
     85 CA        128.3630   28.4050   11.8280 C.3       4 GLC5        0.0000 
     86 CA        129.8710   27.1590   12.6340 C.3      12 GLL5        0.0000 
     87 NZ        133.6430   28.4345   13.6580 N.4       3 LYC4        0.0000 
     88 NZ        132.9680   28.9970   12.5540 N.4      11 LYL4        0.0000 
     89 NZ        135.5070   28.4520   14.8730 N.4       7 LYP4        0.0000 
     90 N         133.6430   28.4345   13.6580 N.am      2 SEC2        0.0000 
     91 N         132.9680   28.9970   12.5540 N.am     10 SEL2        0.0000 
     92 N         134.3180   27.8720   14.7620 N.am      6 SEP2        0.0000 
     93 N         133.6850   29.1630   11.3930 N.am      2 SEC2        0.0000 
     94 N         134.4020   29.3290   10.2320 N.am      6 SEP2        0.0000 
     95 N         131.7785   28.4705    9.8150 N.am      2 SEC2        0.0000 
     96 N         131.1990   29.0430   10.9800 N.am     10 SEL2        0.0000 
     97 N         132.3580   27.8980    8.6500 N.am      6 SEP2        0.0000 
     98 N         130.3305   28.6885    9.9230 N.am      2 SEC2        0.0000 
     99 N         129.4620   28.3340    8.8660 N.am      6 SEP2        0.0000 
    100 CA        127.5180   31.8747   12.7553 C.3       4 GLC5        0.0000 
    101 CA        127.1400   32.1210   10.7730 C.3       8 GLP5        0.0000 
    102 CA        126.0880   31.1975   18.4585 C.3       4 GLC5        0.0000 
    103 CA        126.1100   31.3100   20.5790 C.3       8 GLP5        0.0000 
    104 CA        124.6753   29.0153   16.8347 C.3       4 GLC5        0.0000 
    105 CA        124.0360   27.5160   18.0530 C.3       8 GLP5        0.0000 
    106 CA        125.1484   26.2195   15.8341 C.3       4 GLC5        0.0000 
    107 CA        130.6400   20.3900   18.0060 C.3       4 GLC5        0.0000 
    108 CA        128.5010   20.3720   17.0360 C.3      12 GLL5        0.0000 
    109 CA        132.6450   20.7750   18.3920 C.3       8 GLP5        0.0000 
    110 CA        129.9100   19.2955   16.0945 C.3       4 GLC5        0.0000 
    111 CA        131.1850   18.5860   14.5690 C.3       8 GLP5        0.0000 
    112 CA        130.9522   20.3098   19.2115 C.3       4 GLC5        0.0000 
    113 CA        129.1310   20.2740   19.4270 C.3      12 GLL5        0.0000 
    114 CA        131.0290   21.4582   19.2317 C.3       4 GLC5        0.0000 
    115 CA        129.2290   21.7520   19.4500 C.3      12 GLL5        0.0000 
    116 CA        130.7145   21.4733   18.0265 C.3       4 GLC5        0.0000 
    117 CA        128.9700   22.4970   18.2770 C.3      12 GLL5        0.0000 
    118 CA        127.3190   23.4683   18.1780 C.3       4 GLC5        0.0000 
    119 CA        125.8540   24.7650   18.6950 C.3       8 GLP5        0.0000 
    120 CA        128.2260   26.0945   11.8298 C.3       4 GLC5        0.0000 
    121 CA        129.9910   26.1950   10.9763 C.3       4 GLC5        0.0000 
    122 CA        130.1150   26.0120    9.1040 C.3       8 GLP5        0.0000 
@<TRIPOS>BOND
@<TRIPOS>SUBSTRUCTURE
     1 ALC1       21 GROUP        1 X    ALC  0     ROOT ALC X 1
     2 SEC2        4 GROUP        1 X    SEC  0     **** SEC X 2
     3 LYC4        1 GROUP        1 X    LYC  0     **** LYC X 4
     4 GLC5        7 GROUP        1 X    GLC  0     **** GLC X 6
     5 ALP1       23 GROUP        1 Y    ALP  0     ROOT ALP Y 8
     6 SEP2        6 GROUP        1 Y    SEP  0     **** SEP Y 9
     7 LYP4        3 GROUP        1 Y    LYP  0     **** LYP Y 11
     8 GLP5        9 GROUP        1 Y    GLP  0     **** GLP Y 13
     9 ALL1       22 GROUP        1 Z    ALL  0     ROOT ALL Z 15
    10 SEL2        5 GROUP        1 Z    SEL  0     **** SEL Z 16
    11 LYL4        2 GROUP        1 Z    LYL  0     **** LYL Z 18
    12 GLL5        8 GROUP        1 Z    GLL  0     **** GLL Z 20
@<TRIPOS>SET

