#    Name: 3crz_FAD_2_ligand
#    Modification time : Mon Mar 24 22:14:58 2014

@<TRIPOS>MOLECULE
3crz_FAD_2_ligand
   84    89     1     0     0
SMALL
NO_CHARGES


@<TRIPOS>ATOM
      1 PA        130.7770   30.1560   14.5820 P.3       1 FAD300      0.0000 
      2 O1A       130.9600   28.9850   15.2130 O.co2     1 FAD300      0.0000 
      3 O2A       131.5810   31.2530   15.0560 O.co2     1 FAD300      0.0000 
      4 O5B       129.2800   30.3020   15.0450 O.3       1 FAD300      0.0000 
      5 C5B       128.6250   31.6020   14.5130 C.3       1 FAD300      0.0000 
      6 C4B       127.1670   31.6550   14.9620 C.3       1 FAD300      0.0000 
      7 O4B       126.4480   30.6320   14.1810 O.3       1 FAD300      0.0000 
      8 C3B       126.8010   31.2770   16.4140 C.3       1 FAD300      0.0000 
      9 O3B       127.0790   32.2020   17.3920 O.3       1 FAD300      0.0000 
     10 C2B       125.3310   30.8930   16.2620 C.3       1 FAD300      0.0000 
     11 O2B       124.4700   31.9890   16.2580 O.3       1 FAD300      0.0000 
     12 C1B       125.2980   30.1360   14.9710 C.3       1 FAD300      0.0000 
     13 N9A       125.7740   28.6850   14.7280 N.pl3     1 FAD300      0.0000 
     14 C8A       126.9360   27.9190   14.7330 C.2       1 FAD300      0.0000 
     15 N7A       126.7420   26.6640   14.4460 N.2       1 FAD300      0.0000 
     16 C5A       125.3820   26.5630   14.2380 C.ar      1 FAD300      0.0000 
     17 C6A       124.5730   25.4530   13.9030 C.ar      1 FAD300      0.0000 
     18 N6A       125.0710   24.2080   13.7230 N.pl3     1 FAD300      0.0000 
     19 N1A       123.1990   25.6730   13.7600 N.ar      1 FAD300      0.0000 
     20 C2A       122.6640   26.9350   13.9460 C.ar      1 FAD300      0.0000 
     21 N3A       123.4020   28.0340   14.2740 N.ar      1 FAD300      0.0000 
     22 C4A       124.7480   27.8180   14.4100 C.ar      1 FAD300      0.0000 
     23 N1        127.5990   22.6090   13.5770 N.2       1 FAD300      0.0000 
     24 C2        127.2000   22.0130   12.4330 C.2       1 FAD300      0.0000 
     25 O2        126.9200   22.6680   11.4610 O.2       1 FAD300      0.0000 
     26 N3        127.1300   20.6020   12.4240 N.am      1 FAD300      0.0000 
     27 C4        127.4330   19.7880   13.5170 C.2       1 FAD300      0.0000 
     28 O4        127.3410   18.5320   13.4300 O.2       1 FAD300      0.0000 
     29 C4X       127.8300   20.4260   14.7040 C.2       1 FAD300      0.0000 
     30 N5        128.1310   19.7230   15.8600 N.2       1 FAD300      0.0000 
     31 C5X       128.5010   20.3720   17.0360 C.ar      1 FAD300      0.0000 
     32 C6        128.7690   19.6380   18.2040 C.ar      1 FAD300      0.0000 
     33 C7        129.1310   20.2740   19.4270 C.ar      1 FAD300      0.0000 
     34 C7M       129.3880   19.4150   20.6350 C.3       1 FAD300      0.0000 
     35 C8        129.2290   21.7520   19.4500 C.ar      1 FAD300      0.0000 
     36 C8M       129.5970   22.5310   20.6930 C.3       1 FAD300      0.0000 
     37 C9        128.9700   22.4970   18.2770 C.ar      1 FAD300      0.0000 
     38 C9A       128.5980   21.8460   17.0450 C.ar      1 FAD300      0.0000 
     39 N10       128.2950   22.5410   15.7960 N.pl3     1 FAD300      0.0000 
     40 C10       127.9050   21.8580   14.6790 C.2       1 FAD300      0.0000 
     41 C1'       128.6640   23.9870   15.6900 C.3       1 FAD300      0.0000 
     42 C2'       130.0330   24.1420   15.0490 C.3       1 FAD300      0.0000 
     43 O2'       130.9990   23.7370   16.0250 O.3       1 FAD300      0.0000 
     44 C3'       130.3550   25.5330   14.5520 C.3       1 FAD300      0.0000 
     45 O3'       129.7600   26.4980   15.4040 O.3       1 FAD300      0.0000 
     46 C4'       129.8630   25.5970   13.0630 C.3       1 FAD300      0.0000 
     47 O4'       130.5180   24.7040   12.3610 O.3       1 FAD300      0.0000 
     48 C5'       129.8710   27.1590   12.6340 C.3       1 FAD300      0.0000 
     49 O5'       131.3380   27.6890   12.7210 O.3       1 FAD300      0.0000 
     50 P         131.5530   28.9410   12.2620 P.3       1 FAD300      0.0000 
     51 O1P       132.9680   28.9970   12.5540 O.co2     1 FAD300      0.0000 
     52 O2P       131.1990   29.0430   10.9800 O.co2     1 FAD300      0.0000 
     53 O3P       130.6010   29.9520   13.0260 O.3       1 FAD300      0.0000 
     54 H         128.6755   31.6018   13.4338 H         1 FAD300      0.0000 
     55 H         129.1613   32.4512   14.9111 H         1 FAD300      0.0000 
     56 H         126.7310   32.6064   14.7293 H         1 FAD300      0.0000 
     57 H         127.3218   30.2976   16.5755 H         1 FAD300      0.0000 
     58 H         125.1157   30.1805   17.0556 H         1 FAD300      0.0000 
     59 H         124.4515   30.3141   14.3650 H         1 FAD300      0.0000 
     60 H         127.8215   28.3400   14.9447 H         1 FAD300      0.0000 
     61 H         124.4114   23.5041   13.4595 H         1 FAD300      0.0000 
     62 H         126.0545   24.1021   13.8694 H         1 FAD300      0.0000 
     63 H         121.6154   27.0465   13.8244 H         1 FAD300      0.0000 
     64 H         126.8269   20.1373   11.5255 H         1 FAD300      0.0000 
     65 H         128.7040   18.6065   18.1843 H         1 FAD300      0.0000 
     66 H         129.0446   23.5189   18.2895 H         1 FAD300      0.0000 
     67 H         128.6837   24.4398   16.6835 H         1 FAD300      0.0000 
     68 H         127.9259   24.5159   15.0835 H         1 FAD300      0.0000 
     69 H         130.0789   23.4495   14.1988 H         1 FAD300      0.0000 
     70 H         131.4383   25.6193   14.5231 H         1 FAD300      0.0000 
     71 H         128.7581   25.3615   13.1683 H         1 FAD300      0.0000 
     72 H         129.2500   27.6876   13.3195 H         1 FAD300      0.0000 
     73 H         129.5182   27.2224   11.6308 H         1 FAD300      0.0000 
     74 H         130.1387   18.7726   20.4810 H         1 FAD300      0.0000 
     75 H         129.6307   19.9630   21.4355 H         1 FAD300      0.0000 
     76 H         128.5849   18.8733   20.8831 H         1 FAD300      0.0000 
     77 H         130.5019   22.2781   21.0355 H         1 FAD300      0.0000 
     78 H         129.6129   23.5163   20.5227 H         1 FAD300      0.0000 
     79 H         128.9474   22.3725   21.4365 H         1 FAD300      0.0000 
     80 H         126.2019   32.3771   17.8393 H         1 FAD300      0.0000 
     81 H         124.1111   32.0394   17.1900 H         1 FAD300      0.0000 
     82 H         131.1143   22.7540   15.8824 H         1 FAD300      0.0000 
     83 H         130.3053   27.3265   15.2770 H         1 FAD300      0.0000 
     84 H         129.8371   24.3098   11.7438 H         1 FAD300      0.0000 
@<TRIPOS>BOND
     1    2    1 ar   
     2    3    1 ar   
     3    4    1 1    
     4   53    1 1    
     5    5    4 1    
     6    6    5 1    
     7   54    5 1    
     8   55    5 1    
     9    7    6 1    
    10    8    6 1    
    11   56    6 1    
    12   12    7 1    
    13    9    8 1    
    14   10    8 1    
    15   57    8 1    
    16   80    9 1    
    17   11   10 1    
    18   12   10 1    
    19   58   10 1    
    20   81   11 1    
    21   13   12 1    
    22   59   12 1    
    23   14   13 1    
    24   22   13 1    
    25   15   14 2    
    26   60   14 1    
    27   16   15 1    
    28   17   16 ar   
    29   22   16 ar   
    30   18   17 1    
    31   19   17 ar   
    32   61   18 1    
    33   62   18 1    
    34   20   19 ar   
    35   21   20 ar   
    36   63   20 1    
    37   22   21 ar   
    38   24   23 1    
    39   40   23 2    
    40   25   24 2    
    41   26   24 am   
    42   27   26 am   
    43   64   26 1    
    44   28   27 2    
    45   29   27 1    
    46   30   29 2    
    47   40   29 1    
    48   31   30 1    
    49   32   31 ar   
    50   38   31 ar   
    51   33   32 ar   
    52   65   32 1    
    53   34   33 1    
    54   35   33 ar   
    55   74   34 1    
    56   75   34 1    
    57   76   34 1    
    58   36   35 1    
    59   37   35 ar   
    60   77   36 1    
    61   78   36 1    
    62   79   36 1    
    63   38   37 ar   
    64   66   37 1    
    65   39   38 1    
    66   40   39 1    
    67   41   39 1    
    68   42   41 1    
    69   67   41 1    
    70   68   41 1    
    71   43   42 1    
    72   44   42 1    
    73   69   42 1    
    74   82   43 1    
    75   45   44 1    
    76   46   44 1    
    77   70   44 1    
    78   83   45 1    
    79   47   46 1    
    80   48   46 1    
    81   71   46 1    
    82   84   47 1    
    83   49   48 1    
    84   72   48 1    
    85   73   48 1    
    86   50   49 1    
    87   51   50 ar   
    88   52   50 ar   
    89   53   50 1    
@<TRIPOS>SUBSTRUCTURE
     1 FAD300      1 GROUP   
@<TRIPOS>SET

