#    Name: 1b5t_FAD_2_INTS_M
#    Modification time : Mon Mar 24 19:24:19 2014

@<TRIPOS>MOLECULE
1b5t_FAD_2_INTS_M
   93     0    12     0     0
SMALL
NO_CHARGES


@<TRIPOS>ATOM
      1 NZ          7.5580   47.0015   30.5075 N.4       3 LYC4        0.0000 
      2 NZ          7.7560   45.9020   31.4050 N.4      11 LYL4        0.0000 
      3 NZ          7.3600   48.1010   29.6100 N.4       7 LYP4        0.0000 
      4 N           6.5590   45.2675   31.0060 N.am      2 SEC2        0.0000 
      5 N           7.7560   45.9020   31.4050 N.am     10 SEL2        0.0000 
      6 N           5.3620   44.6330   30.6070 N.am      6 SEP2        0.0000 
      7 N           7.5580   47.0015   30.5075 N.am      2 SEC2        0.0000 
      8 N           7.3600   48.1010   29.6100 N.am      6 SEP2        0.0000 
      9 N           8.1215   46.3200   34.7960 N.am      2 SEC2        0.0000 
     10 N           8.2250   45.2110   33.7620 N.am     10 SEL2        0.0000 
     11 N           8.0180   47.4290   35.8300 N.am      6 SEP2        0.0000 
     12 CA         10.7405   42.1820   30.5610 C.3       4 GLC5        0.0000 
     13 CA          9.5460   42.6780   32.3360 C.3      12 GLL5        0.0000 
     14 CA         11.9350   41.6860   28.7860 C.3       8 GLP5        0.0000 
     15 O           9.7305   39.7320   30.2455 O.2       1 ALC1        0.0000 
     16 O           8.4120   39.5470   30.7860 O.2       9 ALL1        0.0000 
     17 O          11.0490   39.9170   29.7050 O.2       5 ALP1        0.0000 
     18 CA          4.9540   42.3840   30.9485 C.3       4 GLC5        0.0000 
     19 CA          6.7260   41.1760   31.3860 C.3      12 GLL5        0.0000 
     20 CA          3.1820   43.5920   30.5110 C.3       8 GLP5        0.0000 
     21 O           6.1300   40.8825   29.1655 O.2       1 ALC1        0.0000 
     22 O           5.8340   40.4010   30.5730 O.2       9 ALL1        0.0000 
     23 O           6.4260   41.3640   27.7580 O.2       5 ALP1        0.0000 
     24 CA          7.3290   41.0305   34.9045 C.3       4 GLC5        0.0000 
     25 CA          6.7700   40.6520   32.8030 C.3      12 GLL5        0.0000 
     26 CA          7.8880   41.4090   37.0060 C.3       8 GLP5        0.0000 
     27 N          18.2305   46.7240   33.4800 N.am      2 SEC2        0.0000 
     28 N          18.9360   48.2210   33.0010 N.am     10 SEL2        0.0000 
     29 N          17.5250   45.2270   33.9590 N.am      6 SEP2        0.0000 
     30 O          19.4840   50.7740   32.8025 O.2       1 ALC1        0.0000 
     31 O          18.7690   50.0970   31.7230 O.2       9 ALL1        0.0000 
     32 O          20.1990   51.4510   33.8820 O.2       5 ALP1        0.0000 
     33 N          19.7505   52.8870   31.2920 N.am      2 SEC2        0.0000 
     34 N          18.6710   52.0180   30.5950 N.am     10 SEL2        0.0000 
     35 N          20.8300   53.7560   31.9890 N.am      6 SEP2        0.0000 
     36 N          18.1275   52.9705   29.7070 N.am      2 SEC2        0.0000 
     37 N          17.5840   53.9230   28.8190 N.am      6 SEP2        0.0000 
     38 N          17.3520   52.3865   28.7285 N.am      2 SEC2        0.0000 
     39 N          17.1200   50.8500   28.6380 N.am     10 SEL2        0.0000 
     40 CA         15.6305   51.0040   29.2635 C.3       4 GLC5        0.0000 
     41 CA         16.2450   50.1550   27.8640 C.3      12 GLL5        0.0000 
     42 CA         15.0160   51.8530   30.6630 C.3       8 GLP5        0.0000 
     43 CA         13.3530   52.1570   23.4250 C.3       4 GLC5        0.0000 
     44 CA         14.1140   51.2850   24.9880 C.3      12 GLL5        0.0000 
     45 CA         12.5920   53.0290   21.8620 C.3       8 GLP5        0.0000 
     46 CA         12.3750   48.3420   26.1220 C.3       4 GLC5        0.0000 
     47 CA         13.6620   48.2220   25.0230 C.3      12 GLL5        0.0000 
     48 CA         11.0880   48.4620   27.2210 C.3       8 GLP5        0.0000 
     49 CA         12.9920   46.1965   25.4550 C.3       4 GLC5        0.0000 
     50 CA         12.3220   44.1710   25.8870 C.3       8 GLP5        0.0000 
     51 CA         13.6990   47.4070   23.2515 C.3       4 GLC5        0.0000 
     52 CA         13.7360   46.5920   21.4800 C.3       8 GLP5        0.0000 
     53 CA         15.5620   46.5940   32.4000 C.3       4 GLC5        0.0000 
     54 CA         15.1920   46.2740   30.2280 C.3      12 GLL5        0.0000 
     55 CA         15.9320   46.9140   34.5720 C.3       8 GLP5        0.0000 
     56 N          14.9570   46.9590   32.9760 N.am      2 SEC2        0.0000 
     57 N          15.4120   46.8540   31.5220 N.am     10 SEL2        0.0000 
     58 N          14.5020   47.0640   34.4300 N.am      6 SEP2        0.0000 
     59 O          13.4160   44.8025   28.5620 O.2       1 ALC1        0.0000 
     60 O          14.5690   44.2260   29.1780 O.2       9 ALL1        0.0000 
     61 O          12.2630   45.3790   27.9460 O.2       5 ALP1        0.0000 
     62 CA         15.0960   45.5610   33.0585 C.3       4 GLC5        0.0000 
     63 CA         14.2600   44.2080   31.5450 C.3      12 GLL5        0.0000 
     64 CA         16.1560   44.0420   32.6815 C.3       4 GLC5        0.0000 
     65 CA         18.0520   43.8760   33.8180 C.3       8 GLP5        0.0000 
     66 N          13.5135   42.0840   30.7405 N.am      2 SEC2        0.0000 
     67 N          14.4340   42.7890   31.5300 N.am     10 SEL2        0.0000 
     68 N          12.5930   41.3790   29.9510 N.am      6 SEP2        0.0000 
     69 CA         12.2020   45.3285   33.1250 C.3       4 GLC5        0.0000 
     70 CA         12.7530   44.4850   31.3990 C.3      12 GLL5        0.0000 
     71 CA         11.6510   46.1720   34.8510 C.3       8 GLP5        0.0000 
     72 N          11.6245   48.1270   32.7695 N.am      2 SEC2        0.0000 
     73 N          11.0600   47.8270   31.4600 N.am     10 SEL2        0.0000 
     74 N          12.1890   48.4270   34.0790 N.am      6 SEP2        0.0000 
     75 NZ          8.9800   47.0170   29.7050 N.4       3 LYC4        0.0000 
     76 NZ         10.6000   45.9330   29.8000 N.4      11 LYL4        0.0000 
     77 N          11.4315   45.6560   28.8730 N.am      2 SEC2        0.0000 
     78 N          10.6000   45.9330   29.8000 N.am     10 SEL2        0.0000 
     79 N          12.2630   45.3790   27.9460 N.am      6 SEP2        0.0000 
     80 CA          9.7510   40.9400   30.1232 C.3       4 GLC5        0.0000 
     81 CA          8.9340   41.2880   32.2680 C.3      12 GLL5        0.0000 
     82 CA         10.9590   40.7640   28.6190 C.3       8 GLP5        0.0000 
     83 CA          7.0640   39.3410   29.9082 C.3       4 GLC5        0.0000 
     84 CA          8.1520   40.9440   30.9870 C.3      12 GLL5        0.0000 
     85 CA          6.6890   37.6220   28.6300 C.3       8 GLP5        0.0000 
     86 CA         14.2065   50.5355   28.0312 C.3       4 GLC5        0.0000 
     87 CA         14.8060   50.3600   25.9660 C.3      12 GLL5        0.0000 
     88 CA         13.1740   50.4370   29.6590 C.3       8 GLP5        0.0000 
     89 CA         12.9531   48.7086   26.8813 C.3       4 GLC5        0.0000 
     90 CA         15.0010   48.2450   27.0660 C.3      12 GLL5        0.0000 
     91 CA         14.2435   49.5737   28.4660 C.3       4 GLC5        0.0000 
     92 CA         14.4650   48.9710   26.0680 C.3      12 GLL5        0.0000 
     93 CA         12.7208   43.0162   30.1290 C.3       4 GLC5        0.0000 
@<TRIPOS>BOND
@<TRIPOS>SUBSTRUCTURE
     1 ALC1       15 GROUP        1 X    ALC  0     ROOT ALC X 1
     2 SEC2        4 GROUP        1 X    SEC  0     **** SEC X 2
     3 LYC4        1 GROUP        1 X    LYC  0     **** LYC X 4
     4 GLC5       12 GROUP        1 X    GLC  0     **** GLC X 6
     5 ALP1       17 GROUP        1 Y    ALP  0     ROOT ALP Y 8
     6 SEP2        6 GROUP        1 Y    SEP  0     **** SEP Y 9
     7 LYP4        3 GROUP        1 Y    LYP  0     **** LYP Y 11
     8 GLP5       14 GROUP        1 Y    GLP  0     **** GLP Y 13
     9 ALL1       16 GROUP        1 Z    ALL  0     ROOT ALL Z 15
    10 SEL2        5 GROUP        1 Z    SEL  0     **** SEL Z 16
    11 LYL4        2 GROUP        1 Z    LYL  0     **** LYL Z 18
    12 GLL5       13 GROUP        1 Z    GLL  0     **** GLL Z 20
@<TRIPOS>SET

