#    Name: 1b5t_FAD_2_ligand
#    Modification time : Mon Mar 24 19:24:19 2014

@<TRIPOS>MOLECULE
1b5t_FAD_2_ligand
   84    89     1     0     0
SMALL
NO_CHARGES


@<TRIPOS>ATOM
      1 PA          8.6160   45.1570   32.3400 P.3       1 FAD396      0.0000 
      2 O1A         7.7560   45.9020   31.4050 O.co2     1 FAD396      0.0000 
      3 O2A         8.2250   45.2110   33.7620 O.co2     1 FAD396      0.0000 
      4 O5B         8.6260   43.6380   31.8840 O.3       1 FAD396      0.0000 
      5 C5B         9.5460   42.6780   32.3360 C.3       1 FAD396      0.0000 
      6 C4B         8.9340   41.2880   32.2680 C.3       1 FAD396      0.0000 
      7 O4B         8.0190   41.0120   33.3180 O.3       1 FAD396      0.0000 
      8 C3B         8.1520   40.9440   30.9870 C.3       1 FAD396      0.0000 
      9 O3B         8.4120   39.5470   30.7860 O.3       1 FAD396      0.0000 
     10 C2B         6.7260   41.1760   31.3860 C.3       1 FAD396      0.0000 
     11 O2B         5.8340   40.4010   30.5730 O.3       1 FAD396      0.0000 
     12 C1B         6.7700   40.6520   32.8030 C.3       1 FAD396      0.0000 
     13 N9A         5.7790   41.1660   33.7160 N.pl3     1 FAD396      0.0000 
     14 C8A         5.2520   42.4100   33.8600 C.2       1 FAD396      0.0000 
     15 N7A         4.3650   42.5200   34.8090 N.2       1 FAD396      0.0000 
     16 C5A         4.3120   41.2400   35.3330 C.ar      1 FAD396      0.0000 
     17 C6A         3.5730   40.6740   36.3920 C.ar      1 FAD396      0.0000 
     18 N6A         2.7200   41.3810   37.1500 N.pl3     1 FAD396      0.0000 
     19 N1A         3.7830   39.3650   36.6500 N.ar      1 FAD396      0.0000 
     20 C2A         4.6580   38.6660   35.9210 C.ar      1 FAD396      0.0000 
     21 N3A         5.4070   39.0890   34.9100 N.ar      1 FAD396      0.0000 
     22 C4A         5.1730   40.4110   34.6690 C.ar      1 FAD396      0.0000 
     23 N1         17.7920   48.1330   31.0630 N.2       1 FAD396      0.0000 
     24 C2         18.5160   48.7800   31.9860 C.2       1 FAD396      0.0000 
     25 O2         18.9360   48.2210   33.0010 O.2       1 FAD396      0.0000 
     26 N3         18.7690   50.0970   31.7230 N.am      1 FAD396      0.0000 
     27 C4         18.3750   50.8260   30.6290 C.2       1 FAD396      0.0000 
     28 O4         18.6710   52.0180   30.5950 O.2       1 FAD396      0.0000 
     29 C4X        17.6070   50.1030   29.6670 C.2       1 FAD396      0.0000 
     30 N5         17.1200   50.8500   28.6380 N.2       1 FAD396      0.0000 
     31 C5X        16.2450   50.1550   27.8640 C.ar      1 FAD396      0.0000 
     32 C6         15.6720   50.9080   26.8410 C.ar      1 FAD396      0.0000 
     33 C7         14.8060   50.3600   25.9660 C.ar      1 FAD396      0.0000 
     34 C7M        14.1140   51.2850   24.9880 C.3       1 FAD396      0.0000 
     35 C8         14.4650   48.9710   26.0680 C.ar      1 FAD396      0.0000 
     36 C8M        13.6620   48.2220   25.0230 C.3       1 FAD396      0.0000 
     37 C9         15.0010   48.2450   27.0660 C.ar      1 FAD396      0.0000 
     38 C9A        15.8930   48.8130   27.9790 C.ar      1 FAD396      0.0000 
     39 N10        16.4810   48.0850   29.0320 N.pl3     1 FAD396      0.0000 
     40 C10        17.3530   48.7800   29.9470 C.2       1 FAD396      0.0000 
     41 C1'        16.2410   46.6470   29.1570 C.3       1 FAD396      0.0000 
     42 C2'        15.1920   46.2740   30.2280 C.3       1 FAD396      0.0000 
     43 O2'        15.4120   46.8540   31.5220 O.3       1 FAD396      0.0000 
     44 C3'        15.1050   44.7570   30.3910 C.3       1 FAD396      0.0000 
     45 O3'        14.5690   44.2260   29.1780 O.3       1 FAD396      0.0000 
     46 C4'        14.2600   44.2080   31.5450 C.3       1 FAD396      0.0000 
     47 O4'        14.4340   42.7890   31.5300 O.3       1 FAD396      0.0000 
     48 C5'        12.7530   44.4850   31.3990 C.3       1 FAD396      0.0000 
     49 O5'        12.4400   45.8620   31.4510 O.3       1 FAD396      0.0000 
     50 P          10.9960   46.3800   31.1370 P.3       1 FAD396      0.0000 
     51 O1P        11.0600   47.8270   31.4600 O.co2     1 FAD396      0.0000 
     52 O2P        10.6000   45.9330   29.8000 O.co2     1 FAD396      0.0000 
     53 O3P        10.1830   45.5880   32.2730 O.3       1 FAD396      0.0000 
     54 H           9.8519   42.8545   33.3801 H         1 FAD396      0.0000 
     55 H          10.4657   42.6651   31.7286 H         1 FAD396      0.0000 
     56 H           9.7568   40.5391   32.3211 H         1 FAD396      0.0000 
     57 H           8.4543   41.5584   30.2335 H         1 FAD396      0.0000 
     58 H           6.5336   42.1995   31.4065 H         1 FAD396      0.0000 
     59 H           6.7095   39.5604   32.7574 H         1 FAD396      0.0000 
     60 H           5.5444   43.1743   33.2620 H         1 FAD396      0.0000 
     61 H           2.2467   40.8735   37.8700 H         1 FAD396      0.0000 
     62 H           2.6341   42.3520   36.9270 H         1 FAD396      0.0000 
     63 H           4.7697   37.6030   36.1969 H         1 FAD396      0.0000 
     64 H          19.3531   50.6343   32.4697 H         1 FAD396      0.0000 
     65 H          15.9322   51.9174   26.7677 H         1 FAD396      0.0000 
     66 H          14.7598   47.2356   27.1795 H         1 FAD396      0.0000 
     67 H          17.1793   46.1141   29.4108 H         1 FAD396      0.0000 
     68 H          15.8971   46.2222   28.1926 H         1 FAD396      0.0000 
     69 H          14.2049   46.5923   29.8388 H         1 FAD396      0.0000 
     70 H          16.1289   44.3704   30.5107 H         1 FAD396      0.0000 
     71 H          14.6073   44.6216   32.4637 H         1 FAD396      0.0000 
     72 H          12.2405   43.9130   32.2007 H         1 FAD396      0.0000 
     73 H          12.4310   44.0227   30.4424 H         1 FAD396      0.0000 
     74 H          14.7685   51.7632   24.4024 H         1 FAD396      0.0000 
     75 H          13.4897   50.7882   24.3851 H         1 FAD396      0.0000 
     76 H          13.5744   51.9844   25.4566 H         1 FAD396      0.0000 
     77 H          14.1149   48.2287   24.1314 H         1 FAD396      0.0000 
     78 H          13.5260   47.2640   25.2754 H         1 FAD396      0.0000 
     79 H          12.7549   48.6227   24.8940 H         1 FAD396      0.0000 
     80 H           9.3742   39.4989   30.5180 H         1 FAD396      0.0000 
     81 H           6.0358   40.6761   29.6330 H         1 FAD396      0.0000 
     82 H          16.3758   47.1204   31.5256 H         1 FAD396      0.0000 
     83 H          13.7800   44.8038   28.9691 H         1 FAD396      0.0000 
     84 H          15.4103   42.6498   31.3643 H         1 FAD396      0.0000 
@<TRIPOS>BOND
     1    2    1 ar   
     2    3    1 ar   
     3    4    1 1    
     4   53    1 1    
     5    5    4 1    
     6    6    5 1    
     7   54    5 1    
     8   55    5 1    
     9    7    6 1    
    10    8    6 1    
    11   56    6 1    
    12   12    7 1    
    13    9    8 1    
    14   10    8 1    
    15   57    8 1    
    16   80    9 1    
    17   11   10 1    
    18   12   10 1    
    19   58   10 1    
    20   81   11 1    
    21   13   12 1    
    22   59   12 1    
    23   14   13 1    
    24   22   13 1    
    25   15   14 2    
    26   60   14 1    
    27   16   15 1    
    28   17   16 ar   
    29   22   16 ar   
    30   18   17 1    
    31   19   17 ar   
    32   61   18 1    
    33   62   18 1    
    34   20   19 ar   
    35   21   20 ar   
    36   63   20 1    
    37   22   21 ar   
    38   24   23 1    
    39   40   23 2    
    40   25   24 2    
    41   26   24 am   
    42   27   26 am   
    43   64   26 1    
    44   28   27 2    
    45   29   27 1    
    46   30   29 2    
    47   40   29 1    
    48   31   30 1    
    49   32   31 ar   
    50   38   31 ar   
    51   33   32 ar   
    52   65   32 1    
    53   34   33 1    
    54   35   33 ar   
    55   74   34 1    
    56   75   34 1    
    57   76   34 1    
    58   36   35 1    
    59   37   35 ar   
    60   77   36 1    
    61   78   36 1    
    62   79   36 1    
    63   38   37 ar   
    64   66   37 1    
    65   39   38 1    
    66   40   39 1    
    67   41   39 1    
    68   42   41 1    
    69   67   41 1    
    70   68   41 1    
    71   43   42 1    
    72   44   42 1    
    73   69   42 1    
    74   82   43 1    
    75   45   44 1    
    76   46   44 1    
    77   70   44 1    
    78   83   45 1    
    79   47   46 1    
    80   48   46 1    
    81   71   46 1    
    82   84   47 1    
    83   49   48 1    
    84   72   48 1    
    85   73   48 1    
    86   50   49 1    
    87   51   50 ar   
    88   52   50 ar   
    89   53   50 1    
@<TRIPOS>SUBSTRUCTURE
     1 FAD396      1 GROUP   
@<TRIPOS>SET

