#    Name: 1hk1_T44_3_INTS_M
#    Modification time : Tue Mar 25 05:32:52 2014

@<TRIPOS>MOLECULE
1hk1_T44_3_INTS_M
   62     0     6     0     0
SMALL
NO_CHARGES


@<TRIPOS>ATOM
      1 CA         31.4790   11.1225   29.7645 C.3       2 GLC5        0.0000 
      2 CA         29.3110   10.8530   30.1020 C.3       6 GLL5        0.0000 
      3 CA         33.6470   11.3920   29.4270 C.3       4 GLP5        0.0000 
      4 CA         30.4645   10.1880   26.5895 C.3       2 GLC5        0.0000 
      5 CA         29.1450    9.4970   27.9490 C.3       6 GLL5        0.0000 
      6 CA         31.7840   10.8790   25.2300 C.3       4 GLP5        0.0000 
      7 CA         25.5845   16.2805   33.4190 C.3       2 GLC5        0.0000 
      8 CA         24.3050   14.8220   33.0280 C.3       6 GLL5        0.0000 
      9 CA         26.8640   17.7390   33.8100 C.3       4 GLP5        0.0000 
     10 O          29.3185    6.9765   30.1605 O.2       1 ALC1        0.0000 
     11 O          30.0570    7.4240   28.9130 O.2       5 ALL1        0.0000 
     12 O          28.5800    6.5290   31.4080 O.2       3 ALP1        0.0000 
     13 O          31.1180    8.2685   29.0470 O.2       1 ALC1        0.0000 
     14 O          32.1790    9.1130   29.1810 O.2       3 ALP1        0.0000 
     15 CA         23.7500   10.8700   30.2590 C.3       2 GLC5        0.0000 
     16 CA         24.7130    9.5870   31.3370 C.3       6 GLL5        0.0000 
     17 CA         22.7870   12.1530   29.1810 C.3       4 GLP5        0.0000 
     18 CA         22.8935    8.4935   31.1680 C.3       2 GLC5        0.0000 
     19 CA         21.0740    7.4000   30.9990 C.3       4 GLP5        0.0000 
     20 CA         23.6550    9.9335   33.2135 C.3       2 GLC5        0.0000 
     21 CA         22.5970   10.2800   35.0900 C.3       4 GLP5        0.0000 
     22 CA         26.5070   15.1500   29.3180 C.3       2 GLC5        0.0000 
     23 CA         24.8890   15.7200   30.1670 C.3       6 GLL5        0.0000 
     24 CA         28.1250   14.5800   28.4690 C.3       4 GLP5        0.0000 
     25 CA         23.8380   13.9365   29.6740 C.3       2 GLC5        0.0000 
     26 CA         26.7195   16.2630   31.2135 C.3       2 GLC5        0.0000 
     27 CA         28.5500   16.8060   32.2600 C.3       4 GLP5        0.0000 
     28 CA         29.9535   10.6880   33.4625 C.3       2 GLC5        0.0000 
     29 CA         29.8180   12.5790   32.5460 C.3       6 GLL5        0.0000 
     30 CA         30.0890    8.7970   34.3790 C.3       4 GLP5        0.0000 
     31 CA         29.3525   13.5085   31.1615 C.3       2 GLC5        0.0000 
     32 CA         28.8870   14.4380   29.7770 C.3       4 GLP5        0.0000 
     33 CA         28.9480   12.7330   34.4130 C.3       2 GLC5        0.0000 
     34 CA         28.0780   12.8870   36.2800 C.3       4 GLP5        0.0000 
     35 CA         29.1840   14.6925   32.4030 C.3       2 GLC5        0.0000 
     36 CA         30.9590   14.0230   32.6565 C.3       2 GLC5        0.0000 
     37 CA         32.1000   15.4670   32.7670 C.3       4 GLP5        0.0000 
     38 CA         21.6025   14.3925   35.0890 C.3       2 GLC5        0.0000 
     39 CA         23.5060   14.1670   35.9100 C.3       6 GLL5        0.0000 
     40 CA         19.6990   14.6180   34.2680 C.3       4 GLP5        0.0000 
     41 CA         23.0515   12.2235   35.5000 C.3       2 GLC5        0.0000 
     42 CA         21.9815   13.3125   37.1265 C.3       2 GLC5        0.0000 
     43 CA         20.4570   12.4580   38.3430 C.3       4 GLP5        0.0000 
     44 CA         25.3340   13.8975   36.4635 C.3       2 GLC5        0.0000 
     45 CA         27.1620   13.6280   37.0170 C.3       4 GLP5        0.0000 
     46 CA         24.1145   16.0785   36.4095 C.3       2 GLC5        0.0000 
     47 CA         24.7230   17.9900   36.9090 C.3       4 GLP5        0.0000 
     48 CA         28.9132   12.4360   29.7228 C.3       2 GLC5        0.0000 
     49 CA         25.6148   10.4275   28.8345 C.3       2 GLC5        0.0000 
     50 CA         27.2500    9.6560   29.5970 C.3       6 GLL5        0.0000 
     51 CA         24.2720   10.9710   27.4710 C.3       4 GLP5        0.0000 
     52 CA         28.4765   12.7830   30.6283 C.3       2 GLC5        0.0000 
     53 CA         28.7060   11.3030   31.2960 C.3       6 GLL5        0.0000 
     54 CA         29.4402    9.5512   31.9014 C.3       2 GLC5        0.0000 
     55 CA         30.1920    8.1120   33.0120 C.3       4 GLP5        0.0000 
     56 CA         27.1898   14.1867   30.7863 C.3       2 GLC5        0.0000 
     57 CA         25.9120   13.3840   31.7510 C.3       6 GLL5        0.0000 
     58 CA         24.1397   13.0442   30.4883 C.3       2 GLC5        0.0000 
     59 CA         27.0213   15.3708   32.0277 C.3       2 GLC5        0.0000 
     60 CA         25.0730   14.4870   31.8400 C.3       6 GLL5        0.0000 
     61 CA         23.7587   11.8133   34.5830 C.3       2 GLC5        0.0000 
     62 CA         24.5040   13.9050   34.1060 C.3       6 GLL5        0.0000 
@<TRIPOS>BOND
@<TRIPOS>SUBSTRUCTURE
     1 ALC1       10 GROUP        1 X    ALC  0     ROOT ALC X 1
     2 GLC5        1 GROUP        1 X    GLC  0     **** GLC X 6
     3 ALP1       12 GROUP        1 Y    ALP  0     ROOT ALP Y 8
     4 GLP5        3 GROUP        1 Y    GLP  0     **** GLP Y 13
     5 ALL1       11 GROUP        1 Z    ALL  0     ROOT ALL Z 15
     6 GLL5        2 GROUP        1 Z    GLL  0     **** GLL Z 20
@<TRIPOS>SET

