#    Name: 1hk1_T44_3_ligand
#    Modification time : Tue Mar 25 05:32:52 2014

@<TRIPOS>MOLECULE
1hk1_T44_3_ligand
   35    36     1     0     0
SMALL
NO_CHARGES


@<TRIPOS>ATOM
      1 C1         28.5680   10.0150   29.2350 C.ar      1 T443003     0.0000 
      2 C2         27.2500    9.6560   29.5970 C.ar      1 T443003     0.0000 
      3 C3         26.6650   10.1120   30.7990 C.ar      1 T443003     0.0000 
      4 C4         27.4260   10.9530   31.6630 C.ar      1 T443003     0.0000 
      5 C5         28.7060   11.3030   31.2960 C.ar      1 T443003     0.0000 
      6 C6         29.3110   10.8530   30.1020 C.ar      1 T443003     0.0000 
      7 C7         29.1450    9.4970   27.9490 C.3       1 T443003     0.0000 
      8 C8         29.1920    7.9880   27.8090 C.3       1 T443003     0.0000 
      9 C9         29.7580    7.5300   26.4530 C.2       1 T443003     0.0000 
     10 C1'        26.0290   12.5380   32.8870 C.ar      1 T443003     0.0000 
     11 C2'        25.9120   13.3840   31.7510 C.ar      1 T443003     0.0000 
     12 C3'        25.0730   14.4870   31.8400 C.ar      1 T443003     0.0000 
     13 C4'        24.3050   14.8220   33.0280 C.ar      1 T443003     0.0000 
     14 C5'        24.5040   13.9050   34.1060 C.ar      1 T443003     0.0000 
     15 C6'        25.3370   12.7880   34.0460 C.ar      1 T443003     0.0000 
     16 N8         30.0570    7.4240   28.9130 N.4       1 T443003     0.0000 
     17 O4         26.8630   11.4080   32.8280 O.3       1 T443003     0.0000 
     18 O4'        23.5300   15.8630   33.0570 O.3       1 T443003     0.0000 
     19 O9         30.9920    7.3960   26.3590 O.co2     1 T443003     0.0000 
     20 O10        28.9380    7.3650   25.5390 O.co2     1 T443003     0.0000 
     21 I3         24.7130    9.5870   31.3370 I         1 T443003     0.0000 
     22 I3'        24.8890   15.7200   30.1670 I         1 T443003     0.0000 
     23 I5         29.8180   12.5790   32.5460 I         1 T443003     0.0000 
     24 I5'        23.5060   14.1670   35.9100 I         1 T443003     0.0000 
     25 H          26.7031    9.0472   28.9691 H         1 T443003     0.0000 
     26 H          30.2576   11.1232   29.8685 H         1 T443003     0.0000 
     27 H          30.1780    9.8965   27.8256 H         1 T443003     0.0000 
     28 H          28.5640    9.9141   27.0944 H         1 T443003     0.0000 
     29 H          28.1963    7.5876   27.9198 H         1 T443003     0.0000 
     30 H          26.4309   13.1759   30.9095 H         1 T443003     0.0000 
     31 H          25.4240   12.1714   34.8576 H         1 T443003     0.0000 
     32 H          29.6960    7.6473   29.8185 H         1 T443003     0.0000 
     33 H          30.1224    6.4275   28.8611 H         1 T443003     0.0000 
     34 H          30.9901    7.7814   28.8731 H         1 T443003     0.0000 
     35 H          24.1074   16.4404   33.6344 H         1 T443003     0.0000 
@<TRIPOS>BOND
     1    2    1 ar   
     2    6    1 ar   
     3    7    1 1    
     4    3    2 ar   
     5   25    2 1    
     6    4    3 ar   
     7   21    3 1    
     8    5    4 ar   
     9   17    4 1    
    10    6    5 ar   
    11   23    5 1    
    12   26    6 1    
    13    8    7 1    
    14   27    7 1    
    15   28    7 1    
    16    9    8 1    
    17   16    8 1    
    18   29    8 1    
    19   19    9 ar   
    20   20    9 ar   
    21   11   10 ar   
    22   15   10 ar   
    23   17   10 1    
    24   12   11 ar   
    25   30   11 1    
    26   13   12 ar   
    27   22   12 1    
    28   14   13 ar   
    29   18   13 1    
    30   15   14 ar   
    31   24   14 1    
    32   31   15 1    
    33   32   16 1    
    34   33   16 1    
    35   34   16 1    
    36   35   18 1    
@<TRIPOS>SUBSTRUCTURE
     1 T443003     1 GROUP   
@<TRIPOS>SET

