#    Name: 4axd_ANP_1_INTS_M
#    Modification time : Tue Mar 25 06:21:39 2014

@<TRIPOS>MOLECULE
4axd_ANP_1_INTS_M
   69     0    12     0     0
SMALL
NO_CHARGES


@<TRIPOS>ATOM
      1 N         -22.3475   -2.3220  -24.8265 N.am      2 SEC2        0.0000 
      2 N         -22.9750   -1.1740  -25.0720 N.am     10 SEL2        0.0000 
      3 N         -21.7200   -3.4700  -24.5810 N.am      6 SEP2        0.0000 
      4 N         -22.9760    2.3240  -25.3445 N.am      2 SEC2        0.0000 
      5 N         -22.8920    1.2880  -26.0730 N.am     10 SEL2        0.0000 
      6 N         -23.0600    3.3600  -24.6160 N.am      6 SEP2        0.0000 
      7 N         -19.4610   -2.1095  -23.8460 N.am      2 SEC2        0.0000 
      8 N         -20.0660   -1.2330  -22.9660 N.am     10 SEL2        0.0000 
      9 N         -18.8560   -2.9860  -24.7260 N.am      6 SEP2        0.0000 
     10 N         -18.9000   -1.8660  -22.5655 N.am      2 SEC2        0.0000 
     11 N         -17.7340   -2.4990  -22.1650 N.am      6 SEP2        0.0000 
     12 NZ        -18.1860    2.2160  -21.9095 N.4       3 LYC4        0.0000 
     13 NZ        -18.9790    1.0110  -22.8290 N.4      11 LYL4        0.0000 
     14 NZ        -17.3930    3.4210  -20.9900 N.4       7 LYP4        0.0000 
     15 N         -17.6830    0.7775  -22.5370 N.am      2 SEC2        0.0000 
     16 N         -18.9790    1.0110  -22.8290 N.am     10 SEL2        0.0000 
     17 N         -16.3870    0.5440  -22.2450 N.am      6 SEP2        0.0000 
     18 NZ        -19.4690    3.0755  -21.3460 N.4       3 LYC4        0.0000 
     19 NZ        -20.6550    2.8250  -20.7300 N.4      11 LYL4        0.0000 
     20 N         -19.2095    3.0210  -20.2320 N.am      2 SEC2        0.0000 
     21 N         -20.6550    2.8250  -20.7300 N.am     10 SEL2        0.0000 
     22 N         -17.7640    3.2170  -19.7340 N.am      6 SEP2        0.0000 
     23 N         -19.4690    3.0755  -21.3460 N.am      2 SEC2        0.0000 
     24 N         -18.2830    3.3260  -21.9620 N.am      6 SEP2        0.0000 
     25 O         -26.6825    2.5095  -19.2285 O.2       1 ALC1        0.0000 
     26 O         -25.9100    1.5020  -19.1410 O.2       9 ALL1        0.0000 
     27 O         -27.4550    3.5170  -19.3160 O.2       5 ALP1        0.0000 
     28 O         -27.1480    2.8360  -16.8215 O.2       1 ALC1        0.0000 
     29 O         -26.2320    2.0190  -16.4280 O.2       9 ALL1        0.0000 
     30 O         -28.0640    3.6530  -17.2150 O.2       5 ALP1        0.0000 
     31 O         -26.8435    2.7680  -17.8720 O.2       1 ALC1        0.0000 
     32 CA        -21.9305    1.2515  -16.3555 C.3       4 GLC5        0.0000 
     33 CA        -23.8760    2.1350  -16.1670 C.3      12 GLL5        0.0000 
     34 CA        -19.9850    0.3680  -16.5440 C.3       8 GLP5        0.0000 
     35 CA        -21.6635    8.1065  -14.6780 C.3       4 GLC5        0.0000 
     36 CA        -21.5290    6.1610  -14.5030 C.3      12 GLL5        0.0000 
     37 CA        -21.7980   10.0520  -14.8530 C.3       8 GLP5        0.0000 
     38 O         -20.2600    7.8175  -13.4350 O.2       1 ALC1        0.0000 
     39 O         -20.5630    7.0790  -14.7180 O.2       9 ALL1        0.0000 
     40 O         -19.9570    8.5560  -12.1520 O.2       5 ALP1        0.0000 
     41 N         -22.7270    7.3290  -12.5515 N.am      2 SEC2        0.0000 
     42 N         -22.2980    6.2140  -13.3930 N.am     10 SEL2        0.0000 
     43 N         -23.1560    8.4440  -11.7100 N.am      6 SEP2        0.0000 
     44 CA        -21.8525    4.4130  -11.9075 C.3       4 GLC5        0.0000 
     45 CA        -23.2830    5.3240  -13.1600 C.3      12 GLL5        0.0000 
     46 CA        -20.4220    3.5020  -10.6550 C.3       8 GLP5        0.0000 
     47 CA        -22.4330    6.3745  -11.6595 C.3       4 GLC5        0.0000 
     48 CA        -21.5830    7.4250  -10.1590 C.3       8 GLP5        0.0000 
     49 CA        -23.7565    7.3420  -12.6320 C.3       4 GLC5        0.0000 
     50 CA        -24.2300    9.3600  -12.1040 C.3       8 GLP5        0.0000 
     51 CA        -24.4405    6.1045  -14.3825 C.3       4 GLC5        0.0000 
     52 CA        -25.5980    6.8850  -15.6050 C.3       8 GLP5        0.0000 
     53 CA        -21.5450    2.5920  -14.6295 C.3       4 GLC5        0.0000 
     54 CA        -22.8760    4.1430  -15.1280 C.3      12 GLL5        0.0000 
     55 CA        -20.2140    1.0410  -14.1310 C.3       8 GLP5        0.0000 
     56 CA        -22.9280   -1.5485  -18.6208 C.3       4 GLC5        0.0000 
     57 CA        -23.9350    0.6410  -17.9800 C.3      12 GLL5        0.0000 
     58 CA        -22.4280   -3.5280  -18.7330 C.3       8 GLP5        0.0000 
     59 CA        -21.7065    0.3995  -17.5263 C.3       4 GLC5        0.0000 
     60 CA        -22.9210    0.2210  -19.0370 C.3      12 GLL5        0.0000 
     61 CA        -24.6495    3.9460  -18.4023 C.3       4 GLC5        0.0000 
     62 CA        -24.7540    1.8630  -18.3720 C.3      12 GLL5        0.0000 
     63 CA        -24.3940    5.6940  -19.0970 C.3       8 GLP5        0.0000 
     64 CA        -20.3125    5.0930  -13.7043 C.3       4 GLC5        0.0000 
     65 CA        -21.7950    5.0710  -15.4640 C.3      12 GLL5        0.0000 
     66 CA        -18.9630    4.5700  -12.4250 C.3       8 GLP5        0.0000 
     67 CA        -22.1530    6.9230  -16.5617 C.3       4 GLC5        0.0000 
     68 CA        -22.6440    8.2300  -18.1400 C.3       8 GLP5        0.0000 
     69 CA        -23.9335    5.8822  -15.3304 C.3       4 GLC5        0.0000 
@<TRIPOS>BOND
@<TRIPOS>SUBSTRUCTURE
     1 ALC1       25 GROUP        1 X    ALC  0     ROOT ALC X 1
     2 SEC2        1 GROUP        1 X    SEC  0     **** SEC X 2
     3 LYC4       12 GROUP        1 X    LYC  0     **** LYC X 4
     4 GLC5       32 GROUP        1 X    GLC  0     **** GLC X 6
     5 ALP1       27 GROUP        1 Y    ALP  0     ROOT ALP Y 8
     6 SEP2        3 GROUP        1 Y    SEP  0     **** SEP Y 9
     7 LYP4       14 GROUP        1 Y    LYP  0     **** LYP Y 11
     8 GLP5       34 GROUP        1 Y    GLP  0     **** GLP Y 13
     9 ALL1       26 GROUP        1 Z    ALL  0     ROOT ALL Z 15
    10 SEL2        2 GROUP        1 Z    SEL  0     **** SEL Z 16
    11 LYL4       13 GROUP        1 Z    LYL  0     **** LYL Z 18
    12 GLL5       33 GROUP        1 Z    GLL  0     **** GLL Z 20
@<TRIPOS>SET

