#    Name: 4axd_ANP_1_ligand
#    Modification time : Tue Mar 25 06:21:39 2014

@<TRIPOS>MOLECULE
4axd_ANP_1_ligand
   43    45     1     0     0
SMALL
NO_CHARGES


@<TRIPOS>ATOM
      1 PG        -22.0810    0.1340  -25.2910 P.3       1 ANP600      0.0000 
      2 O1G       -22.9750   -1.1740  -25.0720 O.co2     1 ANP600      0.0000 
      3 O2G       -22.8920    1.2880  -26.0730 O.co2     1 ANP600      0.0000 
      4 O3G       -20.8560   -0.2770  -26.0330 O.co2     1 ANP600      0.0000 
      5 PB        -20.3660    0.1990  -22.7660 P.3       1 ANP600      0.0000 
      6 O1B       -20.0660   -1.2330  -22.9660 O.co2     1 ANP600      0.0000 
      7 O2B       -18.9790    1.0110  -22.8290 O.co2     1 ANP600      0.0000 
      8 N3B       -21.5580    0.8740  -23.8230 N.4       1 ANP600      0.0000 
      9 PA        -21.6900    1.7300  -20.8000 P.3       1 ANP600      0.0000 
     10 O1A       -22.9680    1.9250  -21.5760 O.co2     1 ANP600      0.0000 
     11 O2A       -20.6550    2.8250  -20.7300 O.co2     1 ANP600      0.0000 
     12 O3A       -20.9820    0.3680  -21.2890 O.3       1 ANP600      0.0000 
     13 O5'       -22.0360    1.2980  -19.2950 O.3       1 ANP600      0.0000 
     14 C5'       -22.9210    0.2210  -19.0370 C.3       1 ANP600      0.0000 
     15 C4'       -23.9350    0.6410  -17.9800 C.3       1 ANP600      0.0000 
     16 O4'       -23.2550    1.0140  -16.7870 O.3       1 ANP600      0.0000 
     17 C3'       -24.7540    1.8630  -18.3720 C.3       1 ANP600      0.0000 
     18 O3'       -25.9100    1.5020  -19.1410 O.3       1 ANP600      0.0000 
     19 C2'       -25.0560    2.5330  -17.0430 C.3       1 ANP600      0.0000 
     20 O2'       -26.2320    2.0190  -16.4280 O.3       1 ANP600      0.0000 
     21 C1'       -23.8760    2.1350  -16.1670 C.3       1 ANP600      0.0000 
     22 N9        -22.9190    3.2610  -16.1100 N.pl3     1 ANP600      0.0000 
     23 C8        -21.9720    3.5660  -17.0180 C.2       1 ANP600      0.0000 
     24 N7        -21.2850    4.6590  -16.6340 N.2       1 ANP600      0.0000 
     25 C5        -21.7950    5.0710  -15.4640 C.ar      1 ANP600      0.0000 
     26 C6        -21.5290    6.1610  -14.5030 C.ar      1 ANP600      0.0000 
     27 N6        -20.5630    7.0790  -14.7180 N.pl3     1 ANP600      0.0000 
     28 N1        -22.2980    6.2140  -13.3930 N.ar      1 ANP600      0.0000 
     29 C2        -23.2830    5.3240  -13.1600 C.ar      1 ANP600      0.0000 
     30 N3        -23.5760    4.3040  -13.9850 N.ar      1 ANP600      0.0000 
     31 C4        -22.8760    4.1430  -15.1280 C.ar      1 ANP600      0.0000 
     32 H         -22.3932   -0.6632  -18.6604 H         1 ANP600      0.0000 
     33 H         -23.4776   -0.0772  -19.9334 H         1 ANP600      0.0000 
     34 H         -24.6110   -0.1725  -17.7879 H         1 ANP600      0.0000 
     35 H         -24.0822    2.5199  -18.9196 H         1 ANP600      0.0000 
     36 H         -25.0459    3.5740  -17.1581 H         1 ANP600      0.0000 
     37 H         -24.2387    1.9027  -15.1973 H         1 ANP600      0.0000 
     38 H         -21.8061    3.0631  -17.8425 H         1 ANP600      0.0000 
     39 H         -20.0087    6.9502  -15.5403 H         1 ANP600      0.0000 
     40 H         -20.4875    7.8063  -14.0359 H         1 ANP600      0.0000 
     41 H         -23.8623    5.4368  -12.2697 H         1 ANP600      0.0000 
     42 H         -26.2093    2.3528  -19.5729 H         1 ANP600      0.0000 
     43 H         -26.9776    2.2707  -17.0450 H         1 ANP600      0.0000 
@<TRIPOS>BOND
     1    2    1 ar   
     2    3    1 ar   
     3    4    1 ar   
     4    8    1 1    
     5    6    5 ar   
     6    7    5 ar   
     7    8    5 1    
     8   12    5 1    
     9   10    9 ar   
    10   11    9 ar   
    11   12    9 1    
    12   13    9 1    
    13   14   13 1    
    14   15   14 1    
    15   32   14 1    
    16   33   14 1    
    17   16   15 1    
    18   17   15 1    
    19   34   15 1    
    20   21   16 1    
    21   18   17 1    
    22   19   17 1    
    23   35   17 1    
    24   42   18 1    
    25   20   19 1    
    26   21   19 1    
    27   36   19 1    
    28   43   20 1    
    29   22   21 1    
    30   37   21 1    
    31   23   22 1    
    32   31   22 1    
    33   24   23 2    
    34   38   23 1    
    35   25   24 1    
    36   26   25 ar   
    37   31   25 ar   
    38   27   26 1    
    39   28   26 ar   
    40   39   27 1    
    41   40   27 1    
    42   29   28 ar   
    43   30   29 ar   
    44   41   29 1    
    45   31   30 ar   
@<TRIPOS>SUBSTRUCTURE
     1 ANP600      1 GROUP   
@<TRIPOS>SET

