#    Name: 4JDB_1_CAVITY_N1_6.mol2
#    Modification time : Tue Mar 11 07:51:20 2014

@<TRIPOS>MOLECULE
4JDB_1_CAVITY_N1_6.mol2
  113     0     5     0     0
SMALL
NO_CHARGES


@<TRIPOS>ATOM
      1 O          -5.0145  -16.8896   14.2149 O.2       2 ALA2        0.0000 
      2 DU         -4.7310  -15.9433   13.0861 H         5 CUB7        0.0000 
      3 DU         -4.1640  -14.0508   10.8284 H         5 CUB7        0.0000 
      4 N          -3.8805  -13.1046    9.6996 N.2       2 ALA2        0.0000 
      5 CA         -3.5970  -12.1583    8.5708 C.3       4 GLY6        0.0000 
      6 O          -5.9803  -17.6381   13.3449 O.2       2 ALA2        0.0000 
      7 DU         -5.6968  -16.6918   12.2160 H         5 CUB7        0.0000 
      8 DU         -5.4133  -15.7456   11.0872 H         5 CUB7        0.0000 
      9 N          -5.1298  -14.7993    9.9584 N.2       2 ALA2        0.0000 
     10 N          -4.8463  -13.8531    8.8296 N.2       2 ALA2        0.0000 
     11 N          -4.5628  -12.9068    7.7008 N.2       2 ALA2        0.0000 
     12 CA         -6.6626  -17.4404   11.3460 C.3       4 GLY6        0.0000 
     13 CA         -6.3791  -16.4941   10.2172 C.3       4 GLY6        0.0000 
     14 N          -6.0956  -15.5479    9.0884 N.2       2 ALA2        0.0000 
     15 CA         -7.3449  -17.2426    9.3472 C.3       4 GLY6        0.0000 
     16 CA         -2.3788  -10.9140   13.9063 C.3       4 GLY6        0.0000 
     17 OG         -3.6281  -12.6088   14.1651 O.2       1 SER1        0.0000 
     18 OG         -3.3446  -11.6625   13.0363 O.2       1 SER1        0.0000 
     19 CA         -3.0611  -10.7163   11.9075 C.3       4 GLY6        0.0000 
     20 N          -4.8774  -14.3035   14.4239 N.2       2 ALA2        0.0000 
     21 OG         -4.5938  -13.3573   13.2951 O.2       1 SER1        0.0000 
     22 DU         -4.3103  -12.4110   12.1662 H         5 CUB7        0.0000 
     23 N          -4.0268  -11.4648   11.0374 N.2       2 ALA2        0.0000 
     24 N          -3.7433  -10.5185    9.9086 N.2       2 ALA2        0.0000 
     25 N          -6.1266  -15.9983   14.6827 N.2       2 ALA2        0.0000 
     26 DU         -5.8431  -15.0521   13.5539 H         5 CUB7        0.0000 
     27 DU         -5.5596  -14.1058   12.4250 H         5 CUB7        0.0000 
     28 CA         -5.2761  -13.1596   11.2962 C.3       4 GLY6        0.0000 
     29 CA         -4.9926  -12.2133   10.1674 C.3       4 GLY6        0.0000 
     30 N          -4.7091  -11.2671    9.0386 N.2       2 ALA2        0.0000 
     31 DU         -7.0924  -16.7469   13.8126 H         5 CUB7        0.0000 
     32 DU         -6.8089  -15.8006   12.6838 H         5 CUB7        0.0000 
     33 DU         -6.5254  -14.8543   11.5550 H         5 CUB7        0.0000 
     34 CA         -8.0582  -17.4954   12.9426 C.3       4 GLY6        0.0000 
     35 CA         -7.7747  -16.5491   11.8138 C.3       4 GLY6        0.0000 
     36 N          -7.4912  -15.6029   10.6850 N.2       2 ALA2        0.0000 
     37 OG         -8.4570  -16.3514    9.8150 O.2       1 SER1        0.0000 
     38 OG         -4.4567  -10.7713   13.5041 O.2       1 SER1        0.0000 
     39 N          -4.1732   -9.8250   12.3752 N.2       2 ALA2        0.0000 
     40 N          -6.2730  -14.3586   16.0205 N.2       2 ALA2        0.0000 
     41 OG         -5.9895  -13.4123   14.8917 O.2       1 SER1        0.0000 
     42 OG         -5.7060  -12.4661   13.7628 O.2       1 SER1        0.0000 
     43 OG         -5.4225  -11.5198   12.6340 O.2       1 SER1        0.0000 
     44 OG         -5.1390  -10.5735   11.5052 O.2       1 SER1        0.0000 
     45 N          -7.2388  -15.1071   15.1505 N.2       2 ALA2        0.0000 
     46 N          -6.9553  -14.1608   14.0216 N.2       2 ALA2        0.0000 
     47 N          -6.6718  -13.2146   12.8928 N.2       2 ALA2        0.0000 
     48 N          -8.2046  -15.8556   14.2804 N.2       2 ALA2        0.0000 
     49 DU         -7.9211  -14.9094   13.1516 H         5 CUB7        0.0000 
     50 O          -7.6376  -13.9631   12.0228 O.2       2 ALA2        0.0000 
     51 O          -8.8869  -15.6579   12.2816 O.2       2 ALA2        0.0000 
     52 O          -8.6034  -14.7116   11.1528 O.2       2 ALA2        0.0000 
     53 N          -8.0674  -13.2696   14.4894 N.2       2 ALA2        0.0000 
     54 N          -9.0332  -14.0181   13.6194 N.2       2 ALA2        0.0000 
     55 O          -8.7497  -13.0719   12.4906 O.2       2 ALA2        0.0000 
     56 CA         -0.1453  -16.9223   11.4239 C.3       4 GLY6        0.0000 
     57 CA         -1.1111  -17.6708   10.5539 C.3       4 GLY6        0.0000 
     58 O          -4.2920  -20.8626    9.0726 O.2       2 ALA2        0.0000 
     59 OD1        -0.2916  -15.2825   12.7617 O.3       3 ASP3        0.0000 
     60 OG         -1.2574  -16.0310   11.8917 O.2       1 SER1        0.0000 
     61 OD1        -0.9739  -15.0848   10.7629 O.3       3 ASP3        0.0000 
     62 OD1        -0.6904  -14.1385    9.6341 O.3       3 ASP3        0.0000 
     63 OD1        -0.4069  -13.1923    8.5052 O.3       3 ASP3        0.0000 
     64 OG         -2.5067  -17.7258   12.1505 O.2       1 SER1        0.0000 
     65 DU         -2.2232  -16.7795   11.0217 H         5 CUB7        0.0000 
     66 DU         -1.9397  -15.8333    9.8929 H         5 CUB7        0.0000 
     67 DU         -1.6562  -14.8870    8.7640 H         5 CUB7        0.0000 
     68 DU         -1.3727  -13.9408    7.6352 H         5 CUB7        0.0000 
     69 CA         -3.4725  -18.4743   11.2805 C.3       4 GLY6        0.0000 
     70 DU         -3.1890  -17.5281   10.1516 H         5 CUB7        0.0000 
     71 CA         -2.9055  -16.5818    9.0228 C.3       4 GLY6        0.0000 
     72 CA         -2.6220  -15.6356    7.8940 C.3       4 GLY6        0.0000 
     73 CA         -2.3385  -14.6893    6.7652 C.3       4 GLY6        0.0000 
     74 CA         -4.4383  -19.2228   10.4104 C.3       4 GLY6        0.0000 
     75 CA         -4.1548  -18.2766    9.2816 C.3       4 GLY6        0.0000 
     76 CA         -3.8713  -17.3303    8.1528 C.3       4 GLY6        0.0000 
     77 O          -5.4041  -19.9714    9.5404 O.2       2 ALA2        0.0000 
     78 CA         -5.1206  -19.0251    8.4116 C.3       4 GLY6        0.0000 
     79 CA         -0.4380  -13.6427   14.0995 C.3       4 GLY6        0.0000 
     80 OD1        -0.1545  -12.6965   12.9707 O.3       3 ASP3        0.0000 
     81 N          -1.6873  -15.3375   14.3583 N.2       2 ALA2        0.0000 
     82 OD1        -1.4038  -14.3912   13.2295 O.3       3 ASP3        0.0000 
     83 OD1        -1.1203  -13.4450   12.1007 O.3       3 ASP3        0.0000 
     84 OD1        -0.8368  -12.4987   10.9719 O.3       3 ASP3        0.0000 
     85 OG         -2.6531  -16.0860   13.4883 O.2       1 SER1        0.0000 
     86 DU         -2.3696  -15.1398   12.3595 H         5 CUB7        0.0000 
     87 OD1        -2.0861  -14.1935   11.2307 O.3       3 ASP3        0.0000 
     88 OD1        -1.8026  -13.2473   10.1019 O.3       3 ASP3        0.0000 
     89 DU         -1.5191  -12.3010    8.9730 H         5 CUB7        0.0000 
     90 O          -3.6189  -16.8346   12.6183 O.2       2 ALA2        0.0000 
     91 DU         -3.3354  -15.8883   11.4895 H         5 CUB7        0.0000 
     92 DU         -3.0519  -14.9420   10.3606 H         5 CUB7        0.0000 
     93 DU         -2.7684  -13.9958    9.2318 H         5 CUB7        0.0000 
     94 CA         -2.4849  -13.0495    8.1030 C.3       4 GLY6        0.0000 
     95 CA         -4.5847  -17.5831   11.7483 C.3       4 GLY6        0.0000 
     96 DU         -4.3012  -16.6368   10.6194 H         5 CUB7        0.0000 
     97 DU         -4.0177  -15.6906    9.4906 H         5 CUB7        0.0000 
     98 CA         -3.7342  -14.7443    8.3618 C.3       4 GLY6        0.0000 
     99 CA         -3.4507  -13.7981    7.2330 C.3       4 GLY6        0.0000 
    100 O          -5.5505  -18.3316   10.8782 O.2       2 ALA2        0.0000 
    101 CA         -5.2670  -17.3854    9.7494 C.3       4 GLY6        0.0000 
    102 CA         -4.9834  -16.4391    8.6206 C.3       4 GLY6        0.0000 
    103 CA         -6.5162  -19.0801   10.0082 C.3       4 GLY6        0.0000 
    104 CA         -6.2327  -18.1339    8.8794 C.3       4 GLY6        0.0000 
    105 O          -1.2666  -11.8052   13.4385 O.2       2 ALA2        0.0000 
    106 N          -2.7994  -14.4463   14.8261 N.2       2 ALA2        0.0000 
    107 O          -2.5159  -13.5000   13.6973 O.2       2 ALA2        0.0000 
    108 DU         -2.2324  -12.5538   12.5685 H         5 CUB7        0.0000 
    109 O          -1.9489  -11.6075   11.4397 O.2       2 ALA2        0.0000 
    110 N          -3.7652  -15.1948   13.9561 N.2       2 ALA2        0.0000 
    111 DU         -3.4817  -14.2485   12.8273 H         5 CUB7        0.0000 
    112 DU         -2.9147  -12.3560   10.5696 H         5 CUB7        0.0000 
    113 N          -2.6312  -11.4098    9.4408 N.2       2 ALA2        0.0000 
@<TRIPOS>BOND
@<TRIPOS>SUBSTRUCTURE
     1 SER1       17 GROUP   
     2 ALA2        1 GROUP   
     3 ASP3       59 GROUP   
     4 GLY6        5 GROUP   
     5 CUB7        2 GROUP   
@<TRIPOS>SET

