#    Name: 4jdb_JDB_1_INTS_M
#    Modification time : Tue Mar 25 05:47:11 2014

@<TRIPOS>MOLECULE
4jdb_JDB_1_INTS_M
   56     0    12     0     0
SMALL
NO_CHARGES


@<TRIPOS>ATOM
      1 N          -4.6485  -18.7230   14.4660 N.am      2 SEC2        0.0000 
      2 N          -5.2120  -17.3660   14.6080 N.am     10 SEL2        0.0000 
      3 N          -4.0850  -20.0800   14.3240 N.am      6 SEP2        0.0000 
      4 NZ         -8.4785  -18.5815   15.1685 N.4       3 LYC4        0.0000 
      5 NZ         -7.2000  -18.2010   14.4440 N.4      11 LYL4        0.0000 
      6 NZ         -9.7570  -18.9620   15.8930 N.4       7 LYP4        0.0000 
      7 N          -6.9035  -19.4345   13.7670 N.am      2 SEC2        0.0000 
      8 N          -7.2000  -18.2010   14.4440 N.am     10 SEL2        0.0000 
      9 N          -6.6070  -20.6680   13.0900 N.am      6 SEP2        0.0000 
     10 N          -8.4785  -18.5815   15.1685 N.am      2 SEC2        0.0000 
     11 N          -9.7570  -18.9620   15.8930 N.am      6 SEP2        0.0000 
     12 CA         -7.9930  -15.6335   16.2865 C.3       4 GLC5        0.0000 
     13 CA         -6.9710  -15.8690   14.4620 C.3      12 GLL5        0.0000 
     14 CA         -9.0150  -15.3980   18.1110 C.3       8 GLP5        0.0000 
     15 O          -5.3445  -15.4430   16.4925 O.2       1 ALC1        0.0000 
     16 O          -6.4310  -15.0350   15.5090 O.2       9 ALL1        0.0000 
     17 O          -4.2580  -15.8510   17.4760 O.2       5 ALP1        0.0000 
     18 N          -5.4115  -13.4830   17.5845 N.am      2 SEC2        0.0000 
     19 N          -6.2510  -12.9920   16.4860 N.am     10 SEL2        0.0000 
     20 N          -4.5720  -13.9740   18.6830 N.am      6 SEP2        0.0000 
     21 N          -5.7205  -11.7165   16.2005 N.am      2 SEC2        0.0000 
     22 N          -5.1900  -10.4410   15.9150 N.am      6 SEP2        0.0000 
     23 O          -7.9110  -11.8785   14.5710 O.2       1 ALC1        0.0000 
     24 O          -7.6300  -13.2140   14.6560 O.2       9 ALL1        0.0000 
     25 O          -8.1920  -10.5430   14.4860 O.2       5 ALP1        0.0000 
     26 N         -10.0310  -13.6550   11.8520 N.am      2 SEC2        0.0000 
     27 N          -8.8870  -13.3980   12.7310 N.am     10 SEL2        0.0000 
     28 N         -11.1750  -13.9120   10.9730 N.am      6 SEP2        0.0000 
     29 N          -9.3795  -12.0465   12.8580 N.am      2 SEC2        0.0000 
     30 N          -9.8720  -10.6950   12.9850 N.am      6 SEP2        0.0000 
     31 CA         -9.1550  -17.6100   11.9580 C.3       4 GLC5        0.0000 
     32 CA         -8.2390  -16.1310   12.4220 C.3      12 GLL5        0.0000 
     33 CA        -10.0710  -19.0890   11.4940 C.3       8 GLP5        0.0000 
     34 CA         -6.3920  -17.0945    8.2740 C.3       4 GLC5        0.0000 
     35 CA         -6.0460  -17.4110   10.2380 C.3      12 GLL5        0.0000 
     36 CA         -6.7380  -16.7780    6.3100 C.3       8 GLP5        0.0000 
     37 CA         -6.7190  -19.4315    9.3765 C.3       4 GLC5        0.0000 
     38 CA         -4.5140  -19.1840    9.4450 C.3      12 GLL5        0.0000 
     39 CA         -8.9240  -19.6790    9.3080 C.3       8 GLP5        0.0000 
     40 CA         -5.0445  -18.3550    7.5915 C.3       4 GLC5        0.0000 
     41 CA         -5.5750  -17.5260    5.7380 C.3       8 GLP5        0.0000 
     42 CA         -5.3030  -21.5995    6.1345 C.3       4 GLC5        0.0000 
     43 CA         -3.6500  -20.8760    7.4210 C.3      12 GLL5        0.0000 
     44 CA         -6.9560  -22.3230    4.8480 C.3       8 GLP5        0.0000 
     45 CA         -4.6125  -19.2010    6.5795 C.3       4 GLC5        0.0000 
     46 CA         -7.8912  -17.7915   10.9443 C.3       4 GLC5        0.0000 
     47 CA         -6.3040  -16.2510   10.9920 C.3      12 GLL5        0.0000 
     48 CA         -8.8310  -19.6360   10.8500 C.3       8 GLP5        0.0000 
     49 CA         -7.1187  -18.6745   10.5337 C.3       4 GLC5        0.0000 
     50 CA         -4.4173  -19.6898   11.4335 C.3       4 GLC5        0.0000 
     51 CA         -4.7670  -18.0150   10.1970 C.3      12 GLL5        0.0000 
     52 CA         -4.1940  -20.7800   13.0460 C.3       8 GLP5        0.0000 
     53 CA         -3.4445  -20.1340   11.4370 C.3       4 GLC5        0.0000 
     54 CA         -3.2210  -19.7550    9.4450 C.3      12 GLL5        0.0000 
     55 CA         -3.6322  -19.2910   11.9872 C.3       4 GLC5        0.0000 
     56 CA         -2.4240  -18.0930   10.9260 C.3      12 GLL5        0.0000 
@<TRIPOS>BOND
@<TRIPOS>SUBSTRUCTURE
     1 ALC1       15 GROUP        1 X    ALC  0     ROOT ALC X 1
     2 SEC2        1 GROUP        1 X    SEC  0     **** SEC X 2
     3 LYC4        4 GROUP        1 X    LYC  0     **** LYC X 4
     4 GLC5       12 GROUP        1 X    GLC  0     **** GLC X 6
     5 ALP1       17 GROUP        1 Y    ALP  0     ROOT ALP Y 8
     6 SEP2        3 GROUP        1 Y    SEP  0     **** SEP Y 9
     7 LYP4        6 GROUP        1 Y    LYP  0     **** LYP Y 11
     8 GLP5       14 GROUP        1 Y    GLP  0     **** GLP Y 13
     9 ALL1       16 GROUP        1 Z    ALL  0     ROOT ALL Z 15
    10 SEL2        2 GROUP        1 Z    SEL  0     **** SEL Z 16
    11 LYL4        5 GROUP        1 Z    LYL  0     **** LYL Z 18
    12 GLL5       13 GROUP        1 Z    GLL  0     **** GLL Z 20
@<TRIPOS>SET

