#    Name: 4jdb_JDB_1_ligand
#    Modification time : Tue Mar 25 05:47:11 2014

@<TRIPOS>MOLECULE
4jdb_JDB_1_ligand
   40    42     1     0     0
SMALL
NO_CHARGES


@<TRIPOS>ATOM
      1 OAJ        -5.2120  -17.3660   14.6080 O.co2     1 JDB401      0.0000 
      2 CAI        -6.4410  -17.2150   14.4800 C.2       1 JDB401      0.0000 
      3 OAK        -7.2000  -18.2010   14.4440 O.co2     1 JDB401      0.0000 
      4 C4         -6.9710  -15.8690   14.4620 C.2       1 JDB401      0.0000 
      5 N3         -6.4310  -15.0350   15.5090 N.am      1 JDB401      0.0000 
      6 C2         -6.7630  -13.6950   15.6090 C.2       1 JDB401      0.0000 
      7 O2         -6.2510  -12.9920   16.4860 O.2       1 JDB401      0.0000 
      8 N1         -7.6300  -13.2140   14.6560 N.am      1 JDB401      0.0000 
      9 C6         -8.1200  -13.9580   13.5490 C.2       1 JDB401      0.0000 
     10 O6         -8.8870  -13.3980   12.7310 O.2       1 JDB401      0.0000 
     11 C5         -7.7830  -15.3380   13.4890 C.2       1 JDB401      0.0000 
     12 CAL        -8.2390  -16.1310   12.4220 C.3       1 JDB401      0.0000 
     13 CAM        -7.5990  -15.6430   11.0850 C.3       1 JDB401      0.0000 
     14 CAN        -6.3040  -16.2510   10.9920 C.ar      1 JDB401      0.0000 
     15 CAS        -6.0460  -17.4110   10.2380 C.ar      1 JDB401      0.0000 
     16 CAR        -4.7670  -18.0150   10.1970 C.ar      1 JDB401      0.0000 
     17 CAT        -4.5140  -19.1840    9.4450 C.ar      1 JDB401      0.0000 
     18 CAW        -3.2210  -19.7550    9.4450 C.ar      1 JDB401      0.0000 
     19 OAX        -2.9440  -20.8590    8.7020 O.3       1 JDB401      0.0000 
     20 CAY        -3.6500  -20.8760    7.4210 C.3       1 JDB401      0.0000 
     21 CAV        -2.1690  -19.2210   10.2110 C.ar      1 JDB401      0.0000 
     22 CAU        -2.4240  -18.0930   10.9260 C.ar      1 JDB401      0.0000 
     23 CAQ        -3.7170  -17.5110   10.9310 C.ar      1 JDB401      0.0000 
     24 CAP        -3.9330  -16.3490   11.6680 C.ar      1 JDB401      0.0000 
     25 CAO        -5.2040  -15.7160   11.6950 C.ar      1 JDB401      0.0000 
     26 H          -5.7857  -15.4710   16.1851 H         1 JDB401      0.0000 
     27 H          -7.9700  -12.2113   14.7378 H         1 JDB401      0.0000 
     28 H          -9.3262  -16.0773   12.2864 H         1 JDB401      0.0000 
     29 H          -7.9675  -17.1882   12.5314 H         1 JDB401      0.0000 
     30 H          -7.5460  -14.5638   11.1292 H         1 JDB401      0.0000 
     31 H          -8.2571  -15.9489   10.2833 H         1 JDB401      0.0000 
     32 H          -6.8171  -17.8401    9.6929 H         1 JDB401      0.0000 
     33 H          -5.2626  -19.6152    8.9031 H         1 JDB401      0.0000 
     34 H          -1.2637  -19.6762   10.2150 H         1 JDB401      0.0000 
     35 H          -1.6814  -17.6336   11.4824 H         1 JDB401      0.0000 
     36 H          -3.1602  -15.9298   12.2101 H         1 JDB401      0.0000 
     37 H          -5.3208  -14.8503   12.2392 H         1 JDB401      0.0000 
     38 H          -3.4112  -20.0871    6.8548 H         1 JDB401      0.0000 
     39 H          -3.4343  -21.6947    6.8889 H         1 JDB401      0.0000 
     40 H          -4.6423  -20.8591    7.5436 H         1 JDB401      0.0000 
@<TRIPOS>BOND
     1    2    1 ar   
     2    3    2 ar   
     3    4    2 1    
     4    5    4 1    
     5   11    4 2    
     6    6    5 am   
     7   26    5 1    
     8    7    6 2    
     9    8    6 am   
    10    9    8 am   
    11   27    8 1    
    12   10    9 2    
    13   11    9 1    
    14   12   11 1    
    15   13   12 1    
    16   28   12 1    
    17   29   12 1    
    18   14   13 1    
    19   30   13 1    
    20   31   13 1    
    21   15   14 ar   
    22   25   14 ar   
    23   16   15 ar   
    24   32   15 1    
    25   17   16 ar   
    26   23   16 ar   
    27   18   17 ar   
    28   33   17 1    
    29   19   18 1    
    30   21   18 ar   
    31   20   19 1    
    32   38   20 1    
    33   39   20 1    
    34   40   20 1    
    35   22   21 ar   
    36   34   21 1    
    37   23   22 ar   
    38   35   22 1    
    39   24   23 ar   
    40   25   24 ar   
    41   36   24 1    
    42   37   25 1    
@<TRIPOS>SUBSTRUCTURE
     1 JDB401      1 GROUP   
@<TRIPOS>SET

