#    Name: 3zhb_NAP_1_INTS_M
#    Modification time : Tue Mar 25 02:55:53 2014

@<TRIPOS>MOLECULE
3zhb_NAP_1_INTS_M
   80     0    12     0     0
SMALL
NO_CHARGES


@<TRIPOS>ATOM
      1 N         -28.7425  -36.8165   24.5700 N.am      2 SEC2        0.0000 
      2 N         -30.0560  -37.1190   23.4670 N.am     10 SEL2        0.0000 
      3 N         -27.4290  -36.5140   25.6730 N.am      6 SEP2        0.0000 
      4 CA        -29.2235  -37.2120   18.2940 C.3       4 GLC5        0.0000 
      5 CA        -28.7350  -36.2880   20.0360 C.3      12 GLL5        0.0000 
      6 CA        -29.7120  -38.1360   16.5520 C.3       8 GLP5        0.0000 
      7 CA        -26.5070  -35.9715   18.4135 C.3       4 GLC5        0.0000 
      8 CA        -27.8800  -35.1850   19.5220 C.3      12 GLL5        0.0000 
      9 CA        -25.1340  -36.7580   17.3050 C.3       8 GLP5        0.0000 
     10 N         -25.5535  -32.8720   21.2340 N.am      2 SEC2        0.0000 
     11 N         -26.8630  -33.1600   20.5050 N.am     10 SEL2        0.0000 
     12 N         -24.2440  -32.5840   21.9630 N.am      6 SEP2        0.0000 
     13 O         -26.3325  -31.9380   20.5030 O.2       1 ALC1        0.0000 
     14 O         -26.8630  -33.1600   20.5050 O.2       9 ALL1        0.0000 
     15 O         -25.8020  -30.7160   20.5010 O.2       5 ALP1        0.0000 
     16 CA        -26.6630  -34.7540   17.0170 C.3       4 GLC5        0.0000 
     17 CA        -28.2120  -33.7520   17.8610 C.3      12 GLL5        0.0000 
     18 CA        -25.1140  -35.7560   16.1730 C.3       8 GLP5        0.0000 
     19 CA        -29.6070  -30.1125   14.4775 C.3       4 GLC5        0.0000 
     20 CA        -29.2230  -32.0620   13.4460 C.3      12 GLL5        0.0000 
     21 CA        -29.9910  -28.1630   15.5090 C.3       8 GLP5        0.0000 
     22 CA        -28.7445  -29.5555   15.0295 C.3       4 GLC5        0.0000 
     23 CA        -27.4980  -30.9480   14.5500 C.3      12 GLL5        0.0000 
     24 CA        -26.0670  -30.3250   13.5975 C.3       4 GLC5        0.0000 
     25 CA        -24.6360  -29.7020   12.6450 C.3       8 GLP5        0.0000 
     26 N         -25.9775  -38.2980   24.2555 N.am      2 SEC2        0.0000 
     27 N         -26.6520  -38.1410   22.9370 N.am     10 SEL2        0.0000 
     28 N         -25.3030  -38.4550   25.5740 N.am      6 SEP2        0.0000 
     29 CA        -25.0070  -39.8440   22.3250 C.3       4 GLC5        0.0000 
     30 CA        -25.9270  -39.5760   20.3780 C.3      12 GLL5        0.0000 
     31 CA        -24.0870  -40.1120   24.2720 C.3       8 GLP5        0.0000 
     32 CA        -25.5305  -38.1670   18.8415 C.3       4 GLC5        0.0000 
     33 CA        -27.1100  -39.1420   18.5305 C.3       4 GLC5        0.0000 
     34 CA        -28.2930  -38.7080   16.6830 C.3       8 GLP5        0.0000 
     35 CA        -27.3850  -40.1950   17.9000 C.3       4 GLC5        0.0000 
     36 CA        -26.4770  -41.6820   19.1170 C.3      12 GLL5        0.0000 
     37 N         -24.9510  -42.9220   17.0365 N.am      2 SEC2        0.0000 
     38 N         -26.0190  -42.2050   17.8930 N.am     10 SEL2        0.0000 
     39 N         -23.8830  -43.6390   16.1800 N.am      6 SEP2        0.0000 
     40 N         -25.6085  -43.7930   17.9660 N.am      2 SEC2        0.0000 
     41 N         -25.1980  -45.3810   18.0390 N.am      6 SEP2        0.0000 
     42 N         -26.2630  -44.6405   18.6975 N.am      2 SEC2        0.0000 
     43 N         -27.3280  -43.9000   19.3560 N.am     10 SEL2        0.0000 
     44 NZ        -31.5990  -31.1895   17.8945 N.4       3 LYC4        0.0000 
     45 NZ        -31.1670  -31.3820   19.1060 N.4      11 LYL4        0.0000 
     46 NZ        -31.4900  -30.0840   15.8790 N.4       7 LYP4        0.0000 
     47 N         -31.5990  -31.1895   17.8945 N.am      2 SEC2        0.0000 
     48 N         -31.1670  -31.3820   19.1060 N.am     10 SEL2        0.0000 
     49 N         -32.0310  -30.9970   16.6830 N.am      6 SEP2        0.0000 
     50 NZ        -30.2155  -31.2595   22.2355 N.4       3 LYC4        0.0000 
     51 NZ        -29.8050  -31.0130   21.1330 N.4      11 LYL4        0.0000 
     52 NZ        -30.6260  -31.5060   23.3380 N.4       7 LYP4        0.0000 
     53 N         -28.5115  -30.1550   21.3110 N.am      2 SEC2        0.0000 
     54 N         -29.8050  -31.0130   21.1330 N.am     10 SEL2        0.0000 
     55 N         -27.2180  -29.2970   21.4890 N.am      6 SEP2        0.0000 
     56 N         -30.2155  -31.2595   22.2355 N.am      2 SEC2        0.0000 
     57 N         -30.6260  -31.5060   23.3380 N.am      6 SEP2        0.0000 
     58 N         -30.0435  -29.2580   17.8055 N.am      2 SEC2        0.0000 
     59 N         -29.4690  -29.3470   19.2560 N.am     10 SEL2        0.0000 
     60 N         -30.6180  -29.1690   16.3550 N.am      6 SEP2        0.0000 
     61 N         -28.9970  -28.0125   19.3905 N.am      2 SEC2        0.0000 
     62 N         -28.5250  -26.6780   19.5250 N.am      6 SEP2        0.0000 
     63 N         -30.3430  -28.3030   19.8890 N.am      2 SEC2        0.0000 
     64 N         -31.2170  -27.2590   20.5220 N.am      6 SEP2        0.0000 
     65 CA        -27.7156  -34.8424   21.9462 C.3       4 GLC5        0.0000 
     66 CA        -28.0930  -33.8150   20.1580 C.3      12 GLL5        0.0000 
     67 CA        -27.2310  -34.9090   23.9240 C.3       8 GLP5        0.0000 
     68 CA        -28.1781  -33.9952   13.8209 C.3       4 GLC5        0.0000 
     69 CA        -29.4100  -32.9500   14.5690 C.3      12 GLL5        0.0000 
     70 CA        -27.4410  -35.3780   12.7900 C.3       8 GLP5        0.0000 
     71 CA        -24.0467  -39.8610   20.3525 C.3       4 GLC5        0.0000 
     72 CA        -22.4390  -39.4790   20.5960 C.3       8 GLP5        0.0000 
     73 CA        -24.9820  -43.4492   24.4550 C.3       4 GLC5        0.0000 
     74 CA        -26.3930  -43.3770   22.9000 C.3      12 GLL5        0.0000 
     75 CA        -23.5000  -43.1380   25.4330 C.3       8 GLP5        0.0000 
     76 CA        -23.0940  -45.3520   22.7123 C.3       4 GLC5        0.0000 
     77 CA        -25.0770  -45.7720   23.1180 C.3      12 GLL5        0.0000 
     78 CA        -21.1690  -45.3360   22.8670 C.3       8 GLP5        0.0000 
     79 CA        -24.3588  -44.2013   24.1266 C.3       4 GLC5        0.0000 
     80 CA        -24.9610  -44.9640   21.9970 C.3      12 GLL5        0.0000 
@<TRIPOS>BOND
@<TRIPOS>SUBSTRUCTURE
     1 ALC1       13 GROUP        1 X    ALC  0     ROOT ALC X 1
     2 SEC2        1 GROUP        1 X    SEC  0     **** SEC X 2
     3 LYC4       44 GROUP        1 X    LYC  0     **** LYC X 4
     4 GLC5        4 GROUP        1 X    GLC  0     **** GLC X 6
     5 ALP1       15 GROUP        1 Y    ALP  0     ROOT ALP Y 8
     6 SEP2        3 GROUP        1 Y    SEP  0     **** SEP Y 9
     7 LYP4       46 GROUP        1 Y    LYP  0     **** LYP Y 11
     8 GLP5        6 GROUP        1 Y    GLP  0     **** GLP Y 13
     9 ALL1       14 GROUP        1 Z    ALL  0     ROOT ALL Z 15
    10 SEL2        2 GROUP        1 Z    SEL  0     **** SEL Z 16
    11 LYL4       45 GROUP        1 Z    LYL  0     **** LYL Z 18
    12 GLL5        5 GROUP        1 Z    GLL  0     **** GLL Z 20
@<TRIPOS>SET

