#    Name: 3zhb_NAP_1_ligand
#    Modification time : Tue Mar 25 02:55:53 2014

@<TRIPOS>MOLECULE
3zhb_NAP_1_ligand
   73    77     1     0     0
SMALL
NO_CHARGES


@<TRIPOS>ATOM
      1 PA        -29.7640  -37.3770   21.9620 P.3       1 NAP1307     0.0000 
      2 O1A       -30.0560  -37.1190   23.4670 O.co2     1 NAP1307     0.0000 
      3 O2A       -30.8340  -37.4800   20.8850 O.co2     1 NAP1307     0.0000 
      4 O5B       -28.7130  -36.2930   21.4440 O.3       1 NAP1307     0.0000 
      5 C5B       -28.7350  -36.2880   20.0360 C.3       1 NAP1307     0.0000 
      6 C4B       -27.8800  -35.1850   19.5220 C.3       1 NAP1307     0.0000 
      7 O4B       -28.3660  -35.1050   18.2020 O.3       1 NAP1307     0.0000 
      8 C3B       -28.0930  -33.8150   20.1580 C.3       1 NAP1307     0.0000 
      9 O3B       -26.8630  -33.1600   20.5050 O.3       1 NAP1307     0.0000 
     10 C2B       -28.8090  -33.0620   19.0550 C.3       1 NAP1307     0.0000 
     11 O2B       -28.6160  -31.6400   19.1110 O.3       1 NAP1307     0.0000 
     12 C1B       -28.2120  -33.7520   17.8610 C.3       1 NAP1307     0.0000 
     13 N9A       -28.8870  -33.6190   16.5830 N.pl3     1 NAP1307     0.0000 
     14 C8A       -29.8930  -34.3940   16.0970 C.2       1 NAP1307     0.0000 
     15 N7A       -30.2480  -33.9770   14.8430 N.2       1 NAP1307     0.0000 
     16 C5A       -29.4100  -32.9500   14.5690 C.ar      1 NAP1307     0.0000 
     17 C6A       -29.2230  -32.0620   13.4460 C.ar      1 NAP1307     0.0000 
     18 N6A       -30.0380  -32.3080   12.4430 N.pl3     1 NAP1307     0.0000 
     19 N1A       -28.2860  -31.0910   13.4450 N.ar      1 NAP1307     0.0000 
     20 C2A       -27.4980  -30.9480   14.5500 C.ar      1 NAP1307     0.0000 
     21 N3A       -27.5980  -31.7210   15.6610 N.ar      1 NAP1307     0.0000 
     22 C4A       -28.5140  -32.7190   15.6960 C.ar      1 NAP1307     0.0000 
     23 O3        -28.9940  -38.7890   21.6940 O.3       1 NAP1307     0.0000 
     24 PN        -27.6430  -39.2270   22.4610 P.3       1 NAP1307     0.0000 
     25 O1N       -28.1030  -40.2610   23.4520 O.co2     1 NAP1307     0.0000 
     26 O2N       -26.6520  -38.1410   22.9370 O.co2     1 NAP1307     0.0000 
     27 O5D       -27.1630  -39.8500   21.0750 O.3       1 NAP1307     0.0000 
     28 C5D       -25.9270  -39.5760   20.3780 C.3       1 NAP1307     0.0000 
     29 C4D       -25.3820  -40.9100   19.8400 C.3       1 NAP1307     0.0000 
     30 O4D       -24.9490  -41.7290   20.9410 O.3       1 NAP1307     0.0000 
     31 C3D       -26.4770  -41.6820   19.1170 C.3       1 NAP1307     0.0000 
     32 O3D       -26.0190  -42.2050   17.8930 O.3       1 NAP1307     0.0000 
     33 C2D       -26.8430  -42.7740   20.0690 C.3       1 NAP1307     0.0000 
     34 O2D       -27.3280  -43.9000   19.3560 O.3       1 NAP1307     0.0000 
     35 C1D       -25.5040  -43.0060   20.7180 C.3       1 NAP1307     0.0000 
     36 N1N       -25.6180  -43.8020   21.9160 N.pl3     1 NAP1307     0.0000 
     37 C2N       -26.3930  -43.3770   22.9000 C.ar      1 NAP1307     0.0000 
     38 C3N       -26.5350  -44.1440   24.0540 C.ar      1 NAP1307     0.0000 
     39 C7N       -27.4190  -43.6610   25.1550 C.2       1 NAP1307     0.0000 
     40 O7N       -28.0410  -44.5250   25.7650 O.2       1 NAP1307     0.0000 
     41 N7N       -27.4890  -42.3400   25.3940 N.am      1 NAP1307     0.0000 
     42 C4N       -25.8710  -45.3580   24.1690 C.ar      1 NAP1307     0.0000 
     43 C5N       -25.0770  -45.7720   23.1180 C.ar      1 NAP1307     0.0000 
     44 C6N       -24.9610  -44.9640   21.9970 C.ar      1 NAP1307     0.0000 
     45 P2B       -29.8910  -30.7650   19.6670 P.3       1 NAP1307     0.0000 
     46 O1X       -31.1670  -31.3820   19.1060 O.co2     1 NAP1307     0.0000 
     47 O2X       -29.8050  -31.0130   21.1330 O.co2     1 NAP1307     0.0000 
     48 O3X       -29.4690  -29.3470   19.2560 O.co2     1 NAP1307     0.0000 
     49 H         -29.7572  -36.1467   19.6464 H         1 NAP1307     0.0000 
     50 H         -28.3627  -37.2396   19.6207 H         1 NAP1307     0.0000 
     51 H         -26.8693  -35.4611   19.5319 H         1 NAP1307     0.0000 
     52 H         -28.7661  -33.9259   20.9705 H         1 NAP1307     0.0000 
     53 H         -29.8478  -33.3590   19.1091 H         1 NAP1307     0.0000 
     54 H         -27.1747  -33.5208   17.7948 H         1 NAP1307     0.0000 
     55 H         -30.3039  -35.1378   16.5684 H         1 NAP1307     0.0000 
     56 H         -29.9726  -31.6884   11.6608 H         1 NAP1307     0.0000 
     57 H         -30.6485  -33.0921   12.5543 H         1 NAP1307     0.0000 
     58 H         -26.7582  -30.1798   14.5366 H         1 NAP1307     0.0000 
     59 H         -25.1785  -39.1512   21.0393 H         1 NAP1307     0.0000 
     60 H         -26.0809  -38.9123   19.5331 H         1 NAP1307     0.0000 
     61 H         -24.5872  -40.7161   19.1617 H         1 NAP1307     0.0000 
     62 H         -27.3193  -41.0281   19.0130 H         1 NAP1307     0.0000 
     63 H         -27.5056  -42.3806   20.7867 H         1 NAP1307     0.0000 
     64 H         -24.8934  -43.5424   19.9708 H         1 NAP1307     0.0000 
     65 H         -26.9087  -42.4765   22.8428 H         1 NAP1307     0.0000 
     66 H         -26.9752  -41.7520   24.7693 H         1 NAP1307     0.0000 
     67 H         -28.0486  -42.0632   26.1752 H         1 NAP1307     0.0000 
     68 H         -25.9694  -45.9260   25.0086 H         1 NAP1307     0.0000 
     69 H         -24.5776  -46.6664   23.1632 H         1 NAP1307     0.0000 
     70 H         -24.3465  -45.2868   21.2165 H         1 NAP1307     0.0000 
     71 H         -26.9908  -32.2071   20.2300 H         1 NAP1307     0.0000 
     72 H         -26.5145  -43.0660   17.7779 H         1 NAP1307     0.0000 
     73 H         -27.3522  -44.6406   20.0275 H         1 NAP1307     0.0000 
@<TRIPOS>BOND
     1    2    1 ar   
     2    3    1 ar   
     3    4    1 1    
     4   23    1 1    
     5    5    4 1    
     6    6    5 1    
     7   49    5 1    
     8   50    5 1    
     9    7    6 1    
    10    8    6 1    
    11   51    6 1    
    12   12    7 1    
    13    9    8 1    
    14   10    8 1    
    15   52    8 1    
    16   71    9 1    
    17   11   10 1    
    18   12   10 1    
    19   53   10 1    
    20   45   11 1    
    21   13   12 1    
    22   54   12 1    
    23   14   13 1    
    24   22   13 1    
    25   15   14 2    
    26   55   14 1    
    27   16   15 1    
    28   17   16 ar   
    29   22   16 ar   
    30   18   17 1    
    31   19   17 ar   
    32   56   18 1    
    33   57   18 1    
    34   20   19 ar   
    35   21   20 ar   
    36   58   20 1    
    37   22   21 ar   
    38   24   23 1    
    39   25   24 ar   
    40   26   24 ar   
    41   27   24 1    
    42   28   27 1    
    43   29   28 1    
    44   59   28 1    
    45   60   28 1    
    46   30   29 1    
    47   31   29 1    
    48   61   29 1    
    49   35   30 1    
    50   32   31 1    
    51   33   31 1    
    52   62   31 1    
    53   72   32 1    
    54   34   33 1    
    55   35   33 1    
    56   63   33 1    
    57   73   34 1    
    58   36   35 1    
    59   64   35 1    
    60   37   36 ar   
    61   44   36 ar   
    62   38   37 ar   
    63   65   37 1    
    64   39   38 1    
    65   42   38 ar   
    66   40   39 2    
    67   41   39 am   
    68   66   41 1    
    69   67   41 1    
    70   43   42 ar   
    71   68   42 1    
    72   44   43 ar   
    73   69   43 1    
    74   70   44 1    
    75   46   45 ar   
    76   47   45 ar   
    77   48   45 ar   
@<TRIPOS>SUBSTRUCTURE
     1 NAP1307     1 GROUP   
@<TRIPOS>SET

