#    Name: 4k9v_6AW_1_INTS_M
#    Modification time : Tue Mar 25 07:36:35 2014

@<TRIPOS>MOLECULE
4k9v_6AW_1_INTS_M
   52     0     6     0     0
SMALL
NO_CHARGES


@<TRIPOS>ATOM
      1 N          18.6640   31.5155   -5.5375 N.am      1 SEC2        0.0000 
      2 N          17.5000   30.9200   -6.3420 N.am      5 SEL2        0.0000 
      3 N          19.8280   32.1110   -4.7330 N.am      3 SEP2        0.0000 
      4 CA         16.9845   28.5740   -6.8405 C.3       2 GLC5        0.0000 
      5 CA         18.7340   28.6660   -7.8200 C.3       6 GLL5        0.0000 
      6 CA         15.2350   28.4820   -5.8610 C.3       4 GLP5        0.0000 
      7 CA         18.5145   26.5065   -8.8915 C.3       2 GLC5        0.0000 
      8 CA         18.7250   27.8730  -10.3790 C.3       6 GLL5        0.0000 
      9 CA         18.3040   25.1400   -7.4040 C.3       4 GLP5        0.0000 
     10 CA         18.0625   26.2545  -11.0650 C.3       2 GLC5        0.0000 
     11 CA         17.4000   24.6360  -11.7510 C.3       4 GLP5        0.0000 
     12 CA         13.8890   34.1075   -9.5290 C.3       2 GLC5        0.0000 
     13 CA         15.1200   33.1550   -8.2880 C.3       6 GLL5        0.0000 
     14 CA         12.6580   35.0600  -10.7700 C.3       4 GLP5        0.0000 
     15 CA         14.1650   32.1165   -4.9540 C.3       2 GLC5        0.0000 
     16 CA         14.8200   32.8420   -6.8340 C.3       6 GLL5        0.0000 
     17 CA         13.5100   31.3910   -3.0740 C.3       4 GLP5        0.0000 
     18 CA         20.0760   35.0570   -9.6295 C.3       2 GLC5        0.0000 
     19 CA         18.8200   33.4270   -9.4660 C.3       6 GLL5        0.0000 
     20 CA         21.3320   36.6870   -9.7930 C.3       4 GLP5        0.0000 
     21 CA         19.8640   31.5125  -14.5560 C.3       2 GLC5        0.0000 
     22 CA         19.5440   31.4090  -12.6860 C.3       6 GLL5        0.0000 
     23 CA         20.1840   31.6160  -16.4260 C.3       4 GLP5        0.0000 
     24 CA         14.2695   34.2750  -11.8515 C.3       2 GLC5        0.0000 
     25 CA         15.8810   33.4900  -12.9330 C.3       6 GLL5        0.0000 
     26 CA         14.2665   35.8215  -10.6755 C.3       2 GLC5        0.0000 
     27 CA         15.8750   36.5830  -10.5810 C.3       6 GLL5        0.0000 
     28 CA         11.5070   41.4160  -17.7310 C.3       2 GLC5        0.0000 
     29 CA         12.3810   41.1150  -15.8990 C.3       6 GLL5        0.0000 
     30 CA         10.6330   41.7170  -19.5630 C.3       4 GLP5        0.0000 
     31 CA          9.6910   43.0345  -13.6235 C.3       2 GLC5        0.0000 
     32 CA         10.4690   41.3280  -14.2590 C.3       6 GLL5        0.0000 
     33 CA          8.9130   44.7410  -12.9880 C.3       4 GLP5        0.0000 
     34 CA         10.9755   38.1620  -12.6725 C.3       2 GLC5        0.0000 
     35 CA         11.8740   39.8590  -12.1390 C.3       6 GLL5        0.0000 
     36 CA         10.0770   36.4650  -13.2060 C.3       4 GLP5        0.0000 
     37 CA         13.1065   39.0385   -9.6290 C.3       2 GLC5        0.0000 
     38 CA         13.2970   39.1390  -11.4470 C.3       6 GLL5        0.0000 
     39 CA         12.9160   38.9380   -7.8110 C.3       4 GLP5        0.0000 
     40 CA         19.8317   26.9470   -7.8093 C.3       2 GLC5        0.0000 
     41 CA         19.6110   25.6670   -6.8450 C.3       4 GLP5        0.0000 
     42 CA         14.3190   34.3568   -6.3240 C.3       2 GLC5        0.0000 
     43 CA         13.6680   35.7150   -5.0870 C.3       4 GLP5        0.0000 
     44 CA         13.0885   32.4437   -7.2500 C.3       2 GLC5        0.0000 
     45 CA         11.2070   31.8890   -6.9390 C.3       4 GLP5        0.0000 
     46 CA         15.0416   31.1911   -7.1755 C.3       2 GLC5        0.0000 
     47 CA         14.7770   29.5200   -6.6600 C.3       4 GLP5        0.0000 
     48 CA         12.0860   39.4010  -16.6097 C.3       2 GLC5        0.0000 
     49 CA         11.5790   40.4210  -14.8100 C.3       6 GLL5        0.0000 
     50 CA         12.1920   38.0340  -17.8650 C.3       4 GLP5        0.0000 
     51 CA         15.0265   40.5558  -11.2054 C.3       2 GLC5        0.0000 
     52 CA         15.9550   42.2270  -10.4900 C.3       4 GLP5        0.0000 
@<TRIPOS>BOND
@<TRIPOS>SUBSTRUCTURE
     1 SEC2        1 GROUP        1 X    SEC  0     ROOT SEC X 2
     2 GLC5        4 GROUP        1 X    GLC  0     **** GLC X 6
     3 SEP2        3 GROUP        1 Y    SEP  0     ROOT SEP Y 9
     4 GLP5        6 GROUP        1 Y    GLP  0     **** GLP Y 13
     5 SEL2        2 GROUP        1 Z    SEL  0     ROOT SEL Z 16
     6 GLL5        5 GROUP        1 Z    GLL  0     **** GLL Z 20
@<TRIPOS>SET

