#    Name: 4k9v_6AW_1_ligand
#    Modification time : Tue Mar 25 07:36:35 2014

@<TRIPOS>MOLECULE
4k9v_6AW_1_ligand
   78    79     1     0     0
SMALL
NO_CHARGES


@<TRIPOS>ATOM
      1 O31        17.5000   30.9200   -6.3420 O.2       1 6AW602      0.0000 
      2 C30        17.5690   30.7700   -7.5470 C.2       1 6AW602      0.0000 
      3 O32        18.6940   30.0480   -8.0550 O.3       1 6AW602      0.0000 
      4 C33        18.7340   28.6660   -7.8200 C.3       1 6AW602      0.0000 
      5 C34        19.5840   28.2140   -8.9520 C.2       1 6AW602      0.0000 
      6 S38        18.7250   27.8730  -10.3790 S.3       1 6AW602      0.0000 
      7 C37        20.1920   27.4460  -11.2360 C.2       1 6AW602      0.0000 
      8 N36        21.2780   27.5720  -10.4180 N.2       1 6AW602      0.0000 
      9 C35        20.9460   28.0140   -9.1610 C.2       1 6AW602      0.0000 
     10 N29        16.6710   31.2070   -8.4260 N.am      1 6AW602      0.0000 
     11 C03        16.4650   32.6100   -8.8080 C.3       1 6AW602      0.0000 
     12 C02        15.1200   33.1550   -8.2880 C.3       1 6AW602      0.0000 
     13 C01        14.8200   32.8420   -6.8340 C.3       1 6AW602      0.0000 
     14 C04        17.6480   33.5430   -8.4780 C.3       1 6AW602      0.0000 
     15 C05        18.8200   33.4270   -9.4660 C.3       1 6AW602      0.0000 
     16 C06        18.4820   32.8020  -10.8280 C.3       1 6AW602      0.0000 
     17 C07        19.7360   32.1140  -11.3580 C.3       1 6AW602      0.0000 
     18 C08        19.5440   31.4090  -12.6860 C.3       1 6AW602      0.0000 
     19 N09        17.9920   33.8590  -11.7070 N.am      1 6AW602      0.0000 
     20 C10        17.3800   33.7150  -12.9040 C.2       1 6AW602      0.0000 
     21 O11        18.0030   33.8260  -13.9550 O.2       1 6AW602      0.0000 
     22 C12        15.8810   33.4900  -12.9330 C.3       1 6AW602      0.0000 
     23 C13        15.3730   33.0430  -14.3030 C.3       1 6AW602      0.0000 
     24 O14        15.1730   31.6240  -14.3290 O.3       1 6AW602      0.0000 
     25 N15        15.1710   34.7150  -12.6030 N.am      1 6AW602      0.0000 
     26 C16        15.5940   35.9440  -12.9570 C.2       1 6AW602      0.0000 
     27 O17        15.9050   36.1970  -14.1270 O.2       1 6AW602      0.0000 
     28 N18        15.6680   36.8920  -12.0000 N.am      1 6AW602      0.0000 
     29 C19        15.8750   36.5830  -10.5810 C.3       1 6AW602      0.0000 
     30 C20        15.5930   38.3330  -12.2940 C.3       1 6AW602      0.0000 
     31 C21        14.2050   38.9270  -12.4950 C.2       1 6AW602      0.0000 
     32 N28        13.7370   39.3460  -13.7280 N.2       1 6AW602      0.0000 
     33 C24        12.4820   39.8800  -13.7470 C.2       1 6AW602      0.0000 
     34 C25        11.5790   40.4210  -14.8100 C.3       1 6AW602      0.0000 
     35 C27        12.3810   41.1150  -15.8990 C.3       1 6AW602      0.0000 
     36 C26        10.4690   41.3280  -14.2590 C.3       1 6AW602      0.0000 
     37 S23        11.8740   39.8590  -12.1390 S.3       1 6AW602      0.0000 
     38 C22        13.2970   39.1390  -11.4470 C.2       1 6AW602      0.0000 
     39 H          17.7713   28.2075   -7.9001 H         1 6AW602      0.0000 
     40 H          19.2177   28.4196   -6.8987 H         1 6AW602      0.0000 
     41 H          20.0389   27.1987  -12.1054 H         1 6AW602      0.0000 
     42 H          21.6198   28.1814   -8.4476 H         1 6AW602      0.0000 
     43 H          16.0212   30.5240   -8.9238 H         1 6AW602      0.0000 
     44 H          16.3680   32.6384   -9.9423 H         1 6AW602      0.0000 
     45 H          14.3108   32.7474   -8.9236 H         1 6AW602      0.0000 
     46 H          15.1093   34.2519   -8.4349 H         1 6AW602      0.0000 
     47 H          18.0093   33.3115   -7.4668 H         1 6AW602      0.0000 
     48 H          17.2883   34.5809   -8.4711 H         1 6AW602      0.0000 
     49 H          19.6248   32.8308   -8.9921 H         1 6AW602      0.0000 
     50 H          19.2423   34.4374   -9.6344 H         1 6AW602      0.0000 
     51 H          17.7221   32.0572  -10.6573 H         1 6AW602      0.0000 
     52 H          20.0842   31.3824  -10.6066 H         1 6AW602      0.0000 
     53 H          20.5380   32.8672  -11.4605 H         1 6AW602      0.0000 
     54 H          18.1552   34.8529  -11.3232 H         1 6AW602      0.0000 
     55 H          15.6223   32.7187  -12.2166 H         1 6AW602      0.0000 
     56 H          16.1103   33.3606  -15.0537 H         1 6AW602      0.0000 
     57 H          14.4396   33.5861  -14.5078 H         1 6AW602      0.0000 
     58 H          14.2807   34.5885  -12.0556 H         1 6AW602      0.0000 
     59 H          16.1997   38.5643  -13.2100 H         1 6AW602      0.0000 
     60 H          16.0977   38.9128  -11.4756 H         1 6AW602      0.0000 
     61 H          11.0717   39.5537  -15.2949 H         1 6AW602      0.0000 
     62 H          13.2709   39.0050  -10.5736 H         1 6AW602      0.0000 
     63 H          14.7921   31.8569   -6.6643 H         1 6AW602      0.0000 
     64 H          15.5110   33.2255   -6.2213 H         1 6AW602      0.0000 
     65 H          13.9366   33.2138   -6.5487 H         1 6AW602      0.0000 
     66 H          20.3872   30.9728  -13.0002 H         1 6AW602      0.0000 
     67 H          18.8474   30.6938  -12.6295 H         1 6AW602      0.0000 
     68 H          19.2563   32.0423  -13.4045 H         1 6AW602      0.0000 
     69 H          16.7337   36.0936  -10.4289 H         1 6AW602      0.0000 
     70 H          15.9064   37.4111  -10.0213 H         1 6AW602      0.0000 
     71 H          15.1421   36.0095  -10.2150 H         1 6AW602      0.0000 
     72 H          12.9129   41.8808  -15.5376 H         1 6AW602      0.0000 
     73 H          13.0270   40.4913  -16.3392 H         1 6AW602      0.0000 
     74 H          11.7910   41.4815  -16.6184 H         1 6AW602      0.0000 
     75 H          10.8422   42.1205  -13.7767 H         1 6AW602      0.0000 
     76 H           9.8802   41.6786  -14.9873 H         1 6AW602      0.0000 
     77 H           9.8793   40.8429  -13.6133 H         1 6AW602      0.0000 
     78 H          15.6770   31.3064  -15.1322 H         1 6AW602      0.0000 
@<TRIPOS>BOND
     1    2    1 2    
     2    3    2 1    
     3   10    2 am   
     4    4    3 1    
     5    5    4 1    
     6   39    4 1    
     7   40    4 1    
     8    6    5 1    
     9    9    5 2    
    10    7    6 1    
    11    8    7 2    
    12   41    7 1    
    13    9    8 1    
    14   42    9 1    
    15   11   10 1    
    16   43   10 1    
    17   12   11 1    
    18   14   11 1    
    19   44   11 1    
    20   13   12 1    
    21   45   12 1    
    22   46   12 1    
    23   63   13 1    
    24   64   13 1    
    25   65   13 1    
    26   15   14 1    
    27   47   14 1    
    28   48   14 1    
    29   16   15 1    
    30   49   15 1    
    31   50   15 1    
    32   17   16 1    
    33   19   16 1    
    34   51   16 1    
    35   18   17 1    
    36   52   17 1    
    37   53   17 1    
    38   66   18 1    
    39   67   18 1    
    40   68   18 1    
    41   20   19 am   
    42   54   19 1    
    43   21   20 2    
    44   22   20 1    
    45   23   22 1    
    46   25   22 1    
    47   55   22 1    
    48   24   23 1    
    49   56   23 1    
    50   57   23 1    
    51   78   24 1    
    52   26   25 am   
    53   58   25 1    
    54   27   26 2    
    55   28   26 am   
    56   29   28 1    
    57   30   28 1    
    58   69   29 1    
    59   70   29 1    
    60   71   29 1    
    61   31   30 1    
    62   59   30 1    
    63   60   30 1    
    64   32   31 1    
    65   38   31 2    
    66   33   32 2    
    67   34   33 1    
    68   37   33 1    
    69   35   34 1    
    70   36   34 1    
    71   61   34 1    
    72   72   35 1    
    73   73   35 1    
    74   74   35 1    
    75   75   36 1    
    76   76   36 1    
    77   77   36 1    
    78   38   37 1    
    79   62   38 1    
@<TRIPOS>SUBSTRUCTURE
     1 6AW602      1 GROUP   
@<TRIPOS>SET

