#    Name: 2AN9_3_CAVITY_N1_6.mol2
#    Modification time : Tue Mar 11 02:13:06 2014

@<TRIPOS>MOLECULE
2AN9_3_CAVITY_N1_6.mol2
  137     0     7     0     0
SMALL
NO_CHARGES


@<TRIPOS>ATOM
      1 N          12.9297   21.5333   47.1750 N.2       2 ALA2        0.0000 
      2 N          11.4058   22.4558   46.0231 N.2       2 ALA2        0.0000 
      3 OG         11.4631   21.2941   46.9703 O.2       1 SER1        0.0000 
      4 CA         11.5203   20.1324   47.9175 C.3       6 GLY6        0.0000 
      5 CZ          9.8820   23.3784   44.8713 C.ar      5 PHE5        0.0000 
      6 CZ          9.9392   22.2167   45.8184 C.ar      5 PHE5        0.0000 
      7 DU          9.9965   21.0550   46.7656 H         7 CUB7        0.0000 
      8 CA         10.0537   19.8932   47.7128 C.3       6 GLY6        0.0000 
      9 DU          8.4154   23.1392   44.6666 H         7 CUB7        0.0000 
     10 DU          8.4727   21.9775   45.6137 H         7 CUB7        0.0000 
     11 O           8.5299   20.8158   46.5609 O.2       2 ALA2        0.0000 
     12 CA          8.5871   19.6541   47.5081 C.3       6 GLY6        0.0000 
     13 CA         13.4343   22.0202   42.9907 C.3       6 GLY6        0.0000 
     14 OG         13.4915   20.8584   43.9379 O.2       1 SER1        0.0000 
     15 O          11.9104   22.9427   41.8388 O.2       2 ALA2        0.0000 
     16 O          11.9677   21.7810   42.7860 O.2       2 ALA2        0.0000 
     17 OG         12.0249   20.6193   43.7332 O.2       1 SER1        0.0000 
     18 N          10.3866   23.8653   40.6870 N.2       2 ALA2        0.0000 
     19 OG         10.4438   22.7036   41.6341 O.2       1 SER1        0.0000 
     20 OG         10.5011   21.5419   42.5813 O.2       1 SER1        0.0000 
     21 OG         10.5583   20.3801   43.5285 O.2       1 SER1        0.0000 
     22 OG         10.6156   19.2184   44.4757 O.2       1 SER1        0.0000 
     23 OG          9.0345   21.3027   42.3766 O.2       1 SER1        0.0000 
     24 O           9.0917   20.1410   43.3238 O.2       2 ALA2        0.0000 
     25 CA         13.6866   22.2636   40.8986 C.3       6 GLY6        0.0000 
     26 CA         13.7438   21.1019   41.8457 C.3       6 GLY6        0.0000 
     27 CA         13.8011   19.9402   42.7929 C.3       6 GLY6        0.0000 
     28 CA         12.1055   24.3479   38.7995 C.3       6 GLY6        0.0000 
     29 O          12.1627   23.1862   39.7467 O.2       2 ALA2        0.0000 
     30 O          12.2200   22.0245   40.6939 O.2       2 ALA2        0.0000 
     31 DU         12.2772   20.8627   41.6410 H         7 CUB7        0.0000 
     32 OG         12.3345   19.7010   42.5882 O.2       1 SER1        0.0000 
     33 OG         12.3917   18.5393   43.5354 O.2       1 SER1        0.0000 
     34 OG         10.6389   24.1088   38.5948 O.2       1 SER1        0.0000 
     35 OG         10.7534   21.7853   40.4892 O.2       1 SER1        0.0000 
     36 OG         10.8106   20.6236   41.4363 O.2       1 SER1        0.0000 
     37 DU         10.8679   19.4619   42.3835 H         7 CUB7        0.0000 
     38 OG         10.9251   18.3002   43.3307 O.2       1 SER1        0.0000 
     39 O          10.9824   17.1384   44.2778 O.2       2 ALA2        0.0000 
     40 OG          9.3440   20.3844   41.2316 O.2       1 SER1        0.0000 
     41 O           9.4013   19.2227   42.1788 O.2       2 ALA2        0.0000 
     42 O           9.4585   18.0610   43.1260 O.2       2 ALA2        0.0000 
     43 OG          7.8774   20.1453   41.0270 O.2       1 SER1        0.0000 
     44 O           7.9347   18.9836   41.9741 O.2       2 ALA2        0.0000 
     45 CA         15.5772   19.2611   41.8526 C.3       6 GLY6        0.0000 
     46 CZ         15.6344   18.0993   42.7998 C.ar      5 PHE5        0.0000 
     47 NZ         13.9389   22.5071   38.8064 N.2       4 LYS4        0.0000 
     48 CA         13.9961   21.3454   39.7536 C.3       6 GLY6        0.0000 
     49 CA         14.0534   20.1836   40.7007 C.3       6 GLY6        0.0000 
     50 CA         14.1106   19.0219   41.6479 C.3       6 GLY6        0.0000 
     51 CZ         14.1679   17.8602   42.5951 C.ar      5 PHE5        0.0000 
     52 CA         12.4723   22.2679   38.6017 C.3       6 GLY6        0.0000 
     53 DU         12.5295   21.1062   39.5489 H         7 CUB7        0.0000 
     54 DU         12.5868   19.9445   40.4961 H         7 CUB7        0.0000 
     55 DU         12.6440   18.7828   41.4432 H         7 CUB7        0.0000 
     56 CZ         12.7013   17.6210   42.3904 C.ar      5 PHE5        0.0000 
     57 OG         12.7585   16.4593   43.3376 O.2       1 SER1        0.0000 
     58 O          11.0057   22.0288   38.3970 O.2       2 ALA2        0.0000 
     59 OG         11.0629   20.8670   39.3442 O.2       1 SER1        0.0000 
     60 OG         11.1202   19.7053   40.2914 O.2       1 SER1        0.0000 
     61 DU         11.1774   18.5436   41.2385 H         7 CUB7        0.0000 
     62 DU         11.2347   17.3819   42.1857 H         7 CUB7        0.0000 
     63 OG         11.2919   16.2202   43.1329 O.2       1 SER1        0.0000 
     64 OG          9.6536   19.4662   40.0867 O.2       1 SER1        0.0000 
     65 DU          9.7108   18.3045   41.0338 H         7 CUB7        0.0000 
     66 O           9.7681   17.1427   41.9810 O.2       2 ALA2        0.0000 
     67 O           9.8253   15.9810   42.9282 O.2       2 ALA2        0.0000 
     68 OG          8.1870   19.2270   39.8820 O.2       1 SER1        0.0000 
     69 O           8.2442   18.0653   40.8291 O.2       2 ALA2        0.0000 
     70 CA         17.3533   18.5820   40.9123 C.3       6 GLY6        0.0000 
     71 CA         17.4106   17.4202   41.8595 C.3       6 GLY6        0.0000 
     72 CA         15.8295   19.5045   39.7605 C.3       6 GLY6        0.0000 
     73 O          15.8867   18.3428   40.7076 O.2       2 ALA2        0.0000 
     74 CZ         15.9440   17.1811   41.6548 C.ar      5 PHE5        0.0000 
     75 CZ         16.0012   16.0194   42.6020 C.ar      5 PHE5        0.0000 
     76 NZ         14.2484   21.5888   37.6614 N.2       4 LYS4        0.0000 
     77 CA         14.3057   20.4271   38.6086 C.3       6 GLY6        0.0000 
     78 CA         14.3629   19.2654   39.5558 C.3       6 GLY6        0.0000 
     79 DU         14.4202   18.1036   40.5029 H         7 CUB7        0.0000 
     80 DU         14.4774   16.9419   41.4501 H         7 CUB7        0.0000 
     81 OG         14.5346   15.7802   42.3973 O.2       1 SER1        0.0000 
     82 N          12.7818   21.3497   37.4567 N.2       2 ALA2        0.0000 
     83 N          12.8391   20.1879   38.4039 N.2       2 ALA2        0.0000 
     84 DU         12.8963   19.0262   39.3511 H         7 CUB7        0.0000 
     85 DU         12.9536   17.8645   40.2982 H         7 CUB7        0.0000 
     86 OG         13.0108   16.7028   41.2454 O.2       1 SER1        0.0000 
     87 N          11.3725   19.9488   38.1992 N.2       2 ALA2        0.0000 
     88 OD1        11.4297   18.7871   39.1464 O.3       3 ASP3        0.0000 
     89 OD1        11.4870   17.6253   40.0936 O.3       3 ASP3        0.0000 
     90 OG         11.5442   16.4636   41.0407 O.2       1 SER1        0.0000 
     91 OG          9.9059   19.7096   37.9945 O.2       1 SER1        0.0000 
     92 OD1         9.9631   18.5479   38.9417 O.3       3 ASP3        0.0000 
     93 OD1        10.0204   17.3862   39.8889 O.3       3 ASP3        0.0000 
     94 DU         10.0776   16.2245   40.8360 H         7 CUB7        0.0000 
     95 DU          8.5538   17.1470   39.6842 H         7 CUB7        0.0000 
     96 DU          8.6110   15.9853   40.6313 H         7 CUB7        0.0000 
     97 CA         17.7201   16.5020   40.7145 C.3       6 GLY6        0.0000 
     98 N          17.7774   15.3402   41.6617 N.2       2 ALA2        0.0000 
     99 O          16.1963   17.4245   39.5627 O.2       2 ALA2        0.0000 
    100 N          16.2535   16.2628   40.5098 N.2       2 ALA2        0.0000 
    101 N          16.3108   15.1011   41.4570 N.2       2 ALA2        0.0000 
    102 N          14.6152   19.5088   37.4636 N.2       2 ALA2        0.0000 
    103 O          14.6724   18.3471   38.4108 O.2       2 ALA2        0.0000 
    104 CA         14.7297   17.1854   39.3580 C.3       6 GLY6        0.0000 
    105 N          14.7869   16.0237   40.3051 N.2       2 ALA2        0.0000 
    106 N          14.8442   14.8619   41.2523 N.2       2 ALA2        0.0000 
    107 N          13.1486   19.2697   37.2589 N.2       2 ALA2        0.0000 
    108 OD1        13.2059   18.1079   38.2061 O.3       3 ASP3        0.0000 
    109 OD1        13.2631   16.9462   39.1533 O.3       3 ASP3        0.0000 
    110 NZ         13.3203   15.7845   40.1004 N.2       4 LYS4        0.0000 
    111 OG         13.3776   14.6228   41.0476 O.2       1 SER1        0.0000 
    112 N          11.6820   19.0305   37.0542 N.2       2 ALA2        0.0000 
    113 OD1        11.8537   15.5454   39.8957 O.3       3 ASP3        0.0000 
    114 OG         11.9110   14.3836   40.8429 O.2       1 SER1        0.0000 
    115 OD1        10.2154   18.7914   36.8495 O.3       3 ASP3        0.0000 
    116 CA          8.6444   18.4924   48.4553 C.3       6 GLY6        0.0000 
    117 O           7.1778   18.2532   48.2506 O.2       2 ALA2        0.0000 
    118 N          13.1820   21.7767   45.0828 N.2       2 ALA2        0.0000 
    119 O          11.6009   23.8610   42.9838 O.2       2 ALA2        0.0000 
    120 CA         11.6581   22.6993   43.9310 C.3       6 GLY6        0.0000 
    121 OG         11.7154   21.5376   44.8782 O.2       1 SER1        0.0000 
    122 N          10.1343   23.6218   42.7791 N.2       2 ALA2        0.0000 
    123 DU         10.1915   22.4601   43.7263 H         7 CUB7        0.0000 
    124 DU         10.2488   21.2984   44.6735 H         7 CUB7        0.0000 
    125 OG         10.3060   20.1367   45.6206 O.2       1 SER1        0.0000 
    126 OG          8.6677   23.3827   42.5744 O.2       1 SER1        0.0000 
    127 DU          8.7249   22.2210   43.5216 H         7 CUB7        0.0000 
    128 O           8.7822   21.0593   44.4688 O.2       2 ALA2        0.0000 
    129 O           8.8394   19.8975   45.4159 O.2       2 ALA2        0.0000 
    130 O           8.8967   18.7358   46.3631 O.2       2 ALA2        0.0000 
    131 OG          7.2011   23.1435   42.3697 O.2       1 SER1        0.0000 
    132 DU          7.2584   21.9818   43.3169 H         7 CUB7        0.0000 
    133 N          11.1535   22.2124   48.1153 N.2       2 ALA2        0.0000 
    134 N          11.2108   21.0507   49.0624 N.2       2 ALA2        0.0000 
    135 DU          9.6869   21.9732   47.9106 H         7 CUB7        0.0000 
    136 CA          9.7442   20.8115   48.8578 C.3       6 GLY6        0.0000 
    137 CA          9.8014   19.6498   49.8049 C.3       6 GLY6        0.0000 
@<TRIPOS>BOND
@<TRIPOS>SUBSTRUCTURE
     1 SER1        3 GROUP   
     2 ALA2        1 GROUP   
     3 ASP3       88 GROUP   
     4 LYS4       47 GROUP   
     5 PHE5        5 GROUP   
     6 GLY6        4 GROUP   
     7 CUB7        7 GROUP   
@<TRIPOS>SET

