#    Name: 2an9_GDP_3_INTS_M
#    Modification time : Mon Mar 24 19:29:49 2014

@<TRIPOS>MOLECULE
2an9_GDP_3_INTS_M
   60     0    12     0     0
SMALL
NO_CHARGES


@<TRIPOS>ATOM
      1 NZ         10.7780   16.1120   38.6900 N.4       3 LYC4        0.0000 
      2 NZ         10.0870   16.1210   40.4380 N.4      11 LYL4        0.0000 
      3 NZ         11.4690   16.1030   36.9420 N.4       7 LYP4        0.0000 
      4 N           8.3735   17.7640   43.5125 N.am      2 SEC2        0.0000 
      5 N           9.5510   17.7940   42.4280 N.am     10 SEL2        0.0000 
      6 N           7.1960   17.7340   44.5970 N.am      6 SEP2        0.0000 
      7 N          10.2085   15.1625   44.9180 N.am      2 SEC2        0.0000 
      8 N          10.7920   15.7260   43.4140 N.am     10 SEL2        0.0000 
      9 N           9.6250   14.5990   46.4220 N.am      6 SEP2        0.0000 
     10 N          11.8210   14.8305   43.5065 N.am      2 SEC2        0.0000 
     11 N          12.8500   13.9350   43.5990 N.am      6 SEP2        0.0000 
     12 NZ         10.7770   17.0655   46.0035 N.4       3 LYC4        0.0000 
     13 NZ         10.8530   17.6880   44.7410 N.4      11 LYL4        0.0000 
     14 NZ          9.8660   15.4180   47.4390 N.4       7 LYP4        0.0000 
     15 N          10.7770   17.0655   46.0035 N.am      2 SEC2        0.0000 
     16 N          10.8530   17.6880   44.7410 N.am     10 SEL2        0.0000 
     17 N          10.7010   16.4430   47.2660 N.am      6 SEP2        0.0000 
     18 N          12.0560   18.2465   45.3755 N.am      2 SEC2        0.0000 
     19 N          13.2590   18.8050   46.0100 N.am      6 SEP2        0.0000 
     20 CA         13.4160   18.6155   43.8640 C.3       4 GLC5        0.0000 
     21 CA         12.3080   18.9030   41.9740 C.3      12 GLL5        0.0000 
     22 CA         14.5240   18.3280   45.7540 C.3       8 GLP5        0.0000 
     23 CA         14.8115   20.6835   41.5480 C.3       4 GLC5        0.0000 
     24 CA         13.6090   19.0040   41.1870 C.3      12 GLL5        0.0000 
     25 CA         16.0140   22.3630   41.9090 C.3       8 GLP5        0.0000 
     26 N          14.5045   19.2180   37.3950 N.am      2 SEC2        0.0000 
     27 N          14.0320   19.2680   38.7580 N.am     10 SEL2        0.0000 
     28 N          14.9770   19.1680   36.0320 N.am      6 SEP2        0.0000 
     29 O          15.0775   18.2070   37.2790 O.2       1 ALC1        0.0000 
     30 O          15.1780   17.2460   38.5260 O.2       9 ALL1        0.0000 
     31 O          14.9770   19.1680   36.0320 O.2       5 ALP1        0.0000 
     32 CA         16.7465   19.0410   39.7095 C.3       4 GLC5        0.0000 
     33 CA         15.5020   17.7430   40.9310 C.3      12 GLL5        0.0000 
     34 CA         17.9910   20.3390   38.4880 C.3       8 GLP5        0.0000 
     35 CA         17.8300   13.3645   43.1665 C.3       4 GLC5        0.0000 
     36 CA         17.8160   15.1920   42.0490 C.3      12 GLL5        0.0000 
     37 CA         17.8440   11.5370   44.2840 C.3       8 GLP5        0.0000 
     38 CA         18.5970   14.4600   40.4270 C.3       4 GLC5        0.0000 
     39 CA         19.3780   13.7280   38.8050 C.3       8 GLP5        0.0000 
     40 N          18.5975   12.5645   42.7595 N.am      2 SEC2        0.0000 
     41 N          19.4350   13.6530   42.6680 N.am     10 SEL2        0.0000 
     42 N          17.7600   11.4760   42.8510 N.am      6 SEP2        0.0000 
     43 O          21.7025   15.8105   41.4595 O.2       1 ALC1        0.0000 
     44 O          20.1480   15.6020   41.7490 O.2       9 ALL1        0.0000 
     45 O          23.2570   16.0190   41.1700 O.2       5 ALP1        0.0000 
     46 O          21.1735   14.8570   41.5030 O.2       1 ALC1        0.0000 
     47 O          22.1990   14.1120   41.2570 O.2       5 ALP1        0.0000 
     48 O          22.0955   16.8030   41.0195 O.2       1 ALC1        0.0000 
     49 O          20.9340   17.5870   40.8690 O.2       9 ALL1        0.0000 
     50 O          20.5475   18.6795   40.1085 O.2       1 ALC1        0.0000 
     51 O          20.1610   19.7720   39.3480 O.2       5 ALP1        0.0000 
     52 N          18.3515   17.5795   39.5015 N.am      2 SEC2        0.0000 
     53 N          18.5690   17.2230   41.0350 N.am     10 SEL2        0.0000 
     54 N          18.1340   17.9360   37.9680 N.am      6 SEP2        0.0000 
     55 CA         17.6670   15.9785   39.7335 C.3       4 GLC5        0.0000 
     56 CA         17.5590   16.4290   41.4700 C.3      12 GLL5        0.0000 
     57 CA         17.7750   15.5280   37.9970 C.3       8 GLP5        0.0000 
     58 CA         16.4078   16.5282   39.1818 C.3       4 GLC5        0.0000 
     59 CA         18.1058   16.3188   43.3773 C.3       4 GLC5        0.0000 
     60 CA         18.5240   16.8270   44.9950 C.3       8 GLP5        0.0000 
@<TRIPOS>BOND
@<TRIPOS>SUBSTRUCTURE
     1 ALC1       29 GROUP        1 X    ALC  0     ROOT ALC X 1
     2 SEC2        4 GROUP        1 X    SEC  0     **** SEC X 2
     3 LYC4        1 GROUP        1 X    LYC  0     **** LYC X 4
     4 GLC5       20 GROUP        1 X    GLC  0     **** GLC X 6
     5 ALP1       31 GROUP        1 Y    ALP  0     ROOT ALP Y 8
     6 SEP2        6 GROUP        1 Y    SEP  0     **** SEP Y 9
     7 LYP4        3 GROUP        1 Y    LYP  0     **** LYP Y 11
     8 GLP5       22 GROUP        1 Y    GLP  0     **** GLP Y 13
     9 ALL1       30 GROUP        1 Z    ALL  0     ROOT ALL Z 15
    10 SEL2        5 GROUP        1 Z    SEL  0     **** SEL Z 16
    11 LYL4        2 GROUP        1 Z    LYL  0     **** LYL Z 18
    12 GLL5       21 GROUP        1 Z    GLL  0     **** GLL Z 20
@<TRIPOS>SET

