#    Name: 2an9_GDP_3_ligand
#    Modification time : Mon Mar 24 19:29:49 2014

@<TRIPOS>MOLECULE
2an9_GDP_3_ligand
   40    42     1     0     0
SMALL
NO_CHARGES


@<TRIPOS>ATOM
      1 PB          9.1200   17.2190   40.9470 P.3       1 GDP1601     0.0000 
      2 O1B         9.0160   18.2710   39.8850 O.co2     1 GDP1601     0.0000 
      3 O2B        10.0870   16.1210   40.4380 O.co2     1 GDP1601     0.0000 
      4 O3B         7.6990   16.6240   41.0780 O.co2     1 GDP1601     0.0000 
      5 O3A         9.5510   17.7940   42.4280 O.3       1 GDP1601     0.0000 
      6 PA         10.7750   17.1940   43.3100 P.3       1 GDP1601     0.0000 
      7 O1A        10.7920   15.7260   43.4140 O.co2     1 GDP1601     0.0000 
      8 O2A        10.8530   17.6880   44.7410 O.co2     1 GDP1601     0.0000 
      9 O5'        12.1120   17.5880   42.4790 O.3       1 GDP1601     0.0000 
     10 C5'        12.3080   18.9030   41.9740 C.3       1 GDP1601     0.0000 
     11 C4'        13.6090   19.0040   41.1870 C.3       1 GDP1601     0.0000 
     12 O4'        14.6640   18.3290   41.8840 O.3       1 GDP1601     0.0000 
     13 C3'        13.5490   18.4030   39.7780 C.3       1 GDP1601     0.0000 
     14 O3'        14.0320   19.2680   38.7580 O.3       1 GDP1601     0.0000 
     15 C2'        14.5790   17.3140   39.8020 C.3       1 GDP1601     0.0000 
     16 O2'        15.1780   17.2460   38.5260 O.3       1 GDP1601     0.0000 
     17 C1'        15.5020   17.7430   40.9310 C.3       1 GDP1601     0.0000 
     18 N9         16.1980   16.5940   41.4750 N.pl3     1 GDP1601     0.0000 
     19 C8         15.6290   15.4740   42.0100 C.2       1 GDP1601     0.0000 
     20 N7         16.6200   14.6120   42.3710 N.2       1 GDP1601     0.0000 
     21 C5         17.8160   15.1920   42.0490 C.2       1 GDP1601     0.0000 
     22 C6         19.1390   14.7650   42.1720 C.2       1 GDP1601     0.0000 
     23 O6         19.4350   13.6530   42.6680 O.2       1 GDP1601     0.0000 
     24 N1         20.1480   15.6020   41.7490 N.am      1 GDP1601     0.0000 
     25 C2         19.8940   16.8080   41.1750 C.2       1 GDP1601     0.0000 
     26 N2         20.9340   17.5870   40.8690 N.pl3     1 GDP1601     0.0000 
     27 N3         18.5690   17.2230   41.0350 N.2       1 GDP1601     0.0000 
     28 C4         17.5590   16.4290   41.4700 C.2       1 GDP1601     0.0000 
     29 H          12.3504   19.6492   42.7858 H         1 GDP1601     0.0000 
     30 H          11.4873   19.2082   41.3024 H         1 GDP1601     0.0000 
     31 H          13.8678   20.0611   41.0794 H         1 GDP1601     0.0000 
     32 H          12.6204   17.9873   39.5904 H         1 GDP1601     0.0000 
     33 H          14.0831   16.4128   40.0939 H         1 GDP1601     0.0000 
     34 H          16.1928   18.4574   40.5232 H         1 GDP1601     0.0000 
     35 H          14.6854   15.3210   42.1138 H         1 GDP1601     0.0000 
     36 H          21.1432   15.2915   41.8775 H         1 GDP1601     0.0000 
     37 H          21.8384   17.2175   41.0824 H         1 GDP1601     0.0000 
     38 H          20.7152   18.4701   40.4539 H         1 GDP1601     0.0000 
     39 H          13.2148   19.7012   38.3778 H         1 GDP1601     0.0000 
     40 H          14.8814   18.0776   38.0564 H         1 GDP1601     0.0000 
@<TRIPOS>BOND
     1    2    1 ar   
     2    3    1 ar   
     3    4    1 ar   
     4    5    1 1    
     5    6    5 1    
     6    7    6 ar   
     7    8    6 ar   
     8    9    6 1    
     9   10    9 1    
    10   11   10 1    
    11   29   10 1    
    12   30   10 1    
    13   12   11 1    
    14   13   11 1    
    15   31   11 1    
    16   17   12 1    
    17   14   13 1    
    18   15   13 1    
    19   32   13 1    
    20   39   14 1    
    21   16   15 1    
    22   17   15 1    
    23   33   15 1    
    24   40   16 1    
    25   18   17 1    
    26   34   17 1    
    27   19   18 1    
    28   28   18 1    
    29   20   19 2    
    30   35   19 1    
    31   21   20 1    
    32   22   21 1    
    33   28   21 2    
    34   23   22 2    
    35   24   22 am   
    36   25   24 1    
    37   36   24 1    
    38   26   25 1    
    39   27   25 2    
    40   37   26 1    
    41   38   26 1    
    42   28   27 1    
@<TRIPOS>SUBSTRUCTURE
     1 GDP1601     1 GROUP   
@<TRIPOS>SET

