#    Name: 2fmn_4HF_1_INTS_M
#    Modification time : Tue Mar 25 12:56:25 2014

@<TRIPOS>MOLECULE
2fmn_4HF_1_INTS_M
   53     0     9     0     0
SMALL
NO_CHARGES


@<TRIPOS>ATOM
      1 CA        -61.5215  -20.8235   22.6745 C.3       3 GLC5        0.0000 
      2 CA        -59.5180  -21.6870   22.3880 C.3       9 GLL5        0.0000 
      3 CA        -63.5250  -19.9600   22.9610 C.3       6 GLP5        0.0000 
      4 CA        -59.4840  -20.5485   20.8765 C.3       3 GLC5        0.0000 
      5 CA        -59.4500  -19.4100   19.3650 C.3       6 GLP5        0.0000 
      6 O         -58.8795  -25.5285   18.6405 O.2       1 ALC1        0.0000 
      7 O         -58.8780  -24.6570   19.9890 O.2       7 ALL1        0.0000 
      8 O         -58.8810  -26.4000   17.2920 O.2       4 ALP1        0.0000 
      9 O         -59.7650  -25.3385   19.2575 O.2       1 ALC1        0.0000 
     10 O         -60.6520  -26.0200   18.5260 O.2       4 ALP1        0.0000 
     11 O         -57.8535  -26.0175   18.2990 O.2       1 ALC1        0.0000 
     12 O         -56.8260  -25.6350   19.3060 O.2       7 ALL1        0.0000 
     13 N         -55.2295  -23.6660   20.7765 N.am      2 SEC2        0.0000 
     14 N         -56.7920  -23.8360   20.7830 N.am      8 SEL2        0.0000 
     15 N         -53.6670  -23.4960   20.7700 N.am      5 SEP2        0.0000 
     16 O         -55.3480  -22.0820   22.3925 O.2       1 ALC1        0.0000 
     17 O         -56.6760  -22.0530   22.2780 O.2       7 ALL1        0.0000 
     18 O         -54.0200  -22.1110   22.5070 O.2       4 ALP1        0.0000 
     19 CA        -56.9215  -19.9985   21.4200 C.3       3 GLC5        0.0000 
     20 CA        -57.2420  -20.9830   23.1480 C.3       9 GLL5        0.0000 
     21 CA        -56.6010  -19.0140   19.6920 C.3       6 GLP5        0.0000 
     22 CA        -58.3960  -24.3665   24.0145 C.3       3 GLC5        0.0000 
     23 CA        -58.6210  -22.5830   24.5630 C.3       9 GLL5        0.0000 
     24 CA        -58.1710  -26.1500   23.4660 C.3       6 GLP5        0.0000 
     25 CA        -55.7080  -22.4810   25.7700 C.3       3 GLC5        0.0000 
     26 CA        -57.8770  -22.3000   25.8730 C.3       9 GLL5        0.0000 
     27 CA        -53.5390  -22.6620   25.6670 C.3       6 GLP5        0.0000 
     28 CA        -57.4445  -20.4465   26.4405 C.3       3 GLC5        0.0000 
     29 CA        -57.0120  -18.5930   27.0080 C.3       6 GLP5        0.0000 
     30 CA        -57.0045  -22.6290   28.6025 C.3       3 GLC5        0.0000 
     31 CA        -57.9010  -23.5210   26.7980 C.3       9 GLL5        0.0000 
     32 CA        -56.1080  -21.7370   30.4070 C.3       6 GLP5        0.0000 
     33 N         -60.4645  -31.3195   30.3015 N.am      2 SEC2        0.0000 
     34 N         -61.2110  -30.1880   29.9440 N.am      8 SEL2        0.0000 
     35 N         -59.7180  -32.4510   30.6590 N.am      5 SEP2        0.0000 
     36 CA        -64.2425  -24.5685   29.7055 C.3       3 GLC5        0.0000 
     37 CA        -63.3750  -26.3180   29.7080 C.3       9 GLL5        0.0000 
     38 CA        -65.1100  -22.8190   29.7030 C.3       6 GLP5        0.0000 
     39 CA        -58.2272  -22.7003   19.5335 C.3       3 GLC5        0.0000 
     40 CA        -58.8290  -22.7630   21.5270 C.3       9 GLL5        0.0000 
     41 CA        -58.3300  -22.5760   17.5440 C.3       6 GLP5        0.0000 
     42 CA        -57.5977  -19.6080   24.0135 C.3       3 GLC5        0.0000 
     43 CA        -57.2400  -18.0500   24.6380 C.3       6 GLP5        0.0000 
     44 CA        -59.5945  -23.3708   28.4907 C.3       3 GLC5        0.0000 
     45 CA        -60.5410  -22.7840   29.9770 C.3       6 GLP5        0.0000 
     46 CA        -55.6462  -23.9985   28.9902 C.3       3 GLC5        0.0000 
     47 CA        -56.8760  -24.1130   27.4710 C.3       9 GLL5        0.0000 
     48 CA        -54.2420  -23.3420   30.1040 C.3       6 GLP5        0.0000 
     49 CA        -59.2127  -24.0692   29.1307 C.3       3 GLC5        0.0000 
     50 CA        -57.2250  -25.1970   28.2820 C.3       9 GLL5        0.0000 
     51 CA        -56.8231  -26.6902   27.2364 C.3       3 GLC5        0.0000 
     52 CA        -58.5440  -25.5120   28.2870 C.3       9 GLL5        0.0000 
     53 CA        -55.8490  -28.2970   26.3910 C.3       6 GLP5        0.0000 
@<TRIPOS>BOND
@<TRIPOS>SUBSTRUCTURE
     1 ALC1        6 GROUP        1 X    ALC  0     ROOT ALC X 1
     2 SEC2       13 GROUP        1 X    SEC  0     **** SEC X 2
     3 GLC5        1 GROUP        1 X    GLC  0     **** GLC X 6
     4 ALP1        8 GROUP        1 Y    ALP  0     ROOT ALP Y 8
     5 SEP2       15 GROUP        1 Y    SEP  0     **** SEP Y 9
     6 GLP5        3 GROUP        1 Y    GLP  0     **** GLP Y 13
     7 ALL1        7 GROUP        1 Z    ALL  0     ROOT ALL Z 15
     8 SEL2       14 GROUP        1 Z    SEL  0     **** SEL Z 16
     9 GLL5        2 GROUP        1 Z    GLL  0     **** GLL Z 20
@<TRIPOS>SET

