#    Name: 2fmn_4HF_1_ligand
#    Modification time : Tue Mar 25 12:56:25 2014

@<TRIPOS>MOLECULE
2fmn_4HF_1_ligand
   52    54     1     0     0
SMALL
NO_CHARGES


@<TRIPOS>ATOM
      1 C5        -59.5180  -21.6870   22.3880 C.3       1 4HF495      0.0000 
      2 C4A       -58.8290  -22.7630   21.5270 C.2       1 4HF495      0.0000 
      3 C4        -59.5530  -23.6740   20.7430 C.2       1 4HF495      0.0000 
      4 O4        -60.7840  -23.6140   20.7090 O.2       1 4HF495      0.0000 
      5 N3        -58.8780  -24.6570   19.9890 N.am      1 4HF495      0.0000 
      6 C2        -57.4760  -24.7200   20.0250 C.2       1 4HF495      0.0000 
      7 N2        -56.8260  -25.6350   19.3060 N.pl3     1 4HF495      0.0000 
      8 N1        -56.7920  -23.8360   20.7830 N.2       1 4HF495      0.0000 
      9 C8A       -57.4200  -22.8860   21.5190 C.2       1 4HF495      0.0000 
     10 N8        -56.6760  -22.0530   22.2780 N.pl3     1 4HF495      0.0000 
     11 C7        -57.2420  -20.9830   23.1480 C.3       1 4HF495      0.0000 
     12 C6        -58.6690  -21.3490   23.6300 C.3       1 4HF495      0.0000 
     13 C9        -58.6210  -22.5830   24.5630 C.3       1 4HF495      0.0000 
     14 C10       -57.8770  -22.3000   25.8730 C.3       1 4HF495      0.0000 
     15 C3'       -57.9010  -23.5210   26.7980 C.2       1 4HF495      0.0000 
     16 S2'       -59.3950  -24.3940   27.2110 S.3       1 4HF495      0.0000 
     17 C4'       -56.8760  -24.1130   27.4710 C.2       1 4HF495      0.0000 
     18 C5'       -57.2250  -25.1970   28.2820 C.2       1 4HF495      0.0000 
     19 C1'       -58.5440  -25.5120   28.2870 C.2       1 4HF495      0.0000 
     20 C11       -59.2010  -26.6240   29.1130 C.2       1 4HF495      0.0000 
     21 O11       -58.5520  -27.2630   29.9440 O.2       1 4HF495      0.0000 
     22 N         -60.5040  -26.8200   28.8590 N.am      1 4HF495      0.0000 
     23 CA        -61.3260  -27.8430   29.5550 C.3       1 4HF495      0.0000 
     24 C         -60.8870  -29.2630   29.1660 C.2       1 4HF495      0.0000 
     25 OX1       -60.2400  -29.3900   28.1020 O.co2     1 4HF495      0.0000 
     26 OX2       -61.2110  -30.1880   29.9440 O.co2     1 4HF495      0.0000 
     27 CB        -62.8110  -27.6550   29.1950 C.3       1 4HF495      0.0000 
     28 CG        -63.3750  -26.3180   29.7080 C.3       1 4HF495      0.0000 
     29 CD        -63.4430  -26.2710   31.2460 C.2       1 4HF495      0.0000 
     30 OE1       -62.3590  -26.3590   31.8690 O.co2     1 4HF495      0.0000 
     31 OE2       -64.5770  -26.1460   31.7610 O.co2     1 4HF495      0.0000 
     32 H         -60.4881  -22.0547   22.7095 H         1 4HF495      0.0000 
     33 H         -59.6534  -20.7877   21.7941 H         1 4HF495      0.0000 
     34 H         -59.4092  -25.3178   19.4210 H         1 4HF495      0.0000 
     35 H         -57.2752  -25.9333   18.4638 H         1 4HF495      0.0000 
     36 H         -55.9477  -25.9408   19.6735 H         1 4HF495      0.0000 
     37 H         -55.6279  -22.1177   22.2953 H         1 4HF495      0.0000 
     38 H         -57.2999  -20.0383   22.6029 H         1 4HF495      0.0000 
     39 H         -56.6138  -20.8351   24.0292 H         1 4HF495      0.0000 
     40 H         -59.0940  -20.5286   24.1360 H         1 4HF495      0.0000 
     41 H         -58.1247  -23.4021   24.0356 H         1 4HF495      0.0000 
     42 H         -59.6452  -22.8917   24.7889 H         1 4HF495      0.0000 
     43 H         -58.3493  -21.4585   26.3781 H         1 4HF495      0.0000 
     44 H         -56.8432  -22.0408   25.6485 H         1 4HF495      0.0000 
     45 H         -55.9239  -23.8041   27.4013 H         1 4HF495      0.0000 
     46 H         -56.5361  -25.6908   28.8121 H         1 4HF495      0.0000 
     47 H         -61.0204  -26.2546   28.1461 H         1 4HF495      0.0000 
     48 H         -61.2266  -27.7368   30.6230 H         1 4HF495      0.0000 
     49 H         -63.3890  -28.4752   29.6287 H         1 4HF495      0.0000 
     50 H         -62.9215  -27.6946   28.1082 H         1 4HF495      0.0000 
     51 H         -64.3784  -26.1755   29.3030 H         1 4HF495      0.0000 
     52 H         -62.7394  -25.5040   29.3550 H         1 4HF495      0.0000 
@<TRIPOS>BOND
     1    2    1 1    
     2   12    1 1    
     3   32    1 1    
     4   33    1 1    
     5    3    2 1    
     6    9    2 2    
     7    4    3 2    
     8    5    3 am   
     9    6    5 1    
    10   34    5 1    
    11    7    6 1    
    12    8    6 2    
    13   35    7 1    
    14   36    7 1    
    15    9    8 1    
    16   10    9 1    
    17   11   10 1    
    18   37   10 1    
    19   12   11 1    
    20   38   11 1    
    21   39   11 1    
    22   13   12 1    
    23   40   12 1    
    24   14   13 1    
    25   41   13 1    
    26   42   13 1    
    27   15   14 1    
    28   43   14 1    
    29   44   14 1    
    30   16   15 1    
    31   17   15 2    
    32   19   16 1    
    33   18   17 1    
    34   45   17 1    
    35   19   18 2    
    36   46   18 1    
    37   20   19 1    
    38   21   20 2    
    39   22   20 am   
    40   23   22 1    
    41   47   22 1    
    42   24   23 1    
    43   27   23 1    
    44   48   23 1    
    45   25   24 ar   
    46   26   24 ar   
    47   28   27 1    
    48   49   27 1    
    49   50   27 1    
    50   29   28 1    
    51   51   28 1    
    52   52   28 1    
    53   30   29 ar   
    54   31   29 ar   
@<TRIPOS>SUBSTRUCTURE
     1 4HF495      1 GROUP   
@<TRIPOS>SET

