#    Name: 3r8u_Z31_1_INTS_M
#    Modification time : Tue Mar 25 11:15:48 2014

@<TRIPOS>MOLECULE
3r8u_Z31_1_INTS_M
   61     0     9     0     0
SMALL
NO_CHARGES


@<TRIPOS>ATOM
      1 CA        -61.4595 -115.8880  -46.5665 C.3       3 GLC5        0.0000 
      2 CA        -61.9650 -117.9420  -46.7740 C.3       9 GLL5        0.0000 
      3 CA        -60.9540 -113.8340  -46.3590 C.3       6 GLP5        0.0000 
      4 CA        -62.6285 -121.1330  -48.2820 C.3       3 GLC5        0.0000 
      5 CA        -62.2660 -119.3360  -47.1480 C.3       9 GLL5        0.0000 
      6 CA        -62.9910 -122.9300  -49.4160 C.3       6 GLP5        0.0000 
      7 CA        -65.1885 -120.3930  -47.1365 C.3       3 GLC5        0.0000 
      8 CA        -63.5220 -119.7260  -47.5010 C.3       9 GLL5        0.0000 
      9 CA        -66.8550 -121.0600  -46.7720 C.3       6 GLP5        0.0000 
     10 CA        -63.9275 -121.1470  -48.4275 C.3       3 GLC5        0.0000 
     11 CA        -64.3330 -122.5680  -49.3540 C.3       6 GLP5        0.0000 
     12 O         -62.7280 -119.6815  -49.8115 O.2       1 ALC1        0.0000 
     13 O         -63.7570 -119.4790  -48.9230 O.2       7 ALL1        0.0000 
     14 O         -61.6990 -119.8840  -50.7000 O.2       4 ALP1        0.0000 
     15 CA        -66.1650 -119.2740  -47.5040 C.3       3 GLC5        0.0000 
     16 CA        -65.4750 -117.4880  -48.2360 C.3       9 GLL5        0.0000 
     17 N         -64.2105 -119.0630  -51.7125 N.am      2 SEC2        0.0000 
     18 N         -65.1420 -118.5100  -50.5680 N.am      8 SEL2        0.0000 
     19 N         -63.2790 -119.6160  -52.8570 N.am      5 SEP2        0.0000 
     20 O         -66.6540 -118.0745  -53.1770 O.2       1 ALC1        0.0000 
     21 O         -66.6230 -117.3290  -51.9330 O.2       7 ALL1        0.0000 
     22 O         -66.6850 -118.8200  -54.4210 O.2       4 ALP1        0.0000 
     23 CA        -68.9570 -117.3585  -46.7220 C.3       3 GLC5        0.0000 
     24 CA        -67.7110 -115.9770  -46.8160 C.3       9 GLL5        0.0000 
     25 CA        -70.2030 -118.7400  -46.6280 C.3       6 GLP5        0.0000 
     26 CA        -67.0545 -111.3620  -47.5065 C.3       3 GLC5        0.0000 
     27 CA        -67.5820 -113.1260  -46.6380 C.3       9 GLL5        0.0000 
     28 CA        -66.5270 -109.5980  -48.3750 C.3       6 GLP5        0.0000 
     29 CA        -66.2705 -111.9850  -48.0330 C.3       3 GLC5        0.0000 
     30 CA        -67.4220 -113.7710  -47.9020 C.3       9 GLL5        0.0000 
     31 CA        -65.1190 -110.1990  -48.1640 C.3       6 GLP5        0.0000 
     32 CA        -67.2740 -112.9320  -49.8540 C.3       3 GLC5        0.0000 
     33 CA        -67.1260 -112.0930  -51.8060 C.3       6 GLP5        0.0000 
     34 CA        -68.3375 -117.0355  -41.7705 C.3       3 GLC5        0.0000 
     35 CA        -68.2340 -115.4550  -43.0950 C.3       9 GLL5        0.0000 
     36 CA        -68.4410 -118.6160  -40.4460 C.3       6 GLP5        0.0000 
     37 CA        -69.7180 -115.7515  -41.6295 C.3       3 GLC5        0.0000 
     38 CA        -71.2020 -116.0480  -40.1640 C.3       6 GLP5        0.0000 
     39 N         -69.1075 -114.8060  -49.8880 N.am      2 SEC2        0.0000 
     40 N         -67.9960 -115.3340  -50.3950 N.am      8 SEL2        0.0000 
     41 N         -70.2190 -114.2780  -49.3810 N.am      5 SEP2        0.0000 
     42 CA        -60.2662 -118.0625  -47.6185 C.3       3 GLC5        0.0000 
     43 CA        -58.4170 -117.4860  -48.2760 C.3       6 GLP5        0.0000 
     44 CA        -67.4857 -118.5415  -50.4333 C.3       3 GLC5        0.0000 
     45 CA        -66.3970 -116.8690  -49.5350 C.3       9 GLL5        0.0000 
     46 CA        -68.7310 -119.8700  -50.7370 C.3       6 GLP5        0.0000 
     47 CA        -65.1365 -116.1639  -50.5194 C.3       3 GLC5        0.0000 
     48 CA        -66.0840 -117.5570  -50.7240 C.3       9 GLL5        0.0000 
     49 CA        -64.2630 -114.9600  -51.2340 C.3       6 GLP5        0.0000 
     50 CA        -69.1508 -115.1725  -48.5764 C.3       3 GLC5        0.0000 
     51 CA        -70.7920 -115.6670  -49.4960 C.3       6 GLP5        0.0000 
     52 CA        -67.0446 -117.5851  -44.8414 C.3       3 GLC5        0.0000 
     53 CA        -66.1510 -119.2830  -44.4160 C.3       6 GLP5        0.0000 
     54 CA        -69.7794 -116.2914  -44.6770 C.3       3 GLC5        0.0000 
     55 CA        -71.4530 -116.9910  -45.3320 C.3       6 GLP5        0.0000 
     56 CA        -66.4850 -112.7064  -43.5267 C.3       3 GLC5        0.0000 
     57 CA        -67.8000 -113.8910  -45.4600 C.3       9 GLL5        0.0000 
     58 CA        -64.9500 -111.6110  -43.1350 C.3       6 GLP5        0.0000 
     59 CA        -69.9239 -113.7355  -43.2406 C.3       3 GLC5        0.0000 
     60 CA        -67.9500 -113.2500  -44.1860 C.3       9 GLL5        0.0000 
     61 CA        -71.7730 -113.4740  -42.8610 C.3       6 GLP5        0.0000 
@<TRIPOS>BOND
@<TRIPOS>SUBSTRUCTURE
     1 ALC1       12 GROUP        1 X    ALC  0     ROOT ALC X 1
     2 SEC2       17 GROUP        1 X    SEC  0     **** SEC X 2
     3 GLC5        1 GROUP        1 X    GLC  0     **** GLC X 6
     4 ALP1       14 GROUP        1 Y    ALP  0     ROOT ALP Y 8
     5 SEP2       19 GROUP        1 Y    SEP  0     **** SEP Y 9
     6 GLP5        3 GROUP        1 Y    GLP  0     **** GLP Y 13
     7 ALL1       13 GROUP        1 Z    ALL  0     ROOT ALL Z 15
     8 SEL2       18 GROUP        1 Z    SEL  0     **** SEL Z 16
     9 GLL5        2 GROUP        1 Z    GLL  0     **** GLL Z 20
@<TRIPOS>SET

