#    Name: 3r8u_Z31_1_ligand
#    Modification time : Tue Mar 25 11:15:48 2014

@<TRIPOS>MOLECULE
3r8u_Z31_1_ligand
   35    37     1     0     0
SMALL
NO_CHARGES


@<TRIPOS>ATOM
      1 C1        -61.9650 -117.9420  -46.7740 C.2       1 Z31465      0.0000 
      2 C2        -62.2660 -119.3360  -47.1480 C.2       1 Z31465      0.0000 
      3 C3        -63.5220 -119.7260  -47.5010 C.3       1 Z31465      0.0000 
      4 N4        -63.7570 -119.4790  -48.9230 N.pl3     1 Z31465      0.0000 
      5 C5        -64.7240 -118.5850  -49.3040 C.2       1 Z31465      0.0000 
      6 S6        -65.4750 -117.4880  -48.2360 S.3       1 Z31465      0.0000 
      7 C7        -66.3970 -116.8690  -49.5350 C.2       1 Z31465      0.0000 
      8 C8        -66.0840 -117.5570  -50.7240 C.2       1 Z31465      0.0000 
      9 N9        -65.1420 -118.5100  -50.5680 N.2       1 Z31465      0.0000 
     10 N10       -66.6230 -117.3290  -51.9330 N.pl3     1 Z31465      0.0000 
     11 C11       -67.2820 -115.8370  -49.3540 C.2       1 Z31465      0.0000 
     12 C12       -67.4830 -115.1930  -48.0070 C.ar      1 Z31465      0.0000 
     13 C13       -67.7110 -115.9770  -46.8160 C.ar      1 Z31465      0.0000 
     14 C14       -67.8680 -115.3420  -45.5450 C.ar      1 Z31465      0.0000 
     15 C15       -67.8000 -113.8910  -45.4600 C.ar      1 Z31465      0.0000 
     16 C16       -67.5820 -113.1260  -46.6380 C.ar      1 Z31465      0.0000 
     17 C17       -67.4220 -113.7710  -47.9020 C.ar      1 Z31465      0.0000 
     18 C18       -68.0870 -116.1150  -44.3530 C.ar      1 Z31465      0.0000 
     19 C19       -68.2340 -115.4550  -43.0950 C.ar      1 Z31465      0.0000 
     20 C20       -68.1650 -114.0330  -43.0140 C.ar      1 Z31465      0.0000 
     21 C21       -67.9500 -113.2500  -44.1860 C.ar      1 Z31465      0.0000 
     22 O22       -67.9960 -115.3340  -50.3950 O.2       1 Z31465      0.0000 
     23 H         -61.4727 -119.9961  -47.1267 H         1 Z31465      0.0000 
     24 H         -64.3084 -119.1896  -46.9210 H         1 Z31465      0.0000 
     25 H         -63.6983 -120.8088  -47.3031 H         1 Z31465      0.0000 
     26 H         -63.1851 -119.9877  -49.5934 H         1 Z31465      0.0000 
     27 H         -66.3073 -117.9213  -52.6743 H         1 Z31465      0.0000 
     28 H         -67.2918 -116.5873  -51.9838 H         1 Z31465      0.0000 
     29 H         -67.7593 -116.9907  -46.8888 H         1 Z31465      0.0000 
     30 H         -67.5390 -112.1078  -46.5831 H         1 Z31465      0.0000 
     31 H         -67.2623 -113.2087  -48.7390 H         1 Z31465      0.0000 
     32 H         -68.1363 -117.1253  -44.4094 H         1 Z31465      0.0000 
     33 H         -68.3891 -116.0043  -42.2510 H         1 Z31465      0.0000 
     34 H         -68.2704 -113.5720  -42.1097 H         1 Z31465      0.0000 
     35 H         -67.9025 -112.2377  -44.1223 H         1 Z31465      0.0000 
@<TRIPOS>BOND
     1    2    1 2    
     2    3    2 1    
     3   23    2 1    
     4    4    3 1    
     5   24    3 1    
     6   25    3 1    
     7    5    4 1    
     8   26    4 1    
     9    6    5 1    
    10    9    5 2    
    11    7    6 1    
    12    8    7 2    
    13   11    7 1    
    14    9    8 1    
    15   10    8 1    
    16   27   10 1    
    17   28   10 1    
    18   12   11 1    
    19   22   11 2    
    20   13   12 ar   
    21   17   12 ar   
    22   14   13 ar   
    23   29   13 1    
    24   15   14 ar   
    25   18   14 ar   
    26   16   15 ar   
    27   21   15 ar   
    28   17   16 ar   
    29   30   16 1    
    30   31   17 1    
    31   19   18 ar   
    32   32   18 1    
    33   20   19 ar   
    34   33   19 1    
    35   21   20 ar   
    36   34   20 1    
    37   35   21 1    
@<TRIPOS>SUBSTRUCTURE
     1 Z31465      1 GROUP   
@<TRIPOS>SET

