#    Name: 1q3q_ANP_3_INTS_M
#    Modification time : Mon Mar 24 22:58:43 2014

@<TRIPOS>MOLECULE
1q3q_ANP_3_INTS_M
   62     0    12     0     0
SMALL
NO_CHARGES


@<TRIPOS>ATOM
      1 N          75.0480   37.4670  -15.5625 N.am      2 SEC2        0.0000 
      2 N          73.9760   38.6430  -16.0320 N.am     10 SEL2        0.0000 
      3 N          76.1200   36.2910  -15.0930 N.am      6 SEP2        0.0000 
      4 N          73.4015   38.2920  -14.6390 N.am      2 SEC2        0.0000 
      5 N          72.8270   37.9410  -13.2460 N.am      6 SEP2        0.0000 
      6 N          71.2240   37.6555  -17.7730 N.am      2 SEC2        0.0000 
      7 N          72.6110   38.4640  -18.1660 N.am     10 SEL2        0.0000 
      8 N          69.8370   36.8470  -17.3800 N.am      6 SEP2        0.0000 
      9 N          72.6525   37.2010  -17.5260 N.am      2 SEC2        0.0000 
     10 N          72.6940   35.9380  -16.8860 N.am      6 SEP2        0.0000 
     11 Zn         73.0275   41.6260  -17.4370 Zn        3 ZIC7        0.0000 
     12 Zn         73.1260   40.6230  -17.1520 Zn       11 ZIL7        0.0000 
     13 Zn         72.9290   42.6290  -17.7220 Zn        7 ZIP7        0.0000 
     14 N          69.6670   40.1950  -17.6125 N.am      2 SEC2        0.0000 
     15 N          70.2460   41.1280  -16.7230 N.am     10 SEL2        0.0000 
     16 N          69.0880   39.2620  -18.5020 N.am      6 SEP2        0.0000 
     17 N          68.9160   38.5515  -14.1700 N.am      2 SEC2        0.0000 
     18 N          69.3450   39.6410  -14.8720 N.am     10 SEL2        0.0000 
     19 N          68.4870   37.4620  -13.4680 N.am      6 SEP2        0.0000 
     20 N          68.1010   39.7700  -14.4020 N.am      2 SEC2        0.0000 
     21 N          66.8570   39.8990  -13.9320 N.am      6 SEP2        0.0000 
     22 N          72.3540   43.3350  -12.2415 N.am      2 SEC2        0.0000 
     23 N          72.9380   42.5070  -13.2210 N.am     10 SEL2        0.0000 
     24 N          71.7700   44.1630  -11.2620 N.am      6 SEP2        0.0000 
     25 Zn         72.6810   42.8075  -16.6855 Zn        3 ZIC7        0.0000 
     26 Zn         72.4330   42.9860  -15.6490 Zn       11 ZIL7        0.0000 
     27 N          71.2395   43.7665  -12.5420 N.am      2 SEC2        0.0000 
     28 N          70.7090   43.3700  -13.8220 N.am     10 SEL2        0.0000 
     29 CA         68.3185   44.8610  -11.8150 C.3       4 GLC5        0.0000 
     30 CA         68.4140   44.1850  -13.7520 C.3      12 GLL5        0.0000 
     31 CA         68.2230   45.5370   -9.8780 C.3       8 GLP5        0.0000 
     32 N          64.8590   47.2570  -14.3910 N.am      2 SEC2        0.0000 
     33 N          65.5700   46.1230  -14.9510 N.am     10 SEL2        0.0000 
     34 N          64.1480   48.3910  -13.8310 N.am      6 SEP2        0.0000 
     35 O          65.3300   45.3805  -16.2930 O.2       1 ALC1        0.0000 
     36 O          65.5700   46.1230  -14.9510 O.2       9 ALL1        0.0000 
     37 O          65.0900   44.6380  -17.6350 O.2       5 ALP1        0.0000 
     38 CA         65.9260   47.6010  -13.1265 C.3       4 GLC5        0.0000 
     39 CA         67.7350   46.4710  -13.8340 C.3      12 GLL5        0.0000 
     40 CA         64.1170   48.7310  -12.4190 C.3       8 GLP5        0.0000 
     41 CA         67.9790   46.0040  -11.8560 C.3       4 GLC5        0.0000 
     42 CA         68.7135   49.4555  -16.7555 C.3       4 GLC5        0.0000 
     43 CA         69.1040   49.7820  -14.6880 C.3      12 GLL5        0.0000 
     44 CA         68.3230   49.1290  -18.8230 C.3       8 GLP5        0.0000 
     45 CA         69.5255   50.1725  -12.3335 C.3       4 GLC5        0.0000 
     46 CA         67.7380   50.6500  -12.4820 C.3      12 GLL5        0.0000 
     47 CA         71.3130   49.6950  -12.1850 C.3       8 GLP5        0.0000 
     48 CA         65.9275   49.6905  -12.4505 C.3       4 GLC5        0.0000 
     49 CA         69.1200   51.0705  -10.8070 C.3       4 GLC5        0.0000 
     50 CA         70.5020   51.4910   -9.1320 C.3       8 GLP5        0.0000 
     51 CA         66.9920   51.0365  -14.3550 C.3       4 GLC5        0.0000 
     52 CA         66.2460   51.4230  -16.2280 C.3       8 GLP5        0.0000 
     53 CA         66.2245   48.8420  -13.1460 C.3       4 GLC5        0.0000 
     54 CA         68.3320   48.9530  -13.8730 C.3      12 GLL5        0.0000 
     55 CA         69.0938   42.4297  -12.7700 C.3       4 GLC5        0.0000 
     56 CA         69.2140   40.9630  -11.3620 C.3       8 GLP5        0.0000 
     57 CA         70.2862   44.7482  -12.7585 C.3       4 GLC5        0.0000 
     58 CA         71.5990   45.6000  -11.3390 C.3       8 GLP5        0.0000 
     59 CA         66.0040   47.2203  -15.4422 C.3       4 GLC5        0.0000 
     60 CA         64.6680   48.3560  -16.5310 C.3       8 GLP5        0.0000 
     61 CA         70.0216   49.7054  -13.1843 C.3       4 GLC5        0.0000 
     62 CA         67.4881   50.5694  -15.2058 C.3       4 GLC5        0.0000 
@<TRIPOS>BOND
@<TRIPOS>SUBSTRUCTURE
     1 ALC1       35 GROUP        1 X    ALC  0     ROOT ALC X 1
     2 SEC2        1 GROUP        1 X    SEC  0     **** SEC X 2
     3 ZIC7       11 GROUP        1 X    ZIC  0     **** ZIC X 5
     4 GLC5       29 GROUP        1 X    GLC  0     **** GLC X 6
     5 ALP1       37 GROUP        1 Y    ALP  0     ROOT ALP Y 8
     6 SEP2        3 GROUP        1 Y    SEP  0     **** SEP Y 9
     7 ZIP7       13 GROUP        1 Y    ZIP  0     **** ZIP Y 12
     8 GLP5       31 GROUP        1 Y    GLP  0     **** GLP Y 13
     9 ALL1       36 GROUP        1 Z    ALL  0     ROOT ALL Z 15
    10 SEL2        2 GROUP        1 Z    SEL  0     **** SEL Z 16
    11 ZIL7       12 GROUP        1 Z    ZIL  0     **** ZIL Z 19
    12 GLL5       30 GROUP        1 Z    GLL  0     **** GLL Z 20
@<TRIPOS>SET

