#    Name: 1q3q_ANP_3_ligand
#    Modification time : Mon Mar 24 22:58:43 2014

@<TRIPOS>MOLECULE
1q3q_ANP_3_ligand
   43    45     1     0     0
SMALL
NO_CHARGES


@<TRIPOS>ATOM
      1 PG         72.8770   39.1760  -16.8920 P.3       1 ANP3528     0.0000 
      2 O1G        73.9760   38.6430  -16.0320 O.co2     1 ANP3528     0.0000 
      3 O2G        72.6110   38.4640  -18.1660 O.co2     1 ANP3528     0.0000 
      4 O3G        73.1260   40.6230  -17.1520 O.co2     1 ANP3528     0.0000 
      5 PB         70.4960   40.2290  -15.5810 P.3       1 ANP3528     0.0000 
      6 O1B        70.2460   41.1280  -16.7230 O.co2     1 ANP3528     0.0000 
      7 O2B        69.3450   39.6410  -14.8720 O.co2     1 ANP3528     0.0000 
      8 N3B        71.4800   39.0320  -16.0650 N.4       1 ANP3528     0.0000 
      9 PA         71.9700   42.5040  -14.3300 P.3       1 ANP3528     0.0000 
     10 O1A        72.9380   42.5070  -13.2210 O.co2     1 ANP3528     0.0000 
     11 O2A        72.4330   42.9860  -15.6490 O.co2     1 ANP3528     0.0000 
     12 O3A        71.3590   40.9960  -14.4400 O.3       1 ANP3528     0.0000 
     13 O5'        70.7090   43.3700  -13.8220 O.3       1 ANP3528     0.0000 
     14 C5'        69.5330   43.6080  -14.6040 C.3       1 ANP3528     0.0000 
     15 C4'        68.4140   44.1850  -13.7520 C.3       1 ANP3528     0.0000 
     16 O4'        68.7470   45.5390  -13.3950 O.3       1 ANP3528     0.0000 
     17 C3'        67.0910   44.2270  -14.4740 C.3       1 ANP3528     0.0000 
     18 O3'        66.0990   43.7210  -13.5660 O.3       1 ANP3528     0.0000 
     19 C2'        66.9450   45.6980  -14.8730 C.3       1 ANP3528     0.0000 
     20 O2'        65.5700   46.1230  -14.9510 O.3       1 ANP3528     0.0000 
     21 C1'        67.7350   46.4710  -13.8340 C.3       1 ANP3528     0.0000 
     22 N9         68.4120   47.6830  -14.3990 N.pl3     1 ANP3528     0.0000 
     23 C8         69.2370   47.8240  -15.5100 C.2       1 ANP3528     0.0000 
     24 N7         69.6700   49.0440  -15.7210 N.2       1 ANP3528     0.0000 
     25 C5         69.1040   49.7820  -14.6880 C.ar      1 ANP3528     0.0000 
     26 C6         69.1530   51.1750  -14.3000 C.ar      1 ANP3528     0.0000 
     27 N6         69.8410   52.1230  -14.9540 N.pl3     1 ANP3528     0.0000 
     28 N1         68.4460   51.5600  -13.1790 N.ar      1 ANP3528     0.0000 
     29 C2         67.7380   50.6500  -12.4820 C.ar      1 ANP3528     0.0000 
     30 N3         67.6170   49.3220  -12.7490 N.ar      1 ANP3528     0.0000 
     31 C4         68.3320   48.9530  -13.8730 C.ar      1 ANP3528     0.0000 
     32 H          69.1617   42.6780  -15.0648 H         1 ANP3528     0.0000 
     33 H          69.7326   44.3164  -15.4247 H         1 ANP3528     0.0000 
     34 H          68.3066   43.5852  -12.8624 H         1 ANP3528     0.0000 
     35 H          67.1917   43.6380  -15.3567 H         1 ANP3528     0.0000 
     36 H          67.4597   45.8192  -15.8238 H         1 ANP3528     0.0000 
     37 H          67.0957   46.7300  -13.0301 H         1 ANP3528     0.0000 
     38 H          69.4606   47.0266  -16.0824 H         1 ANP3528     0.0000 
     39 H          70.3609   51.8179  -15.7519 H         1 ANP3528     0.0000 
     40 H          69.7724   53.0499  -14.5851 H         1 ANP3528     0.0000 
     41 H          67.2006   51.0140  -11.6056 H         1 ANP3528     0.0000 
     42 H          65.4519   44.4736  -13.4443 H         1 ANP3528     0.0000 
     43 H          65.2216   45.7180  -15.7964 H         1 ANP3528     0.0000 
@<TRIPOS>BOND
     1    2    1 ar   
     2    3    1 ar   
     3    4    1 ar   
     4    8    1 1    
     5    6    5 ar   
     6    7    5 ar   
     7    8    5 1    
     8   12    5 1    
     9   10    9 ar   
    10   11    9 ar   
    11   12    9 1    
    12   13    9 1    
    13   14   13 1    
    14   15   14 1    
    15   32   14 1    
    16   33   14 1    
    17   16   15 1    
    18   17   15 1    
    19   34   15 1    
    20   21   16 1    
    21   18   17 1    
    22   19   17 1    
    23   35   17 1    
    24   42   18 1    
    25   20   19 1    
    26   21   19 1    
    27   36   19 1    
    28   43   20 1    
    29   22   21 1    
    30   37   21 1    
    31   23   22 1    
    32   31   22 1    
    33   24   23 2    
    34   38   23 1    
    35   25   24 1    
    36   26   25 ar   
    37   31   25 ar   
    38   27   26 1    
    39   28   26 ar   
    40   39   27 1    
    41   40   27 1    
    42   29   28 ar   
    43   30   29 ar   
    44   41   29 1    
    45   31   30 ar   
@<TRIPOS>SUBSTRUCTURE
     1 ANP3528     1 GROUP   
@<TRIPOS>SET

