#    Name: 3PFT_2_CAVITY_N1_6.mol2
#    Modification time : Mon Mar 10 14:15:53 2014

@<TRIPOS>MOLECULE
3PFT_2_CAVITY_N1_6.mol2
   93     0     5     0     0
SMALL
NO_CHARGES


@<TRIPOS>ATOM
      1 CA         66.9855   28.3260   33.6630 C.3       4 GLY6        0.0000 
      2 OG         67.7245   27.8999   32.4292 O.2       1 SER1        0.0000 
      3 CA         68.4590   31.3350   33.5066 C.3       4 GLY6        0.0000 
      4 OG         67.3657   30.3584   33.1889 O.2       1 SER1        0.0000 
      5 CA         66.2724   29.3818   32.8712 C.3       4 GLY6        0.0000 
      6 OG         67.0115   28.9557   31.6374 O.2       1 SER1        0.0000 
      7 O          65.9182   27.9791   31.3197 O.2       2 ALA2        0.0000 
      8 OD1        65.9136   31.8402   33.6309 O.3       3 ASP3        0.0000 
      9 OD1        66.6527   31.4142   32.3971 O.3       3 ASP3        0.0000 
     10 O          67.3918   30.9881   31.1634 O.2       2 ALA2        0.0000 
     11 OD1        65.5594   30.4376   32.0795 O.3       3 ASP3        0.0000 
     12 OG         66.2985   30.0115   30.8457 O.2       1 SER1        0.0000 
     13 OG         67.0376   29.5854   29.6119 O.2       1 SER1        0.0000 
     14 OD1        64.4661   29.4610   31.7618 O.3       3 ASP3        0.0000 
     15 O          65.2052   29.0349   30.5280 O.2       2 ALA2        0.0000 
     16 OG         66.2939   33.8726   33.1569 O.2       1 SER1        0.0000 
     17 OD1        65.2006   32.8960   32.8392 O.3       3 ASP3        0.0000 
     18 CA         65.9397   32.4700   31.6054 C.3       4 GLY6        0.0000 
     19 OD1        64.8463   31.4934   31.2877 O.3       3 ASP3        0.0000 
     20 OG         65.5854   31.0673   30.0539 O.2       1 SER1        0.0000 
     21 OG         66.3245   30.6412   28.8202 O.2       1 SER1        0.0000 
     22 OD1        63.7530   30.5168   30.9700 O.3       3 ASP3        0.0000 
     23 O          64.4921   30.0907   29.7362 O.2       2 ALA2        0.0000 
     24 OG         65.2312   29.6646   28.5025 O.2       1 SER1        0.0000 
     25 OD1        61.9206   29.9662   31.8861 O.3       3 ASP3        0.0000 
     26 N          62.6597   29.5402   30.6523 N.2       2 ALA2        0.0000 
     27 O          63.3988   29.1141   29.4186 O.2       2 ALA2        0.0000 
     28 CA         64.4875   33.9518   32.0474 C.3       4 GLY6        0.0000 
     29 CA         65.2266   33.5258   30.8136 C.3       4 GLY6        0.0000 
     30 OD1        63.3942   32.9752   31.7297 O.3       3 ASP3        0.0000 
     31 OD1        64.1333   32.5492   30.4960 O.3       3 ASP3        0.0000 
     32 OG         64.8724   32.1231   29.2622 O.2       1 SER1        0.0000 
     33 OD1        62.3009   31.9986   31.4121 O.3       3 ASP3        0.0000 
     34 OD1        63.0400   31.5726   30.1783 O.3       3 ASP3        0.0000 
     35 DU         63.7791   31.1465   28.9445 H         5 CUB7        0.0000 
     36 CA         64.5182   30.7204   27.7107 C.3       4 GLY6        0.0000 
     37 OD1        61.2076   31.0220   31.0944 O.3       3 ASP3        0.0000 
     38 N          61.9467   30.5960   29.8606 N.2       2 ALA2        0.0000 
     39 N          62.6858   30.1699   28.6268 N.2       2 ALA2        0.0000 
     40 CA         63.4249   29.7438   27.3930 C.3       4 GLY6        0.0000 
     41 N          60.1143   30.0454   30.7767 N.2       2 ALA2        0.0000 
     42 CA         61.5925   29.1933   28.3091 C.3       4 GLY6        0.0000 
     43 CA         63.7745   35.0076   31.2557 C.3       4 GLY6        0.0000 
     44 CA         64.5136   34.5816   30.0219 C.3       4 GLY6        0.0000 
     45 CA         62.6812   34.0310   30.9380 C.3       4 GLY6        0.0000 
     46 CA         63.4203   33.6050   29.7042 C.3       4 GLY6        0.0000 
     47 OG         64.1594   33.1789   28.4704 O.2       1 SER1        0.0000 
     48 OG         64.8984   32.7528   27.2367 O.2       1 SER1        0.0000 
     49 DU         61.5879   33.0544   30.6203 H         5 CUB7        0.0000 
     50 DU         62.3270   32.6284   29.3865 H         5 CUB7        0.0000 
     51 DU         63.0660   32.2023   28.1527 H         5 CUB7        0.0000 
     52 CA         63.8051   31.7762   26.9190 C.3       4 GLY6        0.0000 
     53 DU         60.4946   32.0778   30.3026 H         5 CUB7        0.0000 
     54 DU         61.2337   31.6518   29.0688 H         5 CUB7        0.0000 
     55 CA         61.9727   31.2257   27.8351 C.3       4 GLY6        0.0000 
     56 CA         59.4013   31.1012   29.9849 C.3       4 GLY6        0.0000 
     57 CA         60.1403   30.6751   28.7512 C.3       4 GLY6        0.0000 
     58 CA         60.8794   30.2491   27.5174 C.3       4 GLY6        0.0000 
     59 O          64.5396   35.2113   27.9964 O.2       2 ALA2        0.0000 
     60 CA         61.9681   35.0868   30.1462 C.3       4 GLY6        0.0000 
     61 CA         62.7072   34.6608   28.9125 C.3       4 GLY6        0.0000 
     62 DU         63.4463   34.2347   27.6787 H         5 CUB7        0.0000 
     63 CA         64.1854   33.8086   26.4449 C.3       4 GLY6        0.0000 
     64 DU         60.8748   34.1102   29.8286 H         5 CUB7        0.0000 
     65 DU         61.6139   33.6842   28.5948 H         5 CUB7        0.0000 
     66 CA         62.3530   33.2581   27.3610 C.3       4 GLY6        0.0000 
     67 DU         59.7815   33.1336   29.5109 H         5 CUB7        0.0000 
     68 N          60.5206   32.7075   28.2771 N.2       2 ALA2        0.0000 
     69 N          61.2597   32.2815   27.0433 N.2       2 ALA2        0.0000 
     70 CA         58.6882   32.1570   29.1932 C.3       4 GLY6        0.0000 
     71 N          59.4273   31.7309   27.9594 N.2       2 ALA2        0.0000 
     72 O          60.5160   36.5687   30.5883 O.2       2 ALA2        0.0000 
     73 O          61.2551   36.1426   29.3545 O.2       2 ALA2        0.0000 
     74 O          61.9942   35.7166   28.1207 O.2       2 ALA2        0.0000 
     75 O          62.7333   35.2905   26.8869 O.2       2 ALA2        0.0000 
     76 CA         63.4724   34.8644   25.6532 C.3       4 GLY6        0.0000 
     77 DU         60.1618   35.1660   29.0368 H         5 CUB7        0.0000 
     78 N          60.9009   34.7399   27.8030 N.2       2 ALA2        0.0000 
     79 N          61.6400   34.3139   26.5693 N.2       2 ALA2        0.0000 
     80 N          59.0685   34.1894   28.7191 N.2       2 ALA2        0.0000 
     81 N          59.8076   33.7633   27.4853 N.2       2 ALA2        0.0000 
     82 N          60.5421   37.1984   28.5627 N.2       2 ALA2        0.0000 
     83 N          61.2812   36.7724   27.3290 N.2       2 ALA2        0.0000 
     84 N          62.0202   36.3463   26.0952 N.2       2 ALA2        0.0000 
     85 DU         59.4488   36.2218   28.2451 H         5 CUB7        0.0000 
     86 N          60.1878   35.7957   27.0113 N.2       2 ALA2        0.0000 
     87 N          60.9269   35.3697   25.7775 N.2       2 ALA2        0.0000 
     88 N          58.3554   35.2452   27.9274 N.2       2 ALA2        0.0000 
     89 N          59.0945   34.8191   26.6936 N.2       2 ALA2        0.0000 
     90 OG         58.7357   37.2776   27.4533 O.2       1 SER1        0.0000 
     91 N          59.4748   36.8515   26.2195 N.2       2 ALA2        0.0000 
     92 OG         57.6424   36.3010   27.1356 O.2       1 SER1        0.0000 
     93 O          58.3815   35.8749   25.9018 O.2       2 ALA2        0.0000 
@<TRIPOS>BOND
@<TRIPOS>SUBSTRUCTURE
     1 SER1        2 GROUP   
     2 ALA2        7 GROUP   
     3 ASP3        8 GROUP   
     4 GLY6        1 GROUP   
     5 CUB7       35 GROUP   
@<TRIPOS>SET

