#    Name: 3pft_FMN_2_INTS_M
#    Modification time : Tue Mar 25 06:31:08 2014

@<TRIPOS>MOLECULE
3pft_FMN_2_INTS_M
   74     0    12     0     0
SMALL
NO_CHARGES


@<TRIPOS>ATOM
      1 N          63.9800   37.1155   27.6735 N.am      2 SEC2        0.0000 
      2 N          63.1610   36.1370   27.3050 N.am     10 SEL2        0.0000 
      3 N          64.7990   38.0940   28.0420 N.am      6 SEP2        0.0000 
      4 O          61.4755   37.9425   25.7950 O.2       1 ALC1        0.0000 
      5 O          61.0250   36.8470   26.4570 O.2       9 ALL1        0.0000 
      6 O          61.9260   39.0380   25.1330 O.2       5 ALP1        0.0000 
      7 N          57.6105   36.6515   24.8975 N.am      2 SEC2        0.0000 
      8 N          58.8850   37.4170   25.5460 N.am     10 SEL2        0.0000 
      9 N          56.3360   35.8860   24.2490 N.am      6 SEP2        0.0000 
     10 N          57.6990   37.8960   24.4025 N.am      2 SEC2        0.0000 
     11 N          56.5130   38.3750   23.2590 N.am      6 SEP2        0.0000 
     12 N          59.0190   38.3640   24.5975 N.am      2 SEC2        0.0000 
     13 N          59.1530   39.3110   23.6490 N.am      6 SEP2        0.0000 
     14 N          57.0195   35.5635   25.5130 N.am      2 SEC2        0.0000 
     15 N          57.7030   35.2410   26.7770 N.am     10 SEL2        0.0000 
     16 CA         52.1010   32.9095   28.4170 C.3       4 GLC5        0.0000 
     17 CA         53.5540   32.3390   27.5470 C.3      12 GLL5        0.0000 
     18 CA         50.6480   33.4800   29.2870 C.3       8 GLP5        0.0000 
     19 CA         52.2345   31.1445   27.5805 C.3       4 GLC5        0.0000 
     20 CA         50.9150   29.9500   27.6140 C.3       8 GLP5        0.0000 
     21 CA         54.0170   29.0115   30.0355 C.3       4 GLC5        0.0000 
     22 CA         55.3220   30.4090   29.2260 C.3      12 GLL5        0.0000 
     23 CA         52.7120   27.6140   30.8450 C.3       8 GLP5        0.0000 
     24 CA         61.9330   30.8700   26.3285 C.3       4 GLC5        0.0000 
     25 CA         60.8450   31.4430   28.1490 C.3      12 GLL5        0.0000 
     26 CA         63.0210   30.2970   24.5080 C.3       8 GLP5        0.0000 
     27 N          60.0790   30.5380   25.7290 N.am      2 SEC2        0.0000 
     28 N          60.1750   31.0270   27.2330 N.am     10 SEL2        0.0000 
     29 N          59.9830   30.0490   24.2250 N.am      6 SEP2        0.0000 
     30 O          59.8430   31.8155   26.1950 O.2       1 ALC1        0.0000 
     31 O          60.1750   31.0270   27.2330 O.2       9 ALL1        0.0000 
     32 O          59.5110   32.6040   25.1570 O.2       5 ALP1        0.0000 
     33 CA         60.4975   29.0465   28.6960 C.3       4 GLC5        0.0000 
     34 CA         61.6530   30.4010   28.9670 C.3      12 GLL5        0.0000 
     35 CA         59.3420   27.6920   28.4250 C.3       8 GLP5        0.0000 
     36 O          60.7800   28.7915   30.2745 O.2       1 ALC1        0.0000 
     37 O          60.9360   30.0360   30.1180 O.2       9 ALL1        0.0000 
     38 O          60.6240   27.5470   30.4310 O.2       5 ALP1        0.0000 
     39 CA         63.5805   28.9885   31.9210 C.3       4 GLC5        0.0000 
     40 CA         63.7720   29.7250   30.0470 C.3      12 GLL5        0.0000 
     41 CA         63.3890   28.2520   33.7950 C.3       8 GLP5        0.0000 
     42 N          64.1690   30.4020   32.2875 N.am      2 SEC2        0.0000 
     43 N          64.9050   30.0770   30.8020 N.am     10 SEL2        0.0000 
     44 N          63.4330   30.7270   33.7730 N.am      6 SEP2        0.0000 
     45 N          66.9815   31.9245   28.2370 N.am      2 SEC2        0.0000 
     46 N          66.3740   30.8570   28.6950 N.am     10 SEL2        0.0000 
     47 N          67.5890   32.9920   27.7790 N.am      6 SEP2        0.0000 
     48 N          67.8525   30.5945   28.2295 N.am      2 SEC2        0.0000 
     49 N          69.3310   30.3320   27.7640 N.am      6 SEP2        0.0000 
     50 N          66.8600   29.5955   27.8910 N.am      2 SEC2        0.0000 
     51 N          67.3460   28.3340   27.0870 N.am      6 SEP2        0.0000 
     52 N          68.4745   31.1635   30.5835 N.am      2 SEC2        0.0000 
     53 N          67.4560   30.5080   31.1450 N.am     10 SEL2        0.0000 
     54 N          69.4930   31.8190   30.0220 N.am      6 SEP2        0.0000 
     55 N          68.5695   29.7260   31.0075 N.am      2 SEC2        0.0000 
     56 N          69.6830   28.9440   30.8700 N.am      6 SEP2        0.0000 
     57 NZ         65.7385   27.5855   29.2585 N.4       3 LYC4        0.0000 
     58 NZ         66.6190   28.5380   29.7000 N.4      11 LYL4        0.0000 
     59 NZ         64.4470   26.3460   27.5880 N.4       7 LYP4        0.0000 
     60 N          66.9825   28.4360   28.3935 N.am      2 SEC2        0.0000 
     61 N          66.6190   28.5380   29.7000 N.am     10 SEL2        0.0000 
     62 N          65.7385   27.5855   29.2585 N.am      2 SEC2        0.0000 
     63 N          64.8580   26.6330   28.8170 N.am      6 SEP2        0.0000 
     64 CA         57.3068   34.2220   25.4537 C.3       4 GLC5        0.0000 
     65 CA         57.1550   34.0970   27.3660 C.3      12 GLL5        0.0000 
     66 CA         58.2060   34.4940   23.6360 C.3       8 GLP5        0.0000 
     67 CA         55.3317   35.2770   26.2907 C.3       4 GLC5        0.0000 
     68 CA         54.2560   36.6040   25.3100 C.3       8 GLP5        0.0000 
     69 CA         57.1133   30.9982   26.7108 C.3       4 GLC5        0.0000 
     70 CA         55.9090   31.6900   28.6010 C.3      12 GLL5        0.0000 
     71 CA         57.5810   30.1650   24.7270 C.3       8 GLP5        0.0000 
     72 CA         57.3619   30.0481   28.9214 C.3       4 GLC5        0.0000 
     73 CA         58.2250   28.5850   28.9920 C.3       8 GLP5        0.0000 
     74 CA         59.3915   30.2953   28.7995 C.3       4 GLC5        0.0000 
@<TRIPOS>BOND
@<TRIPOS>SUBSTRUCTURE
     1 ALC1        4 GROUP        1 X    ALC  0     ROOT ALC X 1
     2 SEC2        1 GROUP        1 X    SEC  0     **** SEC X 2
     3 LYC4       57 GROUP        1 X    LYC  0     **** LYC X 4
     4 GLC5       16 GROUP        1 X    GLC  0     **** GLC X 6
     5 ALP1        6 GROUP        1 Y    ALP  0     ROOT ALP Y 8
     6 SEP2        3 GROUP        1 Y    SEP  0     **** SEP Y 9
     7 LYP4       59 GROUP        1 Y    LYP  0     **** LYP Y 11
     8 GLP5       18 GROUP        1 Y    GLP  0     **** GLP Y 13
     9 ALL1        5 GROUP        1 Z    ALL  0     ROOT ALL Z 15
    10 SEL2        2 GROUP        1 Z    SEL  0     **** SEL Z 16
    11 LYL4       58 GROUP        1 Z    LYL  0     **** LYL Z 18
    12 GLL5       17 GROUP        1 Z    GLL  0     **** GLL Z 20
@<TRIPOS>SET

