#    Name: 3pft_FMN_2_ligand
#    Modification time : Tue Mar 25 06:31:08 2014

@<TRIPOS>MOLECULE
3pft_FMN_2_ligand
   50    52     1     0     0
SMALL
NO_CHARGES


@<TRIPOS>ATOM
      1 N1         61.2070   34.7800   27.8520 N.2       1 FMN402      0.0000 
      2 C2         61.7970   35.9660   27.2250 C.2       1 FMN402      0.0000 
      3 O2         63.1610   36.1370   27.3050 O.2       1 FMN402      0.0000 
      4 N3         61.0250   36.8470   26.4570 N.am      1 FMN402      0.0000 
      5 C4         59.6830   36.5930   26.3210 C.2       1 FMN402      0.0000 
      6 O4         58.8850   37.4170   25.5460 O.2       1 FMN402      0.0000 
      7 C4A        59.1010   35.4610   26.9280 C.2       1 FMN402      0.0000 
      8 N5         57.7030   35.2410   26.7770 N.2       1 FMN402      0.0000 
      9 C5A        57.1550   34.0970   27.3660 C.ar      1 FMN402      0.0000 
     10 C6         55.6600   33.8030   27.1770 C.ar      1 FMN402      0.0000 
     11 C7         55.0520   32.6240   27.7880 C.ar      1 FMN402      0.0000 
     12 C7M        53.5540   32.3390   27.5470 C.3       1 FMN402      0.0000 
     13 C8         55.9090   31.6900   28.6010 C.ar      1 FMN402      0.0000 
     14 C8M        55.3220   30.4090   29.2260 C.3       1 FMN402      0.0000 
     15 C9         57.3820   31.9730   28.7880 C.ar      1 FMN402      0.0000 
     16 C9A        57.9880   33.1850   28.1640 C.ar      1 FMN402      0.0000 
     17 N10        59.3620   33.4370   28.3060 N.pl3     1 FMN402      0.0000 
     18 C10        59.9170   34.5670   27.7020 C.2       1 FMN402      0.0000 
     19 C1'        60.2710   32.5680   29.0650 C.3       1 FMN402      0.0000 
     20 C2'        60.8450   31.4430   28.1490 C.3       1 FMN402      0.0000 
     21 O2'        60.1750   31.0270   27.2330 O.3       1 FMN402      0.0000 
     22 C3'        61.6530   30.4010   28.9670 C.3       1 FMN402      0.0000 
     23 O3'        60.9360   30.0360   30.1180 O.3       1 FMN402      0.0000 
     24 C4'        63.0660   30.8900   29.3170 C.3       1 FMN402      0.0000 
     25 O4'        63.8320   31.3470   28.2230 O.3       1 FMN402      0.0000 
     26 C5'        63.7720   29.7250   30.0470 C.3       1 FMN402      0.0000 
     27 O5'        64.9050   30.0770   30.8020 O.3       1 FMN402      0.0000 
     28 P          66.3720   29.9510   30.0530 P.3       1 FMN402      0.0000 
     29 O1P        66.3740   30.8570   28.6950 O.co2     1 FMN402      0.0000 
     30 O2P        67.4560   30.5080   31.1450 O.co2     1 FMN402      0.0000 
     31 O3P        66.6190   28.5380   29.7000 O.co2     1 FMN402      0.0000 
     32 H          61.4619   37.6544   26.0146 H         1 FMN402      0.0000 
     33 H          55.1271   34.4417   26.6269 H         1 FMN402      0.0000 
     34 H          57.9349   31.3515   29.3237 H         1 FMN402      0.0000 
     35 H          59.7538   32.0846   29.8953 H         1 FMN402      0.0000 
     36 H          61.1162   33.1319   29.4628 H         1 FMN402      0.0000 
     37 H          61.7975   32.0686   27.6732 H         1 FMN402      0.0000 
     38 H          61.7750   29.5215   28.3021 H         1 FMN402      0.0000 
     39 H          62.9422   31.6777   30.0826 H         1 FMN402      0.0000 
     40 H          64.0165   28.9622   29.2605 H         1 FMN402      0.0000 
     41 H          62.9885   29.2282   30.6791 H         1 FMN402      0.0000 
     42 H          53.3499   32.2219   26.5751 H         1 FMN402      0.0000 
     43 H          53.2551   31.5055   28.0117 H         1 FMN402      0.0000 
     44 H          52.9759   33.0838   27.8803 H         1 FMN402      0.0000 
     45 H          56.0126   29.8928   29.7326 H         1 FMN402      0.0000 
     46 H          54.5812   30.6137   29.8658 H         1 FMN402      0.0000 
     47 H          54.9479   29.7946   28.5313 H         1 FMN402      0.0000 
     48 H          60.1119   31.7910   26.5909 H         1 FMN402      0.0000 
     49 H          61.2889   29.1342   30.3675 H         1 FMN402      0.0000 
     50 H          64.7770   31.1155   28.4542 H         1 FMN402      0.0000 
@<TRIPOS>BOND
     1    2    1 1    
     2   18    1 2    
     3    3    2 2    
     4    4    2 am   
     5    5    4 am   
     6   32    4 1    
     7    6    5 2    
     8    7    5 1    
     9    8    7 2    
    10   18    7 1    
    11    9    8 1    
    12   10    9 ar   
    13   16    9 ar   
    14   11   10 ar   
    15   33   10 1    
    16   12   11 1    
    17   13   11 ar   
    18   42   12 1    
    19   43   12 1    
    20   44   12 1    
    21   14   13 1    
    22   15   13 ar   
    23   45   14 1    
    24   46   14 1    
    25   47   14 1    
    26   16   15 ar   
    27   34   15 1    
    28   17   16 1    
    29   18   17 1    
    30   19   17 1    
    31   20   19 1    
    32   35   19 1    
    33   36   19 1    
    34   21   20 1    
    35   22   20 1    
    36   37   20 1    
    37   48   21 1    
    38   23   22 1    
    39   24   22 1    
    40   38   22 1    
    41   49   23 1    
    42   25   24 1    
    43   26   24 1    
    44   39   24 1    
    45   50   25 1    
    46   27   26 1    
    47   40   26 1    
    48   41   26 1    
    49   28   27 1    
    50   29   28 ar   
    51   30   28 ar   
    52   31   28 ar   
@<TRIPOS>SUBSTRUCTURE
     1 FMN402      1 GROUP   
@<TRIPOS>SET

