#    Name: 1zgc_A2E_2_INTS_M
#    Modification time : Tue Mar 25 11:45:34 2014

@<TRIPOS>MOLECULE
1zgc_A2E_2_INTS_M
   82     0     9     0     0
SMALL
NO_CHARGES


@<TRIPOS>ATOM
      1 N          84.8280   54.3245   74.9770 N.am      2 SEC2        0.0000 
      2 N          83.8790   53.9340   76.2100 N.am      8 SEL2        0.0000 
      3 N          85.7770   54.7150   73.7440 N.am      5 SEP2        0.0000 
      4 CA         80.9655   51.9130   77.2025 C.3       3 GLC5        0.0000 
      5 CA         81.5850   53.8450   76.7300 C.3       9 GLL5        0.0000 
      6 CA         80.3460   49.9810   77.6750 C.3       6 GLP5        0.0000 
      7 CA         82.4625   58.6530   78.2135 C.3       3 GLC5        0.0000 
      8 CA         81.5610   58.1920   76.4560 C.3       9 GLL5        0.0000 
      9 CA         83.3640   59.1140   79.9710 C.3       6 GLP5        0.0000 
     10 CA         82.8430   59.8085   76.6505 C.3       3 GLC5        0.0000 
     11 CA         84.1250   61.4250   76.8450 C.3       6 GLP5        0.0000 
     12 CA         81.4610   50.9580   80.3690 C.3       3 GLC5        0.0000 
     13 CA         82.6020   52.3880   80.6220 C.3       9 GLL5        0.0000 
     14 CA         80.3200   49.5280   80.1160 C.3       6 GLP5        0.0000 
     15 CA         82.3220   50.7705   83.8370 C.3       3 GLC5        0.0000 
     16 CA         82.9210   51.4620   81.8070 C.3       9 GLL5        0.0000 
     17 CA         81.7230   50.0790   85.8670 C.3       6 GLP5        0.0000 
     18 CA         84.8705   49.5135   80.0105 C.3       3 GLC5        0.0000 
     19 CA         84.0720   50.4790   81.4800 C.3       9 GLL5        0.0000 
     20 CA         85.6690   48.5480   78.5410 C.3       6 GLP5        0.0000 
     21 CA         83.1305   49.9690   84.3030 C.3       3 GLC5        0.0000 
     22 CA         84.5380   49.8590   82.7390 C.3       9 GLL5        0.0000 
     23 CA         85.8310   49.0025   80.6835 C.3       3 GLC5        0.0000 
     24 CA         85.9930   49.4570   82.8260 C.3       9 GLL5        0.0000 
     25 O          85.0850   47.7915   84.1715 O.2       1 ALC1        0.0000 
     26 O          86.1240   48.0050   82.8380 O.2       7 ALL1        0.0000 
     27 O          84.0460   47.5780   85.5050 O.2       4 ALP1        0.0000 
     28 CA         85.0590   46.6305   79.8225 C.3       3 GLC5        0.0000 
     29 CA         85.1990   45.7390   81.5850 C.3       9 GLL5        0.0000 
     30 CA         84.9190   47.5220   78.0600 C.3       6 GLP5        0.0000 
     31 CA         87.8425   43.7860   82.0550 C.3       3 GLC5        0.0000 
     32 CA         86.9270   43.9910   80.2270 C.3       9 GLL5        0.0000 
     33 CA         88.7580   43.5810   83.8830 C.3       6 GLP5        0.0000 
     34 CA         86.8530   45.1130   78.9000 C.3       3 GLC5        0.0000 
     35 CA         86.7790   46.2350   77.5730 C.3       6 GLP5        0.0000 
     36 CA         85.0790   44.5385   78.6210 C.3       3 GLC5        0.0000 
     37 CA         85.5510   43.7460   80.2600 C.3       9 GLL5        0.0000 
     38 CA         84.6070   45.3310   76.9820 C.3       6 GLP5        0.0000 
     39 CA         85.0750   45.5165   79.2150 C.3       3 GLC5        0.0000 
     40 CA         84.6880   44.6290   80.9370 C.3       9 GLL5        0.0000 
     41 CA         85.4620   46.4040   77.4930 C.3       6 GLP5        0.0000 
     42 CA         82.9550   45.7930   80.3880 C.3       3 GLC5        0.0000 
     43 CA         81.2220   46.9570   79.8390 C.3       6 GLP5        0.0000 
     44 O          89.3900   44.5250   79.8120 O.2       1 ALC1        0.0000 
     45 O          88.7500   45.3250   80.8150 O.2       7 ALL1        0.0000 
     46 O          90.0300   43.7250   78.8090 O.2       4 ALP1        0.0000 
     47 CA         91.6485   44.7370   80.6520 C.3       3 GLC5        0.0000 
     48 CA         90.9090   46.3420   81.2490 C.3       9 GLL5        0.0000 
     49 CA         92.3880   43.1320   80.0550 C.3       6 GLP5        0.0000 
     50 CA         88.3715   47.3805   84.4500 C.3       3 GLC5        0.0000 
     51 CA         89.4000   48.4370   82.8660 C.3       9 GLL5        0.0000 
     52 CA         87.3430   46.3240   86.0340 C.3       6 GLP5        0.0000 
     53 CA         93.0160   48.6245   80.4815 C.3       3 GLC5        0.0000 
     54 CA         91.4670   47.7560   81.5710 C.3       9 GLL5        0.0000 
     55 CA         94.5650   49.4930   79.3920 C.3       6 GLP5        0.0000 
     56 CA         79.8407   53.2368   75.5790 C.3       3 GLC5        0.0000 
     57 CA         78.6970   52.2860   74.3090 C.3       6 GLP5        0.0000 
     58 CA         79.8348   55.9135   82.8982 C.3       3 GLC5        0.0000 
     59 CA         80.6050   55.6890   80.7740 C.3       9 GLL5        0.0000 
     60 CA         79.7900   55.9130   84.9960 C.3       6 GLP5        0.0000 
     61 CA         81.3793   57.0780   81.4818 C.3       3 GLC5        0.0000 
     62 CA         79.1540   56.1390   80.8270 C.3       9 GLL5        0.0000 
     63 CA         82.8790   58.2420   82.1630 C.3       6 GLP5        0.0000 
     64 CA         81.1680   54.5165   83.0805 C.3       3 GLC5        0.0000 
     65 CA         80.8200   54.2280   81.2180 C.3       9 GLL5        0.0000 
     66 CA         80.7680   54.9860   85.0250 C.3       6 GLP5        0.0000 
     67 CA         82.6880   55.6250   81.5760 C.3       3 GLC5        0.0000 
     68 CA         83.8080   57.2030   82.0160 C.3       6 GLP5        0.0000 
     69 CA         82.2676   49.6144   81.6831 C.3       3 GLC5        0.0000 
     70 CA         80.5180   48.8140   81.1750 C.3       6 GLP5        0.0000 
     71 CA         87.6142   46.7990   84.1255 C.3       3 GLC5        0.0000 
     72 CA         87.1310   47.2100   82.2340 C.3       9 GLL5        0.0000 
     73 CA         86.8010   42.9283   78.7372 C.3       3 GLC5        0.0000 
     74 CA         87.3630   41.9880   77.2310 C.3       6 GLP5        0.0000 
     75 CA         87.1300   42.2632   80.5037 C.3       3 GLC5        0.0000 
     76 CA         88.0210   40.6580   80.7640 C.3       6 GLP5        0.0000 
     77 CA         86.0036   44.4200   82.6128 C.3       3 GLC5        0.0000 
     78 CA         86.7600   44.3750   84.4650 C.3       6 GLP5        0.0000 
     79 CA         83.7737   43.0778   80.9862 C.3       3 GLC5        0.0000 
     80 CA         82.4280   41.9680   81.3740 C.3       6 GLP5        0.0000 
     81 CA         90.8312   50.1312   83.1340 C.3       3 GLC5        0.0000 
     82 CA         91.5040   51.9290   83.3760 C.3       6 GLP5        0.0000 
@<TRIPOS>BOND
@<TRIPOS>SUBSTRUCTURE
     1 ALC1       25 GROUP        1 X    ALC  0     ROOT ALC X 1
     2 SEC2        1 GROUP        1 X    SEC  0     **** SEC X 2
     3 GLC5        4 GROUP        1 X    GLC  0     **** GLC X 6
     4 ALP1       27 GROUP        1 Y    ALP  0     ROOT ALP Y 8
     5 SEP2        3 GROUP        1 Y    SEP  0     **** SEP Y 9
     6 GLP5        6 GROUP        1 Y    GLP  0     **** GLP Y 13
     7 ALL1       26 GROUP        1 Z    ALL  0     ROOT ALL Z 15
     8 SEL2        2 GROUP        1 Z    SEL  0     **** SEL Z 16
     9 GLL5        5 GROUP        1 Z    GLL  0     **** GLL Z 20
@<TRIPOS>SET

