#    Name: 1zgc_A2E_2_ligand
#    Modification time : Tue Mar 25 11:45:34 2014

@<TRIPOS>MOLECULE
1zgc_A2E_2_ligand
   81    85     1     0     0
SMALL
NO_CHARGES


@<TRIPOS>ATOM
      1 O11        83.8790   53.9340   76.2100 O.2       1 A2E1001     0.0000 
      2 C9         82.7490   54.5610   76.4070 C.2       1 A2E1001     0.0000 
      3 C8         81.5850   53.8450   76.7300 C.2       1 A2E1001     0.0000 
      4 N10        82.6840   55.9310   76.3460 N.am      1 A2E1001     0.0000 
      5 C5         81.5460   56.6430   76.5320 C.2       1 A2E1001     0.0000 
      6 C6         81.5610   58.1920   76.4560 C.3       1 A2E1001     0.0000 
      7 C4         80.3130   55.9380   76.8950 C.2       1 A2E1001     0.0000 
      8 C7         80.3840   54.5300   76.9680 C.2       1 A2E1001     0.0000 
      9 C3         79.0000   56.7080   77.1550 C.3       1 A2E1001     0.0000 
     10 C2         79.1090   58.2780   77.0780 C.3       1 A2E1001     0.0000 
     11 C1         80.2030   58.8020   76.1360 C.3       1 A2E1001     0.0000 
     12 N12        78.3970   56.2790   78.4810 N.4       1 A2E1001     0.0000 
     13 C13        78.8190   57.0940   79.7000 C.3       1 A2E1001     0.0000 
     14 C14        79.1540   56.1390   80.8270 C.3       1 A2E1001     0.0000 
     15 C15        80.6050   55.6890   80.7740 C.3       1 A2E1001     0.0000 
     16 C16        80.8200   54.2280   81.2180 C.3       1 A2E1001     0.0000 
     17 C17        82.3160   53.8660   81.0540 C.3       1 A2E1001     0.0000 
     18 C18        82.6020   52.3880   80.6220 C.3       1 A2E1001     0.0000 
     19 C19        82.9210   51.4620   81.8070 C.3       1 A2E1001     0.0000 
     20 C20        84.0720   50.4790   81.4800 C.3       1 A2E1001     0.0000 
     21 C21        84.5380   49.8590   82.7390 C.3       1 A2E1001     0.0000 
     22 C22        85.9930   49.4570   82.8260 C.3       1 A2E1001     0.0000 
     23 N23        86.1240   48.0050   82.8380 N.pl3     1 A2E1001     0.0000 
     24 C24        87.1310   47.2100   82.2340 C.ar      1 A2E1001     0.0000 
     25 C25        86.5750   46.0240   81.5470 C.ar      1 A2E1001     0.0000 
     26 C30        85.1990   45.7390   81.5850 C.3       1 A2E1001     0.0000 
     27 C26        87.4560   45.1220   80.8470 C.ar      1 A2E1001     0.0000 
     28 C33        86.9270   43.9910   80.2270 C.3       1 A2E1001     0.0000 
     29 C32        85.5510   43.7460   80.2600 C.3       1 A2E1001     0.0000 
     30 C31        84.6880   44.6290   80.9370 C.3       1 A2E1001     0.0000 
     31 N27        88.7500   45.3250   80.8150 N.pl3     1 A2E1001     0.0000 
     32 C28        89.3840   46.3160   81.4180 C.ar      1 A2E1001     0.0000 
     33 C34        90.9090   46.3420   81.2490 C.ar      1 A2E1001     0.0000 
     34 C29        88.6400   47.3380   82.2000 C.ar      1 A2E1001     0.0000 
     35 C37        89.4000   48.4370   82.8660 C.ar      1 A2E1001     0.0000 
     36 C36        90.9170   48.2300   82.9180 C.ar      1 A2E1001     0.0000 
     37 C35        91.4670   47.7560   81.5710 C.ar      1 A2E1001     0.0000 
     38 H          81.6133   52.8235   76.7917 H         1 A2E1001     0.0000 
     39 H          83.5850   56.4588   76.1399 H         1 A2E1001     0.0000 
     40 H          82.2876   58.4934   75.6882 H         1 A2E1001     0.0000 
     41 H          81.9195   58.5819   77.4192 H         1 A2E1001     0.0000 
     42 H          79.5314   53.9961   77.2019 H         1 A2E1001     0.0000 
     43 H          78.2785   56.4040   76.3646 H         1 A2E1001     0.0000 
     44 H          79.2923   58.6536   78.0957 H         1 A2E1001     0.0000 
     45 H          78.1320   58.6684   76.7565 H         1 A2E1001     0.0000 
     46 H          79.9295   58.5598   75.1068 H         1 A2E1001     0.0000 
     47 H          80.2613   59.8884   76.2313 H         1 A2E1001     0.0000 
     48 H          78.0046   57.7395   79.9979 H         1 A2E1001     0.0000 
     49 H          79.6892   57.6851   79.4510 H         1 A2E1001     0.0000 
     50 H          78.5031   55.2603   80.7636 H         1 A2E1001     0.0000 
     51 H          78.9655   56.6307   81.7874 H         1 A2E1001     0.0000 
     52 H          81.2134   56.3426   81.4181 H         1 A2E1001     0.0000 
     53 H          80.9843   55.8009   79.7465 H         1 A2E1001     0.0000 
     54 H          80.2280   53.5748   80.5986 H         1 A2E1001     0.0000 
     55 H          80.5424   54.1241   82.2538 H         1 A2E1001     0.0000 
     56 H          82.8354   54.0525   82.0077 H         1 A2E1001     0.0000 
     57 H          82.7659   54.5369   80.3046 H         1 A2E1001     0.0000 
     58 H          83.4459   52.3914   79.9261 H         1 A2E1001     0.0000 
     59 H          81.7234   52.0098   80.0915 H         1 A2E1001     0.0000 
     60 H          82.0307   50.8877   82.0643 H         1 A2E1001     0.0000 
     61 H          83.2085   52.0659   82.6680 H         1 A2E1001     0.0000 
     62 H          84.8690   51.0381   81.0046 H         1 A2E1001     0.0000 
     63 H          83.6923   49.7297   80.7958 H         1 A2E1001     0.0000 
     64 H          83.9122   48.9493   82.9593 H         1 A2E1001     0.0000 
     65 H          84.3167   50.5516   83.5987 H         1 A2E1001     0.0000 
     66 H          86.4215   49.8929   83.7375 H         1 A2E1001     0.0000 
     67 H          86.5258   49.8877   81.9686 H         1 A2E1001     0.0000 
     68 H          85.3540   47.4852   83.3756 H         1 A2E1001     0.0000 
     69 H          84.6226   46.6838   81.2314 H         1 A2E1001     0.0000 
     70 H          84.8633   45.7174   82.6971 H         1 A2E1001     0.0000 
     71 H          87.4800   43.0532   80.6260 H         1 A2E1001     0.0000 
     72 H          87.2807   43.9704   79.1229 H         1 A2E1001     0.0000 
     73 H          85.3706   42.6754   80.6625 H         1 A2E1001     0.0000 
     74 H          85.1673   43.6170   79.1752 H         1 A2E1001     0.0000 
     75 H          83.8602   44.9651   80.1992 H         1 A2E1001     0.0000 
     76 H          84.0488   44.0128   81.6816 H         1 A2E1001     0.0000 
     77 H          89.3572   44.6223   80.2462 H         1 A2E1001     0.0000 
     78 H          91.4201   45.6390   80.9979 H         1 A2E1001     0.0000 
     79 H          88.9928   49.2109   83.2343 H         1 A2E1001     0.0000 
     80 H          91.4314   48.3728   83.6648 H         1 A2E1001     0.0000 
     81 H          92.0273   48.2154   81.0385 H         1 A2E1001     0.0000 
@<TRIPOS>BOND
     1    2    1 2    
     2    3    2 1    
     3    4    2 am   
     4    8    3 2    
     5   38    3 1    
     6    5    4 1    
     7   39    4 1    
     8    6    5 1    
     9    7    5 2    
    10   11    6 1    
    11   40    6 1    
    12   41    6 1    
    13    8    7 1    
    14    9    7 1    
    15   42    8 1    
    16   10    9 1    
    17   12    9 1    
    18   43    9 1    
    19   11   10 1    
    20   44   10 1    
    21   45   10 1    
    22   46   11 1    
    23   47   11 1    
    24   13   12 1    
    25   14   13 1    
    26   48   13 1    
    27   49   13 1    
    28   15   14 1    
    29   50   14 1    
    30   51   14 1    
    31   16   15 1    
    32   52   15 1    
    33   53   15 1    
    34   17   16 1    
    35   54   16 1    
    36   55   16 1    
    37   18   17 1    
    38   56   17 1    
    39   57   17 1    
    40   19   18 1    
    41   58   18 1    
    42   59   18 1    
    43   20   19 1    
    44   60   19 1    
    45   61   19 1    
    46   21   20 1    
    47   62   20 1    
    48   63   20 1    
    49   22   21 1    
    50   64   21 1    
    51   65   21 1    
    52   23   22 1    
    53   66   22 1    
    54   67   22 1    
    55   24   23 1    
    56   68   23 1    
    57   25   24 ar   
    58   34   24 ar   
    59   26   25 1    
    60   27   25 ar   
    61   30   26 1    
    62   69   26 1    
    63   70   26 1    
    64   28   27 1    
    65   31   27 ar   
    66   29   28 1    
    67   71   28 1    
    68   72   28 1    
    69   30   29 1    
    70   73   29 1    
    71   74   29 1    
    72   75   30 1    
    73   76   30 1    
    74   32   31 ar   
    75   77   31 1    
    76   33   32 ar   
    77   34   32 ar   
    78   37   33 ar   
    79   78   33 1    
    80   35   34 ar   
    81   36   35 ar   
    82   79   35 1    
    83   37   36 ar   
    84   80   36 1    
    85   81   37 1    
@<TRIPOS>SUBSTRUCTURE
     1 A2E1001     1 GROUP   
@<TRIPOS>SET

