#    Name: 1xl5_190_1_INTS_M
#    Modification time : Tue Mar 25 10:17:20 2014

@<TRIPOS>MOLECULE
1xl5_190_1_INTS_M
   96     0     9     0     0
SMALL
NO_CHARGES


@<TRIPOS>ATOM
      1 CA         13.5340   18.2850    1.9370 C.3       3 GLC5        0.0000 
      2 CA         15.4830   18.7010    1.2020 C.3       9 GLL5        0.0000 
      3 CA         11.5850   17.8690    2.6720 C.3       6 GLP5        0.0000 
      4 CA         14.2710   18.2570   -0.1285 C.3       3 GLC5        0.0000 
      5 CA         13.0590   17.8130   -1.4590 C.3       6 GLP5        0.0000 
      6 CA         15.0065   20.3990    0.0095 C.3       3 GLC5        0.0000 
      7 CA         14.5300   22.0970   -1.1830 C.3       6 GLP5        0.0000 
      8 CA         13.1435   18.5990    3.6115 C.3       3 GLC5        0.0000 
      9 CA         14.7020   19.3290    4.5510 C.3       9 GLL5        0.0000 
     10 CA         13.6555   18.5715    6.2630 C.3       3 GLC5        0.0000 
     11 CA         12.6090   17.8140    7.9750 C.3       6 GLP5        0.0000 
     12 CA         16.3625   24.2030    5.9505 C.3       3 GLC5        0.0000 
     13 CA         14.7340   23.2720    7.1380 C.3       9 GLL5        0.0000 
     14 CA         17.9910   25.1340    4.7630 C.3       6 GLP5        0.0000 
     15 CA         18.8155   22.5870    8.7665 C.3       3 GLC5        0.0000 
     16 CA         18.6530   20.4050    9.1620 C.3       9 GLL5        0.0000 
     17 CA         18.9780   24.7690    8.3710 C.3       6 GLP5        0.0000 
     18 CA         17.7150   23.2935    8.2935 C.3       3 GLC5        0.0000 
     19 CA         16.4520   21.8180    8.2160 C.3       9 GLL5        0.0000 
     20 N          14.4295   24.3945    3.4140 N.am      2 SEC2        0.0000 
     21 N          14.6100   24.5090    4.7010 N.am      8 SEL2        0.0000 
     22 N          14.2490   24.2800    2.1270 N.am      5 SEP2        0.0000 
     23 O          15.1045   25.8200    4.6745 O.2       1 ALC1        0.0000 
     24 O          14.6100   24.5090    4.7010 O.2       7 ALL1        0.0000 
     25 O          15.5990   27.1310    4.6480 O.2       4 ALP1        0.0000 
     26 O          14.7220   25.3840    5.6040 O.2       1 ALC1        0.0000 
     27 O          14.8340   26.2590    6.5070 O.2       4 ALP1        0.0000 
     28 CA         11.9215   26.7540    5.7285 C.3       3 GLC5        0.0000 
     29 CA         12.3630   24.6560    5.6450 C.3       9 GLL5        0.0000 
     30 CA         11.4800   28.8520    5.8120 C.3       6 GLP5        0.0000 
     31 CA         12.1335   25.5840    9.6825 C.3       3 GLC5        0.0000 
     32 CA         10.3690   26.2150    8.6210 C.3       9 GLL5        0.0000 
     33 CA         13.8980   24.9530   10.7440 C.3       6 GLP5        0.0000 
     34 CA         10.4905   27.0895   11.0400 C.3       3 GLC5        0.0000 
     35 CA          9.7360   27.3910    9.0750 C.3       9 GLL5        0.0000 
     36 CA         11.2450   26.7880   13.0050 C.3       6 GLP5        0.0000 
     37 CA          7.8030   26.5585   10.6955 C.3       3 GLC5        0.0000 
     38 CA          8.3680   27.5550    8.8560 C.3       9 GLL5        0.0000 
     39 CA          7.2380   25.5620   12.5350 C.3       6 GLP5        0.0000 
     40 CA          7.4970   29.9965    7.4190 C.3       3 GLC5        0.0000 
     41 CA          7.7590   28.6750    9.2160 C.3       9 GLL5        0.0000 
     42 CA          7.2350   31.3180    5.6220 C.3       6 GLP5        0.0000 
     43 CA          6.2145   27.7250   10.3705 C.3       3 GLC5        0.0000 
     44 CA          4.6700   26.7750   11.5250 C.3       6 GLP5        0.0000 
     45 CA          7.1695   29.2450   11.1650 C.3       3 GLC5        0.0000 
     46 CA          6.5800   29.8150   13.1140 C.3       6 GLP5        0.0000 
     47 CA          6.3530   25.9610    9.7050 C.3       3 GLC5        0.0000 
     48 CA          7.6210   26.5830    8.1840 C.3       9 GLL5        0.0000 
     49 CA          5.0850   25.3390   11.2260 C.3       6 GLP5        0.0000 
     50 CA          9.9725   25.6040    0.9765 C.3       3 GLC5        0.0000 
     51 CA          9.2720   24.4560    2.2640 C.3       9 GLL5        0.0000 
     52 CA         10.6730   26.7520   -0.3110 C.3       6 GLP5        0.0000 
     53 CA          8.8290   23.9970    0.4445 C.3       3 GLC5        0.0000 
     54 CA          8.3860   23.5380   -1.3750 C.3       6 GLP5        0.0000 
     55 CA          8.3330   21.1565    2.7055 C.3       3 GLC5        0.0000 
     56 CA          9.8730   22.2850    3.3280 C.3       9 GLL5        0.0000 
     57 CA          6.7930   20.0280    2.0830 C.3       6 GLP5        0.0000 
     58 CA         16.5405   20.2130    1.5768 C.3       3 GLC5        0.0000 
     59 CA         16.5430   18.1930    2.1710 C.3       9 GLL5        0.0000 
     60 CA         17.0680   21.9790    1.4670 C.3       6 GLP5        0.0000 
     61 CA         15.0280   16.5860    1.5787 C.3       3 GLC5        0.0000 
     62 CA         14.0430   14.7250    1.4710 C.3       6 GLP5        0.0000 
     63 CA         18.8132   16.8422    0.6402 C.3       3 GLC5        0.0000 
     64 CA         17.4130   17.1790    1.7680 C.3       9 GLL5        0.0000 
     65 CA         19.7520   16.7690   -0.9370 C.3       6 GLP5        0.0000 
     66 CA         17.4356   15.2616    2.7216 C.3       3 GLC5        0.0000 
     67 CA         18.4580   17.2150    3.9390 C.3       9 GLL5        0.0000 
     68 CA         16.7050   13.4580    2.3650 C.3       6 GLP5        0.0000 
     69 CA         19.8143   18.1646    3.3990 C.3       3 GLC5        0.0000 
     70 CA         18.3360   16.6520    2.6670 C.3       9 GLL5        0.0000 
     71 CA         21.6140   18.7270    2.9860 C.3       6 GLP5        0.0000 
     72 CA         17.7866   20.3605    3.6825 C.3       3 GLC5        0.0000 
     73 CA         17.7680   18.8810    5.7130 C.3       9 GLL5        0.0000 
     74 CA         18.1150   22.0220    2.5680 C.3       6 GLP5        0.0000 
     75 CA         16.4288   22.3473   10.0655 C.3       3 GLC5        0.0000 
     76 CA         15.1030   22.1330    8.0840 C.3       9 GLL5        0.0000 
     77 CA         17.0800   22.7190   11.9810 C.3       6 GLP5        0.0000 
     78 CA         14.2116   23.5129    9.4750 C.3       3 GLC5        0.0000 
     79 CA         12.4515   20.2898    9.8987 C.3       3 GLC5        0.0000 
     80 CA         14.5020   20.3860    9.6460 C.3       9 GLL5        0.0000 
     81 CA         10.5860   19.6650   10.5740 C.3       6 GLP5        0.0000 
     82 CA         14.5100   19.4802   11.4740 C.3       3 GLC5        0.0000 
     83 CA         13.8360   18.7370   13.2400 C.3       6 GLP5        0.0000 
     84 CA         16.1320   21.4713   10.8445 C.3       3 GLC5        0.0000 
     85 CA         13.8503   19.1509    8.7359 C.3       3 GLC5        0.0000 
     86 CA         15.8660   20.0610    9.7700 C.3       9 GLL5        0.0000 
     87 CA         17.4095   21.6530   10.5415 C.3       3 GLC5        0.0000 
     88 CA         16.8250   20.7690    9.0420 C.3       9 GLL5        0.0000 
     89 CA         11.1245   27.2080    7.7047 C.3       3 GLC5        0.0000 
     90 CA         12.2480   28.6900    7.1200 C.3       6 GLP5        0.0000 
     91 CA         10.6500   28.0815    8.0427 C.3       3 GLC5        0.0000 
     92 CA          7.9923   29.9390    9.7080 C.3       3 GLC5        0.0000 
     93 CA          7.9210   31.7630   10.3800 C.3       6 GLP5        0.0000 
     94 CA         10.9507   22.1065    1.7270 C.3       3 GLC5        0.0000 
     95 CA         10.2180   23.7890    3.2920 C.3       9 GLL5        0.0000 
     96 CA         11.8560   21.1760    0.1440 C.3       6 GLP5        0.0000 
@<TRIPOS>BOND
@<TRIPOS>SUBSTRUCTURE
     1 ALC1       23 GROUP        1 X    ALC  0     ROOT ALC X 1
     2 SEC2       20 GROUP        1 X    SEC  0     **** SEC X 2
     3 GLC5        1 GROUP        1 X    GLC  0     **** GLC X 6
     4 ALP1       25 GROUP        1 Y    ALP  0     ROOT ALP Y 8
     5 SEP2       22 GROUP        1 Y    SEP  0     **** SEP Y 9
     6 GLP5        3 GROUP        1 Y    GLP  0     **** GLP Y 13
     7 ALL1       24 GROUP        1 Z    ALL  0     ROOT ALL Z 15
     8 SEL2       21 GROUP        1 Z    SEL  0     **** SEL Z 16
     9 GLL5        2 GROUP        1 Z    GLL  0     **** GLL Z 20
@<TRIPOS>SET

