#    Name: 1xl5_190_1_ligand
#    Modification time : Tue Mar 25 10:17:20 2014

@<TRIPOS>MOLECULE
1xl5_190_1_ligand
   77    79     1     0     0
SMALL
NO_CHARGES


@<TRIPOS>ATOM
      1 C4         16.6650   18.7630    3.4410 C.ar      1 1901001     0.0000 
      2 C3         16.5430   18.1930    2.1710 C.ar      1 1901001     0.0000 
      3 C8         15.4830   18.7010    1.2020 C.3       1 1901001     0.0000 
      4 C2         17.4130   17.1790    1.7680 C.ar      1 1901001     0.0000 
      5 C1         18.3360   16.6520    2.6670 C.ar      1 1901001     0.0000 
      6 C6         18.4580   17.2150    3.9390 C.ar      1 1901001     0.0000 
      7 C5         17.6320   18.2710    4.3210 C.ar      1 1901001     0.0000 
      8 C7         17.7680   18.8810    5.7130 C.3       1 1901001     0.0000 
      9 O9         15.8330   19.8140    3.8350 O.3       1 1901001     0.0000 
     10 C10        14.7020   19.3290    4.5510 C.3       1 1901001     0.0000 
     11 C11        13.8550   20.4540    5.0650 C.2       1 1901001     0.0000 
     12 O12        12.7490   20.1580    5.5160 O.2       1 1901001     0.0000 
     13 N13        14.5170   21.5830    5.3930 N.am      1 1901001     0.0000 
     14 C14        13.8140   22.6680    6.0500 C.3       1 1901001     0.0000 
     15 C16        14.7340   23.2720    7.1380 C.3       1 1901001     0.0000 
     16 C15        15.1030   22.1330    8.0840 C.ar      1 1901001     0.0000 
     17 C42        14.1320   21.4430    8.8010 C.ar      1 1901001     0.0000 
     18 C43        14.5020   20.3860    9.6460 C.ar      1 1901001     0.0000 
     19 C44        15.8660   20.0610    9.7700 C.ar      1 1901001     0.0000 
     20 BR17       18.6530   20.4050    9.1620 Br        1 1901001     0.0000 
     21 C45        16.8250   20.7690    9.0420 C.ar      1 1901001     0.0000 
     22 C46        16.4520   21.8180    8.2160 C.ar      1 1901001     0.0000 
     23 C23        13.4280   23.7410    4.9990 C.3       1 1901001     0.0000 
     24 O38        14.6100   24.5090    4.7010 O.3       1 1901001     0.0000 
     25 C24        12.3630   24.6560    5.6450 C.3       1 1901001     0.0000 
     26 C25        10.9820   24.0190    5.7370 C.3       1 1901001     0.0000 
     27 S30        10.3960   23.7390    7.3860 S.o2      1 1901001     0.0000 
     28 O39        11.4940   23.4780    8.3070 O.2       1 1901001     0.0000 
     29 O40         9.3260   22.7380    7.3360 O.2       1 1901001     0.0000 
     30 C31         9.6330   25.2370    7.9580 C.ar      1 1901001     0.0000 
     31 C32        10.3690   26.2150    8.6210 C.ar      1 1901001     0.0000 
     32 C33         9.7360   27.3910    9.0750 C.ar      1 1901001     0.0000 
     33 C34         8.3680   27.5550    8.8560 C.ar      1 1901001     0.0000 
     34 F37         7.7590   28.6750    9.2160 F         1 1901001     0.0000 
     35 C35         7.6210   26.5830    8.1840 C.ar      1 1901001     0.0000 
     36 C36         8.2590   25.4210    7.7480 C.ar      1 1901001     0.0000 
     37 C26         9.9700   24.4190    4.6820 C.3       1 1901001     0.0000 
     38 C27        10.2180   23.7890    3.2920 C.3       1 1901001     0.0000 
     39 C28         9.2720   24.4560    2.2640 C.3       1 1901001     0.0000 
     40 C29         9.8730   22.2850    3.3280 C.3       1 1901001     0.0000 
     41 H          17.3710   16.8215    0.8050 H         1 1901001     0.0000 
     42 H          18.9227   15.8565    2.3991 H         1 1901001     0.0000 
     43 H          19.1597   16.8487    4.5953 H         1 1901001     0.0000 
     44 H          15.0102   18.7070    5.4128 H         1 1901001     0.0000 
     45 H          14.0694   18.6846    3.9114 H         1 1901001     0.0000 
     46 H          15.5146   21.7174    5.1975 H         1 1901001     0.0000 
     47 H          12.9183   22.3181    6.5212 H         1 1901001     0.0000 
     48 H          14.1968   24.0293    7.6698 H         1 1901001     0.0000 
     49 H          15.6157   23.6619    6.6739 H         1 1901001     0.0000 
     50 H          13.1426   21.7027    8.7159 H         1 1901001     0.0000 
     51 H          13.7998   19.8632   10.1601 H         1 1901001     0.0000 
     52 H          16.1514   19.3018   10.3976 H         1 1901001     0.0000 
     53 H          17.1591   22.3562    7.7079 H         1 1901001     0.0000 
     54 H          13.0200   23.2641    4.1609 H         1 1901001     0.0000 
     55 H          12.2977   25.5834    5.0573 H         1 1901001     0.0000 
     56 H          12.7052   24.9307    6.6536 H         1 1901001     0.0000 
     57 H          11.2206   22.8496    5.4622 H         1 1901001     0.0000 
     58 H          11.3736   26.0881    8.7837 H         1 1901001     0.0000 
     59 H          10.2771   28.1073    9.5559 H         1 1901001     0.0000 
     60 H           6.6254   26.7220    8.0156 H         1 1901001     0.0000 
     61 H           7.7171   24.6888    7.2663 H         1 1901001     0.0000 
     62 H           9.9709   25.5164    4.5692 H         1 1901001     0.0000 
     63 H           8.9583   24.1325    5.0158 H         1 1901001     0.0000 
     64 H          11.2125   23.9252    2.9984 H         1 1901001     0.0000 
     65 H          15.6066   19.6707    0.9913 H         1 1901001     0.0000 
     66 H          15.5069   18.2069    0.3329 H         1 1901001     0.0000 
     67 H          14.5602   18.5970    1.5730 H         1 1901001     0.0000 
     68 H          18.4959   18.4433    6.2408 H         1 1901001     0.0000 
     69 H          17.9823   19.8569    5.6715 H         1 1901001     0.0000 
     70 H          16.9251   18.7883    6.2431 H         1 1901001     0.0000 
     71 H           9.4292   25.4415    2.1994 H         1 1901001     0.0000 
     72 H           9.3956   24.0787    1.3462 H         1 1901001     0.0000 
     73 H           8.3104   24.3279    2.5065 H         1 1901001     0.0000 
     74 H          10.0226   21.8483    2.4409 H         1 1901001     0.0000 
     75 H          10.4311   21.7918    3.9953 H         1 1901001     0.0000 
     76 H           8.9163   22.1292    3.5737 H         1 1901001     0.0000 
     77 H          14.4234   25.4221    5.0636 H         1 1901001     0.0000 
@<TRIPOS>BOND
     1    2    1 ar   
     2    7    1 ar   
     3    9    1 1    
     4    3    2 1    
     5    4    2 ar   
     6   65    3 1    
     7   66    3 1    
     8   67    3 1    
     9    5    4 ar   
    10   41    4 1    
    11    6    5 ar   
    12   42    5 1    
    13    7    6 ar   
    14   43    6 1    
    15    8    7 1    
    16   68    8 1    
    17   69    8 1    
    18   70    8 1    
    19   10    9 1    
    20   11   10 1    
    21   44   10 1    
    22   45   10 1    
    23   12   11 2    
    24   13   11 am   
    25   14   13 1    
    26   46   13 1    
    27   15   14 1    
    28   23   14 1    
    29   47   14 1    
    30   16   15 1    
    31   48   15 1    
    32   49   15 1    
    33   17   16 ar   
    34   22   16 ar   
    35   18   17 ar   
    36   50   17 1    
    37   19   18 ar   
    38   51   18 1    
    39   21   19 ar   
    40   52   19 1    
    41   21   20 1    
    42   22   21 ar   
    43   53   22 1    
    44   24   23 1    
    45   25   23 1    
    46   54   23 1    
    47   77   24 1    
    48   26   25 1    
    49   55   25 1    
    50   56   25 1    
    51   27   26 1    
    52   37   26 1    
    53   57   26 1    
    54   28   27 2    
    55   29   27 2    
    56   30   27 1    
    57   31   30 ar   
    58   36   30 ar   
    59   32   31 ar   
    60   58   31 1    
    61   33   32 ar   
    62   59   32 1    
    63   34   33 1    
    64   35   33 ar   
    65   36   35 ar   
    66   60   35 1    
    67   61   36 1    
    68   38   37 1    
    69   62   37 1    
    70   63   37 1    
    71   39   38 1    
    72   40   38 1    
    73   64   38 1    
    74   71   39 1    
    75   72   39 1    
    76   73   39 1    
    77   74   40 1    
    78   75   40 1    
    79   76   40 1    
@<TRIPOS>SUBSTRUCTURE
     1 1901001     1 GROUP   
@<TRIPOS>SET

