#    Name: 2q85_973_1_INTS_M
#    Modification time : Mon Mar 24 21:00:50 2014

@<TRIPOS>MOLECULE
2q85_973_1_INTS_M
   43     0     6     0     0
SMALL
NO_CHARGES


@<TRIPOS>ATOM
      1 CA          7.6830  -16.7705   12.0540 C.3       2 GLC5        0.0000 
      2 CA          7.1540  -14.9410   11.4290 C.3       6 GLL5        0.0000 
      3 CA          8.2120  -18.6000   12.6790 C.3       4 GLP5        0.0000 
      4 CA          5.9975   -6.3565   12.2210 C.3       2 GLC5        0.0000 
      5 CA          4.6420   -6.6500   10.4880 C.3       6 GLL5        0.0000 
      6 CA          7.3530   -6.0630   13.9540 C.3       4 GLP5        0.0000 
      7 CA          3.0765   -1.6615    9.9140 C.3       2 GLC5        0.0000 
      8 CA          4.9510   -0.6710   10.0850 C.3       6 GLL5        0.0000 
      9 CA          1.2020   -2.6520    9.7430 C.3       4 GLP5        0.0000 
     10 CA          6.1840    0.4460   10.4065 C.3       2 GLC5        0.0000 
     11 CA          7.4170    1.5630   10.7280 C.3       4 GLP5        0.0000 
     12 CA          4.9780   -0.7265   12.0455 C.3       2 GLC5        0.0000 
     13 CA          5.0050   -0.7820   14.0060 C.3       4 GLP5        0.0000 
     14 CA          5.2150    0.3500    8.7330 C.3       2 GLC5        0.0000 
     15 CA          5.4790    1.3710    7.3810 C.3       4 GLP5        0.0000 
     16 N           7.9535   -8.4590   10.0240 N.am      1 SEC2        0.0000 
     17 N           6.7070   -7.4890    9.5100 N.am      5 SEL2        0.0000 
     18 N           9.2000   -9.4290   10.5380 N.am      3 SEP2        0.0000 
     19 CA          5.5145  -15.5898   12.9850 C.3       2 GLC5        0.0000 
     20 CA          4.5710  -16.2250   14.5700 C.3       4 GLP5        0.0000 
     21 CA          6.4930  -14.0323   13.1770 C.3       2 GLC5        0.0000 
     22 CA          5.7620  -14.9680   11.3710 C.3       6 GLL5        0.0000 
     23 CA          6.5280  -13.1100   14.9540 C.3       4 GLP5        0.0000 
     24 CA          9.1888  -13.1702    9.8908 C.3       2 GLC5        0.0000 
     25 CA          7.8310  -13.7540   11.1770 C.3       6 GLL5        0.0000 
     26 CA         10.9030  -13.1680    8.7610 C.3       4 GLP5        0.0000 
     27 CA          7.7332  -12.9437   12.9238 C.3       2 GLC5        0.0000 
     28 CA          7.9920  -12.7150   14.8270 C.3       4 GLP5        0.0000 
     29 CA          5.9452  -13.1512   12.9395 C.3       2 GLC5        0.0000 
     30 CA          5.6980  -12.5760   10.7930 C.3       6 GLL5        0.0000 
     31 CA          4.4487  -15.0345   12.8010 C.3       2 GLC5        0.0000 
     32 CA          5.0270  -13.8090   11.0570 C.3       6 GLL5        0.0000 
     33 CA          6.9618   -2.8647   10.7852 C.3       2 GLC5        0.0000 
     34 CA          4.8680   -2.3880   10.1890 C.3       6 GLL5        0.0000 
     35 CA          8.8110   -2.9450   11.9020 C.3       4 GLP5        0.0000 
     36 CA          2.6925   -3.4215   12.6783 C.3       2 GLC5        0.0000 
     37 CA          4.3120   -2.9820   11.3210 C.3       6 GLL5        0.0000 
     38 CA          1.1080   -3.1640   13.9890 C.3       4 GLP5        0.0000 
     39 CA          5.2429   -3.9103   12.7049 C.3       2 GLC5        0.0000 
     40 CA          6.0870   -3.9370   14.3010 C.3       4 GLP5        0.0000 
     41 CA          4.7105   -2.1562   12.5452 C.3       2 GLC5        0.0000 
     42 CA          4.2420   -4.3760   11.4140 C.3       6 GLL5        0.0000 
     43 CA          2.9788   -2.9930   10.0658 C.3       2 GLC5        0.0000 
@<TRIPOS>BOND
@<TRIPOS>SUBSTRUCTURE
     1 SEC2       16 GROUP        1 X    SEC  0     ROOT SEC X 2
     2 GLC5        1 GROUP        1 X    GLC  0     **** GLC X 6
     3 SEP2       18 GROUP        1 Y    SEP  0     ROOT SEP Y 9
     4 GLP5        3 GROUP        1 Y    GLP  0     **** GLP Y 13
     5 SEL2       17 GROUP        1 Z    SEL  0     ROOT SEL Z 16
     6 GLL5        2 GROUP        1 Z    GLL  0     **** GLL Z 20
@<TRIPOS>SET

