#    Name: 2q85_973_1_ligand
#    Modification time : Mon Mar 24 21:00:51 2014

@<TRIPOS>MOLECULE
2q85_973_1_ligand
   37    40     1     0     0
SMALL
NO_CHARGES


@<TRIPOS>ATOM
      1 C1          7.1540  -14.9410   11.4290 C.ar      1 973401      0.0000 
      2 C2          7.8310  -13.7540   11.1770 C.ar      1 973401      0.0000 
      3 C3          7.1180  -12.5910   10.8640 C.ar      1 973401      0.0000 
      4 C4          5.6980  -12.5760   10.7930 C.ar      1 973401      0.0000 
      5 C5          5.0270  -13.8090   11.0570 C.ar      1 973401      0.0000 
      6 C6          5.7620  -14.9680   11.3710 C.ar      1 973401      0.0000 
      7 C7          3.6260  -13.8790   11.0070 C.ar      1 973401      0.0000 
      8 C8          2.8710  -12.7530   10.7000 C.ar      1 973401      0.0000 
      9 C9          3.5020  -11.5410   10.4400 C.ar      1 973401      0.0000 
     10 C10         4.9110  -11.4200   10.4810 C.ar      1 973401      0.0000 
     11 C11         5.5360  -10.1050   10.1910 C.2       1 973401      0.0000 
     12 C12         4.9700   -8.9040   10.4240 C.2       1 973401      0.0000 
     13 C13         5.4900   -7.6110   10.1120 C.2       1 973401      0.0000 
     14 C14         4.6420   -6.6500   10.4880 C.2       1 973401      0.0000 
     15 C15         3.5060   -7.3940   11.0740 C.2       1 973401      0.0000 
     16 O1          2.4970   -6.8930   11.5450 O.2       1 973401      0.0000 
     17 O2          3.7290   -8.7440   11.0270 O.3       1 973401      0.0000 
     18 C16         4.7290   -5.1940   10.3790 C.ar      1 973401      0.0000 
     19 C17         5.2850   -4.5780    9.2430 C.ar      1 973401      0.0000 
     20 C18         5.3570   -3.1810    9.1480 C.ar      1 973401      0.0000 
     21 C19         4.8680   -2.3880   10.1890 C.ar      1 973401      0.0000 
     22 C20         4.3120   -2.9820   11.3210 C.ar      1 973401      0.0000 
     23 C21         4.2420   -4.3760   11.4140 C.ar      1 973401      0.0000 
     24 CL1         4.9510   -0.6710   10.0850 Cl        1 973401      0.0000 
     25 O3          6.7070   -7.4890    9.5100 O.co2     1 973401      0.0000 
     26 H           7.6752  -15.7949   11.6569 H         1 973401      0.0000 
     27 H           8.8577  -13.7253   11.2194 H         1 973401      0.0000 
     28 H           7.6308  -11.7112   10.6772 H         1 973401      0.0000 
     29 H           5.2565  -15.8475   11.5600 H         1 973401      0.0000 
     30 H           3.1582  -14.7768   11.2007 H         1 973401      0.0000 
     31 H           1.8449  -12.8157   10.6650 H         1 973401      0.0000 
     32 H           2.9385  -10.7047   10.2109 H         1 973401      0.0000 
     33 H           6.5054  -10.1726    9.7673 H         1 973401      0.0000 
     34 H           5.6423   -5.1611    8.4742 H         1 973401      0.0000 
     35 H           5.7672   -2.7454    8.3171 H         1 973401      0.0000 
     36 H           3.9542   -2.3997   12.0857 H         1 973401      0.0000 
     37 H           3.8285   -4.8125   12.2510 H         1 973401      0.0000 
@<TRIPOS>BOND
     1    2    1 ar   
     2    6    1 ar   
     3   26    1 1    
     4    3    2 ar   
     5   27    2 1    
     6    4    3 ar   
     7   28    3 1    
     8    5    4 ar   
     9   10    4 ar   
    10    6    5 ar   
    11    7    5 ar   
    12   29    6 1    
    13    8    7 ar   
    14   30    7 1    
    15    9    8 ar   
    16   31    8 1    
    17   10    9 ar   
    18   32    9 1    
    19   11   10 1    
    20   12   11 2    
    21   33   11 1    
    22   13   12 1    
    23   17   12 1    
    24   14   13 2    
    25   25   13 ar   
    26   15   14 1    
    27   18   14 1    
    28   16   15 2    
    29   17   15 1    
    30   19   18 ar   
    31   23   18 ar   
    32   20   19 ar   
    33   34   19 1    
    34   21   20 ar   
    35   35   20 1    
    36   22   21 ar   
    37   24   21 1    
    38   23   22 ar   
    39   36   22 1    
    40   37   23 1    
@<TRIPOS>SUBSTRUCTURE
     1 973401      1 GROUP   
@<TRIPOS>SET

