#    Name: 4krc_AGS_1_INTS_M
#    Modification time : Tue Mar 25 08:51:25 2014

@<TRIPOS>MOLECULE
4krc_AGS_1_INTS_M
   72     0    15     0     0
SMALL
NO_CHARGES


@<TRIPOS>ATOM
      1 CA         14.0310   -0.2015   30.8980 C.3       5 GLC5        0.0000 
      2 CA         13.3490   -1.6970   31.7050 C.3      15 GLL5        0.0000 
      3 CA         14.7130    1.2940   30.0910 C.3      10 GLP5        0.0000 
      4 CA         15.2130   -2.3080   30.6555 C.3       5 GLC5        0.0000 
      5 CA         17.0770   -2.9190   29.6060 C.3      10 GLP5        0.0000 
      6 NZ         10.9345   -2.5210   33.0640 N.4       3 LYC4        0.0000 
      7 NZ         10.5410   -2.1480   31.4660 N.4      13 LYL4        0.0000 
      8 NZ         11.3280   -2.8940   34.6620 N.4       8 LYP4        0.0000 
      9 Zn         10.2285   -0.8670   31.4325 Zn        4 ZIC7        0.0000 
     10 Zn         10.5410   -2.1480   31.4660 Zn       14 ZIL7        0.0000 
     11 Zn          9.9160    0.4140   31.3990 Zn        9 ZIP7        0.0000 
     12 N           9.1875   -2.7720   31.4215 N.am      2 SEC2        0.0000 
     13 N          10.5410   -2.1480   31.4660 N.am     12 SEL2        0.0000 
     14 N           7.8340   -3.3960   31.3770 N.am      7 SEP2        0.0000 
     15 NZ         10.8380   -1.1460   25.8675 N.4       3 LYC4        0.0000 
     16 NZ         11.5710   -1.8140   27.1890 N.4      13 LYL4        0.0000 
     17 NZ         10.1050   -0.4780   24.5460 N.4       8 LYP4        0.0000 
     18 N          10.8380   -1.1460   25.8675 N.am      2 SEC2        0.0000 
     19 N          11.5710   -1.8140   27.1890 N.am     12 SEL2        0.0000 
     20 N          10.1050   -0.4780   24.5460 N.am      7 SEP2        0.0000 
     21 Zn         10.6650   -0.1505   30.4625 Zn        4 ZIC7        0.0000 
     22 Zn         11.4140   -0.7150   29.5260 Zn       14 ZIL7        0.0000 
     23 NZ          9.5015    0.1810   25.4275 N.4       3 LYC4        0.0000 
     24 NZ          8.8980    0.8400   26.3090 N.4      13 LYL4        0.0000 
     25 N           9.5015    0.1810   25.4275 N.am      2 SEC2        0.0000 
     26 N           8.8980    0.8400   26.3090 N.am     12 SEL2        0.0000 
     27 Zn          9.5350    0.4215   30.1380 Zn        4 ZIC7        0.0000 
     28 Zn          9.1540    0.4290   28.8770 Zn       14 ZIL7        0.0000 
     29 CA         12.4585    4.0645   29.2615 C.3       5 GLC5        0.0000 
     30 CA         10.6030    3.1240   28.9600 C.3      15 GLL5        0.0000 
     31 CA         14.3140    5.0050   29.5630 C.3      10 GLP5        0.0000 
     32 CA         10.8800    6.0390   29.9390 C.3       5 GLC5        0.0000 
     33 CA          9.8020    4.1840   29.7070 C.3      15 GLL5        0.0000 
     34 CA         11.9580    7.8940   30.1710 C.3      10 GLP5        0.0000 
     35 O           7.5720    2.5275   31.9765 O.2       1 ALC1        0.0000 
     36 O           8.6610    3.0960   31.5470 O.2      11 ALL1        0.0000 
     37 O           6.4830    1.9590   32.4060 O.2       6 ALP1        0.0000 
     38 CA          6.2130    4.8620   31.7670 C.3       5 GLC5        0.0000 
     39 CA          7.6090    4.8780   30.2640 C.3      15 GLL5        0.0000 
     40 CA          4.8170    4.8460   33.2700 C.3      10 GLP5        0.0000 
     41 CA          5.7585    4.4770   29.8725 C.3       5 GLC5        0.0000 
     42 CA          3.9080    4.0760   29.4810 C.3      10 GLP5        0.0000 
     43 O           7.4080    5.3175   32.7330 O.2       1 ALC1        0.0000 
     44 O           7.7830    5.6240   31.4680 O.2      11 ALL1        0.0000 
     45 O           7.0330    5.0110   33.9980 O.2       6 ALP1        0.0000 
     46 CA          9.3650    5.4780   27.3900 C.3       5 GLC5        0.0000 
     47 CA          8.0990    5.7170   29.1090 C.3      15 GLL5        0.0000 
     48 CA         10.6310    5.2390   25.6710 C.3      10 GLP5        0.0000 
     49 CA          2.6170    6.7315   26.6870 C.3       5 GLC5        0.0000 
     50 CA          4.4030    6.3060   25.7700 C.3      15 GLL5        0.0000 
     51 CA          0.8310    7.1570   27.6040 C.3      10 GLP5        0.0000 
     52 O           2.8655    6.2285   23.7810 O.2       1 ALC1        0.0000 
     53 O           3.7570    5.7720   24.6940 O.2      11 ALL1        0.0000 
     54 O           1.9740    6.6850   22.8680 O.2       6 ALP1        0.0000 
     55 N           2.6820    8.1140   26.0535 N.am      2 SEC2        0.0000 
     56 N           4.0130    7.4870   26.3170 N.am     12 SEL2        0.0000 
     57 N           1.3510    8.7410   25.7900 N.am      7 SEP2        0.0000 
     58 CA          5.7740    9.4860   26.8660 C.3       5 GLC5        0.0000 
     59 CA          4.6380    8.0210   27.3900 C.3      15 GLL5        0.0000 
     60 CA          6.9100   10.9510   26.3420 C.3      10 GLP5        0.0000 
     61 CA          5.1790    7.9160   25.2650 C.3       5 GLC5        0.0000 
     62 CA          5.7200    7.8110   23.1400 C.3      10 GLP5        0.0000 
     63 CA          2.7345    7.5890   27.4970 C.3       5 GLC5        0.0000 
     64 CA          5.0490    5.1730   28.5255 C.3       5 GLC5        0.0000 
     65 CA          6.1900    6.2700   27.5700 C.3      15 GLL5        0.0000 
     66 CA         10.4168    4.4465   27.5023 C.3       5 GLC5        0.0000 
     67 CA          7.5665    6.6208   26.0853 C.3       5 GLC5        0.0000 
     68 CA          9.2600    7.2990   25.1840 C.3      10 GLP5        0.0000 
     69 CA          5.3498    6.8857   24.6133 C.3       5 GLC5        0.0000 
     70 CA          5.5560    5.6150   26.4030 C.3      15 GLL5        0.0000 
     71 CA          3.8867    4.6253   26.7302 C.3       5 GLC5        0.0000 
     72 CA          2.7940    3.2900   27.3740 C.3      10 GLP5        0.0000 
@<TRIPOS>BOND
@<TRIPOS>SUBSTRUCTURE
     1 ALC1       35 GROUP        1 X    ALC  0     ROOT ALC X 1
     2 SEC2       12 GROUP        1 X    SEC  0     **** SEC X 2
     3 LYC4        6 GROUP        1 X    LYC  0     **** LYC X 4
     4 ZIC7        9 GROUP        1 X    ZIC  0     **** ZIC X 5
     5 GLC5        1 GROUP        1 X    GLC  0     **** GLC X 6
     6 ALP1       37 GROUP        1 Y    ALP  0     ROOT ALP Y 8
     7 SEP2       14 GROUP        1 Y    SEP  0     **** SEP Y 9
     8 LYP4        8 GROUP        1 Y    LYP  0     **** LYP Y 11
     9 ZIP7       11 GROUP        1 Y    ZIP  0     **** ZIP Y 12
    10 GLP5        3 GROUP        1 Y    GLP  0     **** GLP Y 13
    11 ALL1       36 GROUP        1 Z    ALL  0     ROOT ALL Z 15
    12 SEL2       13 GROUP        1 Z    SEL  0     **** SEL Z 16
    13 LYL4        7 GROUP        1 Z    LYL  0     **** LYL Z 18
    14 ZIL7       10 GROUP        1 Z    ZIL  0     **** ZIL Z 19
    15 GLL5        2 GROUP        1 Z    GLL  0     **** GLL Z 20
@<TRIPOS>SET

