#    Name: 4krc_AGS_1_ligand
#    Modification time : Tue Mar 25 08:51:25 2014

@<TRIPOS>MOLECULE
4krc_AGS_1_ligand
   43    45     1     0     0
SMALL
NO_CHARGES


@<TRIPOS>ATOM
      1 PG         11.6960   -2.0260   30.4930 P.3       1 AGS402      0.0000 
      2 S1G        13.3490   -1.6970   31.7050 S.3       1 AGS402      0.0000 
      3 O2G        10.5410   -2.1480   31.4660 O.co2     1 AGS402      0.0000 
      4 O3G        12.0130   -3.2420   29.6360 O.co2     1 AGS402      0.0000 
      5 PB         11.9670   -0.5770   27.9870 P.3       1 AGS402      0.0000 
      6 O1B        13.4330   -0.2290   28.0050 O.co2     1 AGS402      0.0000 
      7 O2B        11.5710   -1.8140   27.1890 O.co2     1 AGS402      0.0000 
      8 O3B        11.4140   -0.7150   29.5260 O.3       1 AGS402      0.0000 
      9 PA          9.6630    1.0590   27.6050 P.3       1 AGS402      0.0000 
     10 O1A         8.8980    0.8400   26.3090 O.co2     1 AGS402      0.0000 
     11 O2A         9.1540    0.4290   28.8770 O.co2     1 AGS402      0.0000 
     12 O3A        11.2270    0.7220   27.3750 O.3       1 AGS402      0.0000 
     13 O5'         9.7270    2.6250   27.9570 O.3       1 AGS402      0.0000 
     14 C5'        10.6030    3.1240   28.9600 C.3       1 AGS402      0.0000 
     15 C4'         9.8020    4.1840   29.7070 C.3       1 AGS402      0.0000 
     16 O4'         9.4260    5.2550   28.8350 O.3       1 AGS402      0.0000 
     17 C3'         8.4920    3.6480   30.2430 C.3       1 AGS402      0.0000 
     18 O3'         8.6610    3.0960   31.5470 O.3       1 AGS402      0.0000 
     19 C2'         7.6090    4.8780   30.2640 C.3       1 AGS402      0.0000 
     20 O2'         7.7830    5.6240   31.4680 O.3       1 AGS402      0.0000 
     21 C1'         8.0990    5.7170   29.1090 C.3       1 AGS402      0.0000 
     22 N9          7.1870    5.4610   27.9620 N.pl3     1 AGS402      0.0000 
     23 C8          7.2140    4.3880   27.1340 C.2       1 AGS402      0.0000 
     24 N7          6.2350    4.4660   26.1910 N.2       1 AGS402      0.0000 
     25 C5          5.5560    5.6150   26.4030 C.ar      1 AGS402      0.0000 
     26 C6          4.4030    6.3060   25.7700 C.ar      1 AGS402      0.0000 
     27 N6          3.7570    5.7720   24.6940 N.pl3     1 AGS402      0.0000 
     28 N1          4.0130    7.4870   26.3170 N.ar      1 AGS402      0.0000 
     29 C2          4.6380    8.0210   27.3900 C.ar      1 AGS402      0.0000 
     30 N3          5.6910    7.4560   28.0140 N.ar      1 AGS402      0.0000 
     31 C4          6.1900    6.2700   27.5700 C.ar      1 AGS402      0.0000 
     32 H          11.4785    3.5976   28.5411 H         1 AGS402      0.0000 
     33 H          10.8930    2.3613   29.6675 H         1 AGS402      0.0000 
     34 H          10.3774    4.5559   30.5336 H         1 AGS402      0.0000 
     35 H           8.0976    2.9635   29.5343 H         1 AGS402      0.0000 
     36 H           6.6104    4.5969   30.0809 H         1 AGS402      0.0000 
     37 H           8.0747    6.7310   29.3929 H         1 AGS402      0.0000 
     38 H           7.8550    3.6488   27.2027 H         1 AGS402      0.0000 
     39 H           2.9906    6.3032   24.3328 H         1 AGS402      0.0000 
     40 H           4.1066    4.8963   24.3610 H         1 AGS402      0.0000 
     41 H           4.2717    8.9539   27.7680 H         1 AGS402      0.0000 
     42 H           7.7591    3.1604   31.9741 H         1 AGS402      0.0000 
     43 H           7.3691    5.0609   32.1833 H         1 AGS402      0.0000 
@<TRIPOS>BOND
     1    2    1 1    
     2    3    1 ar   
     3    4    1 ar   
     4    8    1 1    
     5    6    5 ar   
     6    7    5 ar   
     7    8    5 1    
     8   12    5 1    
     9   10    9 ar   
    10   11    9 ar   
    11   12    9 1    
    12   13    9 1    
    13   14   13 1    
    14   15   14 1    
    15   32   14 1    
    16   33   14 1    
    17   16   15 1    
    18   17   15 1    
    19   34   15 1    
    20   21   16 1    
    21   18   17 1    
    22   19   17 1    
    23   35   17 1    
    24   42   18 1    
    25   20   19 1    
    26   21   19 1    
    27   36   19 1    
    28   43   20 1    
    29   22   21 1    
    30   37   21 1    
    31   23   22 1    
    32   31   22 1    
    33   24   23 2    
    34   38   23 1    
    35   25   24 1    
    36   26   25 ar   
    37   31   25 ar   
    38   27   26 1    
    39   28   26 ar   
    40   39   27 1    
    41   40   27 1    
    42   29   28 ar   
    43   30   29 ar   
    44   41   29 1    
    45   31   30 ar   
@<TRIPOS>SUBSTRUCTURE
     1 AGS402      1 GROUP   
@<TRIPOS>SET

