#    Name: 3q2m_CKI_1_INTS_M
#    Modification time : Tue Mar 25 08:49:49 2014

@<TRIPOS>MOLECULE
3q2m_CKI_1_INTS_M
   35     0     6     0     0
SMALL
NO_CHARGES


@<TRIPOS>ATOM
      1 CA         -4.2395   26.7705   35.3525 C.3       2 GLC5        0.0000 
      2 CA         -2.4990   25.7210   34.9530 C.3       6 GLL5        0.0000 
      3 CA         -5.9800   27.8200   35.7520 C.3       4 GLP5        0.0000 
      4 CA         -3.0765   23.7135   34.8115 C.3       2 GLC5        0.0000 
      5 CA         -3.6540   21.7060   34.6700 C.3       4 GLP5        0.0000 
      6 N          -4.1420   24.0575   34.8100 N.am      1 SEC2        0.0000 
      7 N          -3.7550   25.3540   34.4580 N.am      5 SEL2        0.0000 
      8 N          -4.5290   22.7610   35.1620 N.am      3 SEP2        0.0000 
      9 CA         -6.0430   27.0155   32.7375 C.3       2 GLC5        0.0000 
     10 CA         -4.2200   26.0290   33.3340 C.3       6 GLL5        0.0000 
     11 CA         -7.8660   28.0020   32.1410 C.3       4 GLP5        0.0000 
     12 CA         -5.4105   24.8900   34.6420 C.3       2 GLC5        0.0000 
     13 CA         -6.6010   23.7510   35.9500 C.3       4 GLP5        0.0000 
     14 CA         -4.3150   24.0845   32.8125 C.3       2 GLC5        0.0000 
     15 CA         -4.4100   22.1400   32.2910 C.3       4 GLP5        0.0000 
     16 CA         -2.7910   29.9730   32.8915 C.3       2 GLC5        0.0000 
     17 CA         -1.9380   29.3370   31.1660 C.3       6 GLL5        0.0000 
     18 CA         -3.6440   30.6090   34.6170 C.3       4 GLP5        0.0000 
     19 CA         -0.8595   28.6320   29.6495 C.3       2 GLC5        0.0000 
     20 CA          0.2190   27.9270   28.1330 C.3       4 GLP5        0.0000 
     21 CA         -0.6540   25.3755   32.9080 C.3       2 GLC5        0.0000 
     22 CA         -1.6780   26.7520   34.3600 C.3       6 GLL5        0.0000 
     23 CA          0.3700   23.9990   31.4560 C.3       4 GLP5        0.0000 
     24 CA         -0.0225   21.8930   36.7595 C.3       2 GLC5        0.0000 
     25 CA          0.9110   23.5600   36.5900 C.3       6 GLL5        0.0000 
     26 CA         -0.9560   20.2260   36.9290 C.3       4 GLP5        0.0000 
     27 CA         -4.9155   27.1845   34.3773 C.3       2 GLC5        0.0000 
     28 CA          0.8488   28.2031   31.7928 C.3       2 GLC5        0.0000 
     29 CA         -1.3960   28.4810   32.5650 C.3       6 GLL5        0.0000 
     30 CA          1.8820   27.9980   30.0370 C.3       4 GLP5        0.0000 
     31 CA         -3.1633   26.1098   31.3344 C.3       2 GLC5        0.0000 
     32 CA         -2.1920   27.4400   33.1870 C.3       6 GLL5        0.0000 
     33 CA         -3.3050   25.2250   29.5740 C.3       4 GLP5        0.0000 
     34 CA          1.8060   21.6632   35.5280 C.3       2 GLC5        0.0000 
     35 CA          1.9360   19.6820   34.5730 C.3       4 GLP5        0.0000 
@<TRIPOS>BOND
@<TRIPOS>SUBSTRUCTURE
     1 SEC2        6 GROUP        1 X    SEC  0     ROOT SEC X 2
     2 GLC5        1 GROUP        1 X    GLC  0     **** GLC X 6
     3 SEP2        8 GROUP        1 Y    SEP  0     ROOT SEP Y 9
     4 GLP5        3 GROUP        1 Y    GLP  0     **** GLP Y 13
     5 SEL2        7 GROUP        1 Z    SEL  0     ROOT SEL Z 16
     6 GLL5        2 GROUP        1 Z    GLL  0     **** GLL Z 20
@<TRIPOS>SET

