#    Name: 3q2m_CKI_1_ligand
#    Modification time : Tue Mar 25 08:49:49 2014

@<TRIPOS>MOLECULE
3q2m_CKI_1_ligand
   31    32     1     0     0
SMALL
NO_CHARGES


@<TRIPOS>ATOM
      1 C1         -2.4990   25.7210   34.9530 C.ar      1 CKI400      0.0000 
      2 N2         -3.7550   25.3540   34.4580 N.ar      1 CKI400      0.0000 
      3 C3         -4.2200   26.0290   33.3340 C.ar      1 CKI400      0.0000 
      4 C4         -3.4820   27.0690   32.6710 C.ar      1 CKI400      0.0000 
      5 C5         -1.3960   28.4810   32.5650 C.ar      1 CKI400      0.0000 
      6 CL5        -1.9380   29.3370   31.1660 Cl        1 CKI400      0.0000 
      7 C6         -0.1200   28.8300   33.1050 C.ar      1 CKI400      0.0000 
      8 C7          0.3890   28.1610   34.2620 C.ar      1 CKI400      0.0000 
      9 C8         -0.3670   27.1200   34.9030 C.ar      1 CKI400      0.0000 
     10 C9         -1.6780   26.7520   34.3600 C.ar      1 CKI400      0.0000 
     11 C10        -2.1920   27.4400   33.1870 C.ar      1 CKI400      0.0000 
     12 S           0.3790   26.3510   36.3540 S.o2      1 CKI400      0.0000 
     13 O1S        -0.0940   27.0960   37.4950 O.2       1 CKI400      0.0000 
     14 O2S         1.7900   26.4910   36.1770 O.2       1 CKI400      0.0000 
     15 N1'        -0.0870   24.7070   36.5620 N.pl3     1 CKI400      0.0000 
     16 C1'         0.9110   23.5600   36.5900 C.3       1 CKI400      0.0000 
     17 C2'         2.4410   23.7290   36.3760 C.3       1 CKI400      0.0000 
     18 N2'         2.7990   24.7910   35.4460 N.4       1 CKI400      0.0000 
     19 H          -2.1181   25.2357   35.7943 H         1 CKI400      0.0000 
     20 H          -5.1545   25.7802   32.9357 H         1 CKI400      0.0000 
     21 H          -3.8599   27.5283   31.8623 H         1 CKI400      0.0000 
     22 H           0.4334   29.5629   32.6617 H         1 CKI400      0.0000 
     23 H           1.2993   28.4235   34.6394 H         1 CKI400      0.0000 
     24 H          -1.0547   24.5872   36.6598 H         1 CKI400      0.0000 
     25 H           0.5583   22.7652   35.8394 H         1 CKI400      0.0000 
     26 H           0.7764   22.9975   37.5825 H         1 CKI400      0.0000 
     27 H           2.8324   22.7506   36.0309 H         1 CKI400      0.0000 
     28 H           2.8925   23.9058   37.3732 H         1 CKI400      0.0000 
     29 H           3.3094   24.4406   34.6607 H         1 CKI400      0.0000 
     30 H           1.9910   25.2574   35.0859 H         1 CKI400      0.0000 
     31 H           3.3705   25.4875   35.8799 H         1 CKI400      0.0000 
@<TRIPOS>BOND
     1    2    1 ar   
     2   10    1 ar   
     3   19    1 1    
     4    3    2 ar   
     5    4    3 ar   
     6   20    3 1    
     7   11    4 ar   
     8   21    4 1    
     9    6    5 1    
    10    7    5 ar   
    11   11    5 ar   
    12    8    7 ar   
    13   22    7 1    
    14    9    8 ar   
    15   23    8 1    
    16   10    9 ar   
    17   12    9 1    
    18   11   10 ar   
    19   13   12 2    
    20   14   12 2    
    21   15   12 1    
    22   16   15 1    
    23   24   15 1    
    24   17   16 1    
    25   25   16 1    
    26   26   16 1    
    27   18   17 1    
    28   27   17 1    
    29   28   17 1    
    30   29   18 1    
    31   30   18 1    
    32   31   18 1    
@<TRIPOS>SUBSTRUCTURE
     1 CKI400      1 GROUP   
@<TRIPOS>SET

