#    Name: 3g2f_ADP_2_INTS_M
#    Modification time : Tue Mar 25 07:01:05 2014

@<TRIPOS>MOLECULE
3g2f_ADP_2_INTS_M
   74     0    15     0     0
SMALL
NO_CHARGES


@<TRIPOS>ATOM
      1 N          55.3425   -5.0675   23.2945 N.am      2 SEC2        0.0000 
      2 N          55.8090   -4.6930   24.5530 N.am     12 SEL2        0.0000 
      3 N          54.8760   -5.4420   22.0360 N.am      7 SEP2        0.0000 
      4 N          55.4240   -6.0450   24.2780 N.am      2 SEC2        0.0000 
      5 N          55.0390   -7.3970   24.0030 N.am      7 SEP2        0.0000 
      6 Zn         56.7250   -1.3860   24.9670 Zn        4 ZIC7        0.0000 
      7 Zn         56.2200   -2.2660   24.9250 Zn       14 ZIL7        0.0000 
      8 Zn         57.2300   -0.5060   25.0090 Zn        9 ZIP7        0.0000 
      9 N          55.0065   -2.7020   23.9225 N.am      2 SEC2        0.0000 
     10 N          56.2200   -2.2660   24.9250 N.am     12 SEL2        0.0000 
     11 N          53.7930   -3.1380   22.9200 N.am      7 SEP2        0.0000 
     12 NZ         59.0675   -4.4820   24.8520 N.4       3 LYC4        0.0000 
     13 NZ         58.0370   -3.7460   23.9260 N.4      13 LYL4        0.0000 
     14 NZ         60.0980   -5.2180   25.7780 N.4       8 LYP4        0.0000 
     15 N          59.0675   -4.4820   24.8520 N.am      2 SEC2        0.0000 
     16 N          58.0370   -3.7460   23.9260 N.am     12 SEL2        0.0000 
     17 N          60.0980   -5.2180   25.7780 N.am      7 SEP2        0.0000 
     18 NZ         59.6855   -4.2730   26.8960 N.4       3 LYC4        0.0000 
     19 NZ         59.2730   -3.3280   28.0140 N.4      13 LYL4        0.0000 
     20 N          59.6855   -4.2730   26.8960 N.am      2 SEC2        0.0000 
     21 N          59.2730   -3.3280   28.0140 N.am     12 SEL2        0.0000 
     22 Zn         57.5770   -1.0060   25.8750 Zn        4 ZIC7        0.0000 
     23 Zn         57.9240   -1.5060   26.7410 Zn       14 ZIL7        0.0000 
     24 CA         53.6425   -3.5075   28.3545 C.3       5 GLC5        0.0000 
     25 CA         55.6250   -2.5050   28.4520 C.3      15 GLL5        0.0000 
     26 CA         51.6600   -4.5100   28.2570 C.3      10 GLP5        0.0000 
     27 CA         54.4630   -2.7095   26.8525 C.3       5 GLC5        0.0000 
     28 CA         53.3010   -2.9140   25.2530 C.3      10 GLP5        0.0000 
     29 CA         53.6965   -2.7595   30.8080 C.3       5 GLC5        0.0000 
     30 CA         55.1740   -1.8110   29.7310 C.3      15 GLL5        0.0000 
     31 CA         52.2190   -3.7080   31.8850 C.3      10 GLP5        0.0000 
     32 O          56.3995    1.4185   29.0815 O.2       1 ALC1        0.0000 
     33 O          55.4190    0.6050   29.4750 O.2      11 ALL1        0.0000 
     34 O          57.3800    2.2320   28.6880 O.2       6 ALP1        0.0000 
     35 CA         57.6525    0.1895   32.2575 C.3       5 GLC5        0.0000 
     36 CA         55.9150   -0.5110   31.6150 C.3      15 GLL5        0.0000 
     37 CA         59.3900    0.8900   32.9000 C.3      10 GLP5        0.0000 
     38 O          54.7325    1.7660   32.1250 O.2       1 ALC1        0.0000 
     39 O          54.7050    0.1120   32.0490 O.2      11 ALL1        0.0000 
     40 O          54.7600    3.4200   32.2010 O.2       6 ALP1        0.0000 
     41 CA         54.0190   -2.8510   31.9415 C.3       5 GLC5        0.0000 
     42 CA         55.8190   -1.9940   31.9980 C.3      15 GLL5        0.0000 
     43 CA         55.8345   -4.0970   31.8400 C.3       5 GLC5        0.0000 
     44 CA         55.8500   -6.2000   31.6820 C.3      10 GLP5        0.0000 
     45 CA         57.8545   -4.1325   35.5015 C.3       5 GLC5        0.0000 
     46 CA         59.7550   -3.2710   34.7310 C.3      15 GLL5        0.0000 
     47 CA         55.9540   -4.9940   36.2720 C.3      10 GLP5        0.0000 
     48 O          62.0275   -4.1640   35.6900 O.2       1 ALC1        0.0000 
     49 O          61.0220   -3.7420   34.7230 O.2      11 ALL1        0.0000 
     50 O          63.0330   -4.5860   36.6570 O.2       6 ALP1        0.0000 
     51 N          59.9210   -2.6705   37.2805 N.am      2 SEC2        0.0000 
     52 N          59.1730   -2.8950   35.8920 N.am     12 SEL2        0.0000 
     53 N          60.6690   -2.4460   38.6690 N.am      7 SEP2        0.0000 
     54 CA         56.9370   -3.6905   36.0970 C.3       5 GLC5        0.0000 
     55 CA         57.9200   -2.3870   35.9220 C.3      15 GLL5        0.0000 
     56 CA         59.1985   -1.7245   37.5095 C.3       5 GLC5        0.0000 
     57 CA         60.4770   -1.0620   39.0970 C.3      10 GLP5        0.0000 
     58 CA         57.1430   -0.3525   36.1665 C.3       5 GLC5        0.0000 
     59 CA         56.3660    1.6820   36.4110 C.3      10 GLP5        0.0000 
     60 CA         56.8025   -3.7695   34.9330 C.3       5 GLC5        0.0000 
     61 CA         57.6510   -2.5450   33.5940 C.3      15 GLL5        0.0000 
     62 CA         58.5205   -0.8275   33.2470 C.3       5 GLC5        0.0000 
     63 CA         55.9502   -4.0280   29.7167 C.3       5 GLC5        0.0000 
     64 CA         56.5010   -5.8980   30.3420 C.3      10 GLP5        0.0000 
     65 CA         56.0457    1.3872   31.3975 C.3       5 GLC5        0.0000 
     66 CA         55.9820   -0.5480   30.0990 C.3      15 GLL5        0.0000 
     67 CA         56.1430    3.3040   31.9380 C.3      10 GLP5        0.0000 
     68 CA         59.7713   -4.9787   34.8942 C.3       5 GLC5        0.0000 
     69 CA         59.0020   -3.1040   33.4880 C.3      15 GLL5        0.0000 
     70 CA         60.1640   -6.7700   35.6790 C.3      10 GLP5        0.0000 
     71 CA         60.4143   -1.8193   33.7452 C.3       5 GLC5        0.0000 
     72 CA         61.4500   -0.4510   33.3810 C.3      10 GLP5        0.0000 
     73 CA         57.6939   -4.4621   33.3214 C.3       5 GLC5        0.0000 
     74 CA         56.8730   -6.0580   32.7910 C.3      10 GLP5        0.0000 
@<TRIPOS>BOND
@<TRIPOS>SUBSTRUCTURE
     1 ALC1       32 GROUP        1 X    ALC  0     ROOT ALC X 1
     2 SEC2        1 GROUP        1 X    SEC  0     **** SEC X 2
     3 LYC4       12 GROUP        1 X    LYC  0     **** LYC X 4
     4 ZIC7        6 GROUP        1 X    ZIC  0     **** ZIC X 5
     5 GLC5       24 GROUP        1 X    GLC  0     **** GLC X 6
     6 ALP1       34 GROUP        1 Y    ALP  0     ROOT ALP Y 8
     7 SEP2        3 GROUP        1 Y    SEP  0     **** SEP Y 9
     8 LYP4       14 GROUP        1 Y    LYP  0     **** LYP Y 11
     9 ZIP7        8 GROUP        1 Y    ZIP  0     **** ZIP Y 12
    10 GLP5       26 GROUP        1 Y    GLP  0     **** GLP Y 13
    11 ALL1       33 GROUP        1 Z    ALL  0     ROOT ALL Z 15
    12 SEL2        2 GROUP        1 Z    SEL  0     **** SEL Z 16
    13 LYL4       13 GROUP        1 Z    LYL  0     **** LYL Z 18
    14 ZIL7        7 GROUP        1 Z    ZIL  0     **** ZIL Z 19
    15 GLL5       25 GROUP        1 Z    GLL  0     **** GLL Z 20
@<TRIPOS>SET

