#    Name: 3g2f_ADP_2_ligand
#    Modification time : Tue Mar 25 07:01:06 2014

@<TRIPOS>MOLECULE
3g2f_ADP_2_ligand
   39    41     1     0     0
SMALL
NO_CHARGES


@<TRIPOS>ATOM
      1 PB         56.8470   -3.6300   24.8420 P.3       1 ADP900      0.0000 
      2 O1B        55.8090   -4.6930   24.5530 O.co2     1 ADP900      0.0000 
      3 O2B        56.2200   -2.2660   24.9250 O.co2     1 ADP900      0.0000 
      4 O3B        58.0370   -3.7460   23.9260 O.co2     1 ADP900      0.0000 
      5 PA         57.9750   -2.8750   27.3860 P.3       1 ADP900      0.0000 
      6 O1A        59.2730   -3.3280   28.0140 O.co2     1 ADP900      0.0000 
      7 O2A        57.9240   -1.5060   26.7410 O.co2     1 ADP900      0.0000 
      8 O3A        57.3820   -3.9350   26.3330 O.3       1 ADP900      0.0000 
      9 O5'        56.9780   -2.9200   28.6470 O.3       1 ADP900      0.0000 
     10 C5'        55.6250   -2.5050   28.4520 C.3       1 ADP900      0.0000 
     11 C4'        55.1740   -1.8110   29.7310 C.3       1 ADP900      0.0000 
     12 O4'        55.3740   -2.6870   30.8270 O.3       1 ADP900      0.0000 
     13 C3'        55.9820   -0.5480   30.0990 C.3       1 ADP900      0.0000 
     14 O3'        55.4190    0.6050   29.4750 O.3       1 ADP900      0.0000 
     15 C2'        55.9150   -0.5110   31.6150 C.3       1 ADP900      0.0000 
     16 O2'        54.7050    0.1120   32.0490 O.3       1 ADP900      0.0000 
     17 C1'        55.8190   -1.9940   31.9980 C.3       1 ADP900      0.0000 
     18 N9         57.1590   -2.4890   32.3500 N.pl3     1 ADP900      0.0000 
     19 C8         58.1010   -2.9400   31.4780 C.2       1 ADP900      0.0000 
     20 N7         59.2320   -3.3120   32.1750 N.2       1 ADP900      0.0000 
     21 C5         59.0020   -3.1040   33.4880 C.ar      1 ADP900      0.0000 
     22 C6         59.7550   -3.2710   34.7310 C.ar      1 ADP900      0.0000 
     23 N6         61.0220   -3.7420   34.7230 N.pl3     1 ADP900      0.0000 
     24 N1         59.1730   -2.8950   35.8920 N.ar      1 ADP900      0.0000 
     25 C2         57.9200   -2.3870   35.9220 C.ar      1 ADP900      0.0000 
     26 N3         57.1650   -2.2230   34.8190 N.ar      1 ADP900      0.0000 
     27 C4         57.6510   -2.5450   33.5940 C.ar      1 ADP900      0.0000 
     28 H          54.9630   -3.3482   28.2740 H         1 ADP900      0.0000 
     29 H          55.5311   -1.7971   27.6328 H         1 ADP900      0.0000 
     30 H          54.1415   -1.5347   29.6540 H         1 ADP900      0.0000 
     31 H          56.9966   -0.7359   29.8115 H         1 ADP900      0.0000 
     32 H          56.7807   -0.1138   32.0095 H         1 ADP900      0.0000 
     33 H          55.1462   -2.0958   32.7992 H         1 ADP900      0.0000 
     34 H          58.0038   -2.9953   30.5201 H         1 ADP900      0.0000 
     35 H          61.4786   -3.7917   35.6113 H         1 ADP900      0.0000 
     36 H          61.3903   -3.9990   33.8295 H         1 ADP900      0.0000 
     37 H          57.5134   -2.1041   36.8632 H         1 ADP900      0.0000 
     38 H          56.2023    1.1809   29.2410 H         1 ADP900      0.0000 
     39 H          54.9010    1.0926   32.0393 H         1 ADP900      0.0000 
@<TRIPOS>BOND
     1    2    1 ar   
     2    3    1 ar   
     3    4    1 ar   
     4    8    1 1    
     5    6    5 ar   
     6    7    5 ar   
     7    8    5 1    
     8    9    5 1    
     9   10    9 1    
    10   11   10 1    
    11   28   10 1    
    12   29   10 1    
    13   12   11 1    
    14   13   11 1    
    15   30   11 1    
    16   17   12 1    
    17   14   13 1    
    18   15   13 1    
    19   31   13 1    
    20   38   14 1    
    21   16   15 1    
    22   17   15 1    
    23   32   15 1    
    24   39   16 1    
    25   18   17 1    
    26   33   17 1    
    27   19   18 1    
    28   27   18 1    
    29   20   19 2    
    30   34   19 1    
    31   21   20 1    
    32   22   21 ar   
    33   27   21 ar   
    34   23   22 1    
    35   24   22 ar   
    36   35   23 1    
    37   36   23 1    
    38   25   24 ar   
    39   26   25 ar   
    40   37   25 1    
    41   27   26 ar   
@<TRIPOS>SUBSTRUCTURE
     1 ADP900      1 GROUP   
@<TRIPOS>SET

