#    Name: 2ldb_NAD_2_INTS_M
#    Modification time : Tue Mar 25 21:17:54 2014

@<TRIPOS>MOLECULE
2ldb_NAD_2_INTS_M
   69     0     9     0     0
SMALL
NO_CHARGES


@<TRIPOS>ATOM
      1 N          -3.3715  -26.3695    6.3400 N.am      2 SEC2        0.0000 
      2 N          -3.9700  -27.8160    6.8950 N.am      8 SEL2        0.0000 
      3 N          -2.7730  -24.9230    5.7850 N.am      5 SEP2        0.0000 
      4 CA         -2.8250  -25.6410   12.1470 C.3       3 GLC5        0.0000 
      5 CA         -3.1300  -27.3440   10.9920 C.3       9 GLL5        0.0000 
      6 CA         -2.5200  -23.9380   13.3020 C.3       6 GLP5        0.0000 
      7 CA         -1.9045  -26.9380    9.3880 C.3       3 GLC5        0.0000 
      8 CA         -2.0560  -28.4260   10.8650 C.3       9 GLL5        0.0000 
      9 CA         -1.7530  -25.4500    7.9110 C.3       6 GLP5        0.0000 
     10 O          -0.3225  -27.0825   11.4745 O.2       1 ALC1        0.0000 
     11 O          -0.7890  -27.8230   10.4940 O.2       7 ALL1        0.0000 
     12 O           0.1440  -26.3420   12.4550 O.2       4 ALP1        0.0000 
     13 O           0.0810  -28.7785   13.2050 O.2       1 ALC1        0.0000 
     14 O          -0.7400  -29.4970   12.7400 O.2       7 ALL1        0.0000 
     15 O           0.9020  -28.0600   13.6700 O.2       4 ALP1        0.0000 
     16 CA         -2.5330  -25.8825   13.2170 C.3       3 GLC5        0.0000 
     17 CA         -2.5460  -27.8270   13.1320 C.3       9 GLL5        0.0000 
     18 CA         -4.0745  -26.7305   14.3385 C.3       3 GLC5        0.0000 
     19 CA         -5.6030  -25.6340   15.5450 C.3       6 GLP5        0.0000 
     20 CA         -5.6170  -28.6970   18.0460 C.3       3 GLC5        0.0000 
     21 CA         -3.4670  -28.5700   17.8750 C.3       9 GLL5        0.0000 
     22 CA         -7.7670  -28.8240   18.2170 C.3       6 GLP5        0.0000 
     23 CA         -2.8220  -25.2060   17.5910 C.3       3 GLC5        0.0000 
     24 CA         -1.8640  -26.9020   17.3540 C.3       9 GLL5        0.0000 
     25 CA         -3.7800  -23.5100   17.8280 C.3       6 GLP5        0.0000 
     26 CA         -0.2855  -26.2920   16.4825 C.3       3 GLC5        0.0000 
     27 CA          1.2930  -25.6820   15.6110 C.3       6 GLP5        0.0000 
     28 CA         -0.3725  -27.9970   17.3410 C.3       3 GLC5        0.0000 
     29 CA          1.1190  -29.0920   17.3280 C.3       6 GLP5        0.0000 
     30 CA         -3.7335  -26.2680   16.4495 C.3       3 GLC5        0.0000 
     31 N          -0.5790  -27.4355   16.3515 N.am      2 SEC2        0.0000 
     32 N          -1.8820  -27.0360   16.0580 N.am      8 SEL2        0.0000 
     33 N           0.7240  -27.8350   16.6450 N.am      5 SEP2        0.0000 
     34 N          -5.2185  -24.0910    6.3075 N.am      2 SEC2        0.0000 
     35 N          -5.7350  -25.2480    6.8300 N.am      8 SEL2        0.0000 
     36 N          -4.7020  -22.9340    5.7850 N.am      5 SEP2        0.0000 
     37 N         -12.7395  -25.9205   10.6740 N.am      2 SEC2        0.0000 
     38 N         -11.8040  -26.6770   10.2580 N.am      8 SEL2        0.0000 
     39 N         -13.6750  -25.1640   11.0900 N.am      5 SEP2        0.0000 
     40 N         -13.6765  -25.2645    7.9230 N.am      2 SEC2        0.0000 
     41 N         -12.7230  -26.1380    7.6730 N.am      8 SEL2        0.0000 
     42 N         -14.6300  -24.3910    8.1730 N.am      5 SEP2        0.0000 
     43 CA        -11.5780  -24.0490   10.2580 C.3       3 GLC5        0.0000 
     44 CA        -11.1810  -24.4170    8.3900 C.3       9 GLL5        0.0000 
     45 CA        -11.9750  -23.6810   12.1260 C.3       6 GLP5        0.0000 
     46 O         -13.4400  -21.0685    9.1375 O.2       1 ALC1        0.0000 
     47 O         -14.6040  -20.4580    8.1280 O.2       7 ALL1        0.0000 
     48 O         -12.2760  -21.6790   10.1470 O.2       4 ALP1        0.0000 
     49 CA        -13.5155  -20.3660    3.9955 C.3       3 GLC5        0.0000 
     50 CA        -12.6110  -21.8060    5.3750 C.3       9 GLL5        0.0000 
     51 CA        -14.4200  -18.9260    2.6160 C.3       6 GLP5        0.0000 
     52 CA         -2.6987  -26.3427    9.1970 C.3       3 GLC5        0.0000 
     53 CA         -4.1590  -27.1270    9.9740 C.3       9 GLL5        0.0000 
     54 CA         -1.5685  -29.2231   16.9369 C.3       3 GLC5        0.0000 
     55 CA         -3.5470  -28.7890   16.4880 C.3       9 GLL5        0.0000 
     56 CA          0.0080  -30.1180   17.4510 C.3       6 GLP5        0.0000 
     57 CA         -4.3740  -26.9811   15.9839 C.3       3 GLC5        0.0000 
     58 CA         -2.7830  -27.9770   15.6640 C.3       9 GLL5        0.0000 
     59 CA        -11.1037  -24.8630   10.8033 C.3       3 GLC5        0.0000 
     60 CA         -9.6810  -25.5490    9.7000 C.3       9 GLL5        0.0000 
     61 CA        -12.0198  -20.8140    7.2218 C.3       3 GLC5        0.0000 
     62 CA        -12.6460  -22.6810    7.6300 C.3       9 GLL5        0.0000 
     63 CA        -11.1430  -19.3590    7.2890 C.3       6 GLP5        0.0000 
     64 CA         -9.6095  -22.6495    5.4910 C.3       3 GLC5        0.0000 
     65 CA        -11.6510  -22.7720    5.1430 C.3       9 GLL5        0.0000 
     66 CA         -7.8100  -22.0570    5.4090 C.3       6 GLP5        0.0000 
     67 CA        -10.7575  -21.3963    5.2955 C.3       3 GLC5        0.0000 
     68 CA        -11.1670  -23.7120    6.0030 C.3       9 GLL5        0.0000 
     69 CA         -9.8660  -19.7920    4.9600 C.3       6 GLP5        0.0000 
@<TRIPOS>BOND
@<TRIPOS>SUBSTRUCTURE
     1 ALC1       10 GROUP        1 X    ALC  0     ROOT ALC X 1
     2 SEC2        1 GROUP        1 X    SEC  0     **** SEC X 2
     3 GLC5        4 GROUP        1 X    GLC  0     **** GLC X 6
     4 ALP1       12 GROUP        1 Y    ALP  0     ROOT ALP Y 8
     5 SEP2        3 GROUP        1 Y    SEP  0     **** SEP Y 9
     6 GLP5        6 GROUP        1 Y    GLP  0     **** GLP Y 13
     7 ALL1       11 GROUP        1 Z    ALL  0     ROOT ALL Z 15
     8 SEL2        2 GROUP        1 Z    SEL  0     **** SEL Z 16
     9 GLL5        5 GROUP        1 Z    GLL  0     **** GLL Z 20
@<TRIPOS>SET

