#    Name: 2ldb_NAD_2_ligand
#    Modification time : Tue Mar 25 21:17:54 2014

@<TRIPOS>MOLECULE
2ldb_NAD_2_ligand
   70    74     1     0     0
SMALL
NO_CHARGES


@<TRIPOS>ATOM
      1 PA         -5.0340  -28.3140    7.7980 P.3       1 NAD5        0.0000 
      2 O1A        -5.3590  -29.7540    7.4250 O.co2     1 NAD5        0.0000 
      3 O2A        -3.9700  -27.8160    6.8950 O.co2     1 NAD5        0.0000 
      4 O5B        -4.5650  -28.3780    9.3500 O.3       1 NAD5        0.0000 
      5 C5B        -4.1590  -27.1270    9.9740 C.3       1 NAD5        0.0000 
      6 C4B        -3.1300  -27.3440   10.9920 C.3       1 NAD5        0.0000 
      7 O4B        -3.7130  -27.4970   12.3290 O.3       1 NAD5        0.0000 
      8 C3B        -2.0560  -28.4260   10.8650 C.3       1 NAD5        0.0000 
      9 O3B        -0.7890  -27.8230   10.4940 O.3       1 NAD5        0.0000 
     10 C2B        -1.9950  -29.0240   12.2660 C.3       1 NAD5        0.0000 
     11 O2B        -0.7400  -29.4970   12.7400 O.3       1 NAD5        0.0000 
     12 C1B        -2.5460  -27.8270   13.1320 C.3       1 NAD5        0.0000 
     13 N9A        -3.1380  -28.3300   14.3730 N.pl3     1 NAD5        0.0000 
     14 C8A        -4.0870  -29.3020   14.4660 C.2       1 NAD5        0.0000 
     15 N7A        -4.3500  -29.6170   15.7420 N.2       1 NAD5        0.0000 
     16 C5A        -3.5470  -28.7890   16.4880 C.ar      1 NAD5        0.0000 
     17 C6A        -3.4670  -28.5700   17.8750 C.ar      1 NAD5        0.0000 
     18 N6A        -4.1620  -29.2940   18.7500 N.pl3     1 NAD5        0.0000 
     19 N1A        -2.6240  -27.5900   18.3000 N.ar      1 NAD5        0.0000 
     20 C2A        -1.8640  -26.9020   17.3540 C.ar      1 NAD5        0.0000 
     21 N3A        -1.8820  -27.0360   16.0580 N.ar      1 NAD5        0.0000 
     22 C4A        -2.7830  -27.9770   15.6640 C.ar      1 NAD5        0.0000 
     23 O3         -6.3260  -27.4170    7.8840 O.3       1 NAD5        0.0000 
     24 PN         -6.8630  -26.1920    7.0710 P.3       1 NAD5        0.0000 
     25 O1N        -7.4490  -26.5960    5.7350 O.co2     1 NAD5        0.0000 
     26 O2N        -5.7350  -25.2480    6.8300 O.co2     1 NAD5        0.0000 
     27 O5D        -8.0230  -25.5940    8.0280 O.3       1 NAD5        0.0000 
     28 C5D        -8.2690  -26.0410    9.3950 C.3       1 NAD5        0.0000 
     29 C4D        -9.6810  -25.5490    9.7000 C.3       1 NAD5        0.0000 
     30 O4D        -9.8020  -24.3710    8.7450 O.3       1 NAD5        0.0000 
     31 C3D       -10.7840  -26.5410    9.2610 C.3       1 NAD5        0.0000 
     32 O3D       -11.8040  -26.6770   10.2580 O.3       1 NAD5        0.0000 
     33 C2D       -11.3730  -25.8980    8.0110 C.3       1 NAD5        0.0000 
     34 O2D       -12.7230  -26.1380    7.6730 O.3       1 NAD5        0.0000 
     35 C1D       -11.1810  -24.4170    8.3900 C.3       1 NAD5        0.0000 
     36 N1N       -11.6310  -23.5400    7.3280 N.pl3     1 NAD5        0.0000 
     37 C2N       -12.6460  -22.6810    7.6300 C.ar      1 NAD5        0.0000 
     38 C3N       -13.1470  -21.8570    6.6790 C.ar      1 NAD5        0.0000 
     39 C7N       -14.2390  -20.7710    6.8870 C.2       1 NAD5        0.0000 
     40 O7N       -14.6470  -20.1610    5.8790 O.2       1 NAD5        0.0000 
     41 N7N       -14.6040  -20.4580    8.1280 N.am      1 NAD5        0.0000 
     42 C4N       -12.6110  -21.8060    5.3750 C.ar      1 NAD5        0.0000 
     43 C5N       -11.6510  -22.7720    5.1430 C.ar      1 NAD5        0.0000 
     44 C6N       -11.1670  -23.7120    6.0030 C.ar      1 NAD5        0.0000 
     45 H          -5.0367  -26.6338   10.4338 H         1 NAD5        0.0000 
     46 H          -3.7772  -26.4293    9.2043 H         1 NAD5        0.0000 
     47 H          -2.5236  -26.3570   11.0817 H         1 NAD5        0.0000 
     48 H          -2.3916  -29.1565   10.1908 H         1 NAD5        0.0000 
     49 H          -2.7912  -29.7758   12.3219 H         1 NAD5        0.0000 
     50 H          -1.8911  -27.0996   13.2028 H         1 NAD5        0.0000 
     51 H          -4.5209  -29.7163   13.6833 H         1 NAD5        0.0000 
     52 H          -4.7810  -29.9772   18.3626 H         1 NAD5        0.0000 
     53 H          -4.0024  -29.0893   19.7157 H         1 NAD5        0.0000 
     54 H          -1.1761  -26.1640   17.7889 H         1 NAD5        0.0000 
     55 H          -7.5894  -25.5859   10.0850 H         1 NAD5        0.0000 
     56 H          -8.2532  -27.1085    9.4676 H         1 NAD5        0.0000 
     57 H          -9.7867  -25.2366   10.6600 H         1 NAD5        0.0000 
     58 H         -10.3251  -27.4495    8.9870 H         1 NAD5        0.0000 
     59 H         -10.6718  -26.0650    7.2022 H         1 NAD5        0.0000 
     60 H         -11.7927  -24.2860    9.2955 H         1 NAD5        0.0000 
     61 H         -13.0339  -22.6616    8.5950 H         1 NAD5        0.0000 
     62 H         -14.1360  -20.9506    8.8618 H         1 NAD5        0.0000 
     63 H         -15.3133  -19.7585    8.2148 H         1 NAD5        0.0000 
     64 H         -12.9006  -21.1460    4.7117 H         1 NAD5        0.0000 
     65 H         -11.2274  -22.7776    4.1336 H         1 NAD5        0.0000 
     66 H         -10.5595  -24.4417    5.7556 H         1 NAD5        0.0000 
     67 H          -0.5161  -27.2836   11.2906 H         1 NAD5        0.0000 
     68 H          -0.5036  -28.8886   13.4975 H         1 NAD5        0.0000 
     69 H         -11.5042  -26.0972   11.0156 H         1 NAD5        0.0000 
     70 H         -13.1032  -26.6273    8.4579 H         1 NAD5        0.0000 
@<TRIPOS>BOND
     1    2    1 ar   
     2    3    1 ar   
     3    4    1 1    
     4   23    1 1    
     5    5    4 1    
     6    6    5 1    
     7   45    5 1    
     8   46    5 1    
     9    7    6 1    
    10    8    6 1    
    11   47    6 1    
    12   12    7 1    
    13    9    8 1    
    14   10    8 1    
    15   48    8 1    
    16   67    9 1    
    17   11   10 1    
    18   12   10 1    
    19   49   10 1    
    20   68   11 1    
    21   13   12 1    
    22   50   12 1    
    23   14   13 1    
    24   22   13 1    
    25   15   14 2    
    26   51   14 1    
    27   16   15 1    
    28   17   16 ar   
    29   22   16 ar   
    30   18   17 1    
    31   19   17 ar   
    32   52   18 1    
    33   53   18 1    
    34   20   19 ar   
    35   21   20 ar   
    36   54   20 1    
    37   22   21 ar   
    38   24   23 1    
    39   25   24 ar   
    40   26   24 ar   
    41   27   24 1    
    42   28   27 1    
    43   29   28 1    
    44   55   28 1    
    45   56   28 1    
    46   30   29 1    
    47   31   29 1    
    48   57   29 1    
    49   35   30 1    
    50   32   31 1    
    51   33   31 1    
    52   58   31 1    
    53   69   32 1    
    54   34   33 1    
    55   35   33 1    
    56   59   33 1    
    57   70   34 1    
    58   36   35 1    
    59   60   35 1    
    60   37   36 ar   
    61   44   36 ar   
    62   38   37 ar   
    63   61   37 1    
    64   39   38 1    
    65   42   38 ar   
    66   40   39 2    
    67   41   39 am   
    68   62   41 1    
    69   63   41 1    
    70   43   42 ar   
    71   64   42 1    
    72   44   43 ar   
    73   65   43 1    
    74   66   44 1    
@<TRIPOS>SUBSTRUCTURE
     1 NAD5        1 GROUP   
@<TRIPOS>SET

