#    Name: 4hkk_AGI_1_INTS_M
#    Modification time : Tue Mar 25 01:07:46 2014

@<TRIPOS>MOLECULE
4hkk_AGI_1_INTS_M
   44     0     9     0     0
SMALL
NO_CHARGES


@<TRIPOS>ATOM
      1 CA         -4.6155  -10.4820  -12.9120 C.3       3 GLC5        0.0000 
      2 CA         -6.4270  -10.6520  -11.7700 C.3       9 GLL5        0.0000 
      3 CA         -2.8040  -10.3120  -14.0540 C.3       6 GLP5        0.0000 
      4 CA         -7.5665  -12.0010  -11.8585 C.3       3 GLC5        0.0000 
      5 CA         -8.7060  -13.3500  -11.9470 C.3       6 GLP5        0.0000 
      6 CA         -7.4475   -7.8720  -13.3505 C.3       3 GLC5        0.0000 
      7 CA         -7.2370   -9.9840  -12.6950 C.3       9 GLL5        0.0000 
      8 CA         -7.6580   -5.7600  -14.0060 C.3       6 GLP5        0.0000 
      9 CA         -8.5110  -11.1510  -12.1980 C.3       3 GLC5        0.0000 
     10 CA         -9.7850  -12.3180  -11.7010 C.3       6 GLP5        0.0000 
     11 N          -9.0885   -8.9560  -14.6305 N.am      2 SEC2        0.0000 
     12 N          -7.8990   -9.8160  -14.8700 N.am      8 SEL2        0.0000 
     13 N         -10.2780   -8.0960  -14.3910 N.am      5 SEP2        0.0000 
     14 CA         -5.9115  -14.7325  -16.1850 C.3       3 GLC5        0.0000 
     15 CA         -4.4970  -13.5480  -15.0940 C.3       9 GLL5        0.0000 
     16 CA         -7.3260  -15.9170  -17.2760 C.3       6 GLP5        0.0000 
     17 O          -3.4735  -15.0415  -16.5665 O.2       1 ALC1        0.0000 
     18 O          -3.6320  -14.5730  -15.3950 O.2       7 ALL1        0.0000 
     19 O          -3.3150  -15.5100  -17.7380 O.2       4 ALP1        0.0000 
     20 CA         -4.3105  -13.6085  -17.9785 C.3       3 GLC5        0.0000 
     21 CA         -5.1870  -12.8700  -16.1010 C.3       9 GLL5        0.0000 
     22 CA         -3.4340  -14.3470  -19.8560 C.3       6 GLP5        0.0000 
     23 CA         -5.2550  -10.0375  -16.7655 C.3       3 GLC5        0.0000 
     24 CA         -6.0540  -11.8060  -15.7360 C.3       9 GLL5        0.0000 
     25 CA         -4.4560   -8.2690  -17.7950 C.3       6 GLP5        0.0000 
     26 CA         -8.5793   -7.9778   -9.3825 C.3       3 GLC5        0.0000 
     27 CA         -7.0580   -9.3390   -9.7710 C.3       9 GLL5        0.0000 
     28 CA        -10.1530   -6.7110   -9.6870 C.3       6 GLP5        0.0000 
     29 CA         -8.2565  -11.0995  -10.8900 C.3       3 GLC5        0.0000 
     30 CA         -3.7680  -11.2760   -9.0407 C.3       3 GLC5        0.0000 
     31 CA         -5.6410  -11.3130   -9.6020 C.3       9 GLL5        0.0000 
     32 CA         -1.9480  -11.3320   -9.1700 C.3       6 GLP5        0.0000 
     33 CA         -6.0820  -12.8065   -7.6967 C.3       3 GLC5        0.0000 
     34 CA         -5.5350  -11.1270   -8.2210 C.3       9 GLL5        0.0000 
     35 CA         -6.5760  -14.3930   -6.4820 C.3       6 GLP5        0.0000 
     36 CA         -4.3422  -11.0290  -13.9905 C.3       3 GLC5        0.0000 
     37 CA         -5.5180  -12.0960  -13.4400 C.3       9 GLL5        0.0000 
     38 CA         -3.6907  -11.8323  -14.2400 C.3       3 GLC5        0.0000 
     39 CA         -4.6580  -13.1570  -13.7580 C.3       9 GLL5        0.0000 
     40 CA         -4.2123  -11.3250  -14.9863 C.3       3 GLC5        0.0000 
     41 CA         -6.1947  -11.9910  -17.9312 C.3       3 GLC5        0.0000 
     42 CA         -6.7690  -11.6440  -19.9440 C.3       6 GLP5        0.0000 
     43 CA         -6.5183  -13.5635  -17.1092 C.3       3 GLC5        0.0000 
     44 CA         -7.4160  -14.7890  -18.3000 C.3       6 GLP5        0.0000 
@<TRIPOS>BOND
@<TRIPOS>SUBSTRUCTURE
     1 ALC1       17 GROUP        1 X    ALC  0     ROOT ALC X 1
     2 SEC2       11 GROUP        1 X    SEC  0     **** SEC X 2
     3 GLC5        1 GROUP        1 X    GLC  0     **** GLC X 6
     4 ALP1       19 GROUP        1 Y    ALP  0     ROOT ALP Y 8
     5 SEP2       13 GROUP        1 Y    SEP  0     **** SEP Y 9
     6 GLP5        3 GROUP        1 Y    GLP  0     **** GLP Y 13
     7 ALL1       18 GROUP        1 Z    ALL  0     ROOT ALL Z 15
     8 SEL2       12 GROUP        1 Z    SEL  0     **** SEL Z 16
     9 GLL5        2 GROUP        1 Z    GLL  0     **** GLL Z 20
@<TRIPOS>SET

