#    Name: 4hkk_AGI_1_ligand
#    Modification time : Tue Mar 25 01:07:46 2014

@<TRIPOS>MOLECULE
4hkk_AGI_1_ligand
   30    32     1     0     0
SMALL
NO_CHARGES


@<TRIPOS>ATOM
      1 CAG        -7.0580   -9.3390   -9.7710 C.ar      1 AGI1204     0.0000 
      2 CAE        -6.9530   -9.1500   -8.3850 C.ar      1 AGI1204     0.0000 
      3 CAM        -6.2000  -10.0460   -7.6180 C.ar      1 AGI1204     0.0000 
      4 OAB        -6.1030   -9.9020   -6.2730 O.3       1 AGI1204     0.0000 
      5 CAF        -5.5350  -11.1270   -8.2210 C.ar      1 AGI1204     0.0000 
      6 CAH        -5.6410  -11.3130   -9.6020 C.ar      1 AGI1204     0.0000 
      7 CAP        -6.3980  -10.4230  -10.3870 C.ar      1 AGI1204     0.0000 
      8 CAQ        -6.4270  -10.6520  -11.7700 C.2       1 AGI1204     0.0000 
      9 OAL        -5.6400  -11.7080  -12.1420 O.3       1 AGI1204     0.0000 
     10 CAJ        -7.2370   -9.9840  -12.6950 C.2       1 AGI1204     0.0000 
     11 CAR        -7.1200  -10.3310  -14.0490 C.2       1 AGI1204     0.0000 
     12 OAA        -7.8990   -9.8160  -14.8700 O.2       1 AGI1204     0.0000 
     13 CAT        -6.2430  -11.3960  -14.4140 C.ar      1 AGI1204     0.0000 
     14 CAS        -5.5180  -12.0960  -13.4400 C.ar      1 AGI1204     0.0000 
     15 CAK        -4.6580  -13.1570  -13.7580 C.ar      1 AGI1204     0.0000 
     16 CAN        -4.4970  -13.5480  -15.0940 C.ar      1 AGI1204     0.0000 
     17 OAC        -3.6320  -14.5730  -15.3950 O.3       1 AGI1204     0.0000 
     18 CAI        -5.1870  -12.8700  -16.1010 C.ar      1 AGI1204     0.0000 
     19 CAO        -6.0540  -11.8060  -15.7360 C.ar      1 AGI1204     0.0000 
     20 OAD        -6.7310  -11.1080  -16.6850 O.3       1 AGI1204     0.0000 
     21 H          -7.6122   -8.6928  -10.3381 H         1 AGI1204     0.0000 
     22 H          -7.4253   -8.3604   -7.9385 H         1 AGI1204     0.0000 
     23 H          -4.9808  -11.7682   -7.6529 H         1 AGI1204     0.0000 
     24 H          -5.1641  -12.1045  -10.0523 H         1 AGI1204     0.0000 
     25 H          -7.8894   -9.2703  -12.3971 H         1 AGI1204     0.0000 
     26 H          -4.1492  -13.6445  -13.0157 H         1 AGI1204     0.0000 
     27 H          -5.0787  -13.1237  -17.0759 H         1 AGI1204     0.0000 
     28 H          -5.2258  -10.3168   -6.0310 H         1 AGI1204     0.0000 
     29 H          -3.3642  -14.4148  -16.3454 H         1 AGI1204     0.0000 
     30 H          -7.6089  -10.8819  -16.2628 H         1 AGI1204     0.0000 
@<TRIPOS>BOND
     1    2    1 ar   
     2    7    1 ar   
     3   21    1 1    
     4    3    2 ar   
     5   22    2 1    
     6    4    3 1    
     7    5    3 ar   
     8   28    4 1    
     9    6    5 ar   
    10   23    5 1    
    11    7    6 ar   
    12   24    6 1    
    13    8    7 1    
    14    9    8 1    
    15   10    8 2    
    16   14    9 1    
    17   11   10 1    
    18   25   10 1    
    19   12   11 2    
    20   13   11 1    
    21   14   13 ar   
    22   19   13 ar   
    23   15   14 ar   
    24   16   15 ar   
    25   26   15 1    
    26   17   16 1    
    27   18   16 ar   
    28   29   17 1    
    29   19   18 ar   
    30   27   18 1    
    31   20   19 1    
    32   30   20 1    
@<TRIPOS>SUBSTRUCTURE
     1 AGI1204     1 GROUP   
@<TRIPOS>SET

