#    Name: 2hsd_NAD_4_INTS_M
#    Modification time : Tue Mar 25 17:01:53 2014

@<TRIPOS>MOLECULE
2hsd_NAD_4_INTS_M
   82     0     9     0     0
SMALL
NO_CHARGES


@<TRIPOS>ATOM
      1 N         107.3500   -8.5265   58.3560 N.am      2 SEC2        0.0000 
      2 N         106.2550   -8.3830   59.4820 N.am      8 SEL2        0.0000 
      3 N         108.4450   -8.6700   57.2300 N.am      5 SEP2        0.0000 
      4 CA        104.8555  -14.3325   59.8090 C.3       3 GLC5        0.0000 
      5 CA        104.8690  -12.7140   58.6950 C.3       9 GLL5        0.0000 
      6 CA        104.8420  -15.9510   60.9230 C.3       6 GLP5        0.0000 
      7 CA        103.2265  -14.0885   58.8280 C.3       3 GLC5        0.0000 
      8 CA        101.5840  -15.4630   58.9610 C.3       6 GLP5        0.0000 
      9 N         102.6510  -13.7320   57.4835 N.am      2 SEC2        0.0000 
     10 N         104.2140  -13.5910   57.7700 N.am      8 SEL2        0.0000 
     11 N         101.0880  -13.8730   57.1970 N.am      5 SEP2        0.0000 
     12 CA        107.6240  -11.5165   59.4335 C.3       3 GLC5        0.0000 
     13 CA        106.2640  -12.4650   58.0940 C.3       9 GLL5        0.0000 
     14 CA        108.9840  -10.5680   60.7730 C.3       6 GLP5        0.0000 
     15 O         107.8010  -14.2675   59.3445 O.2       1 ALC1        0.0000 
     16 O         107.3380  -12.9310   58.9330 O.2       7 ALL1        0.0000 
     17 O         108.2640  -15.6040   59.7560 O.2       4 ALP1        0.0000 
     18 CA        108.2235  -13.4970   56.2295 C.3       3 GLC5        0.0000 
     19 CA        106.1800  -13.1450   56.7200 C.3       9 GLL5        0.0000 
     20 CA        110.2670  -13.8490   55.7390 C.3       6 GLP5        0.0000 
     21 O         107.6570  -14.9425   56.9085 O.2       1 ALC1        0.0000 
     22 O         107.4040  -13.4530   56.0340 O.2       7 ALL1        0.0000 
     23 O         107.9100  -16.4320   57.7830 O.2       4 ALP1        0.0000 
     24 CA        105.0755  -15.1225   59.0290 C.3       3 GLC5        0.0000 
     25 CA        105.3090  -14.2940   57.1350 C.3       9 GLL5        0.0000 
     26 CA        103.7115  -15.5185   57.7620 C.3       3 GLC5        0.0000 
     27 CA        102.1140  -16.7430   58.3890 C.3       6 GLP5        0.0000 
     28 CA        105.8155  -18.4560   54.0055 C.3       3 GLC5        0.0000 
     29 CA        103.9100  -17.9890   54.3950 C.3       9 GLL5        0.0000 
     30 CA        107.7210  -18.9230   53.6160 C.3       6 GLP5        0.0000 
     31 CA        104.5820  -20.0520   54.1325 C.3       3 GLC5        0.0000 
     32 CA        105.2540  -22.1150   53.8700 C.3       6 GLP5        0.0000 
     33 O         103.7810  -19.5410   52.4575 O.2       1 ALC1        0.0000 
     34 O         103.6490  -18.2200   53.1060 O.2       7 ALL1        0.0000 
     35 O         103.9130  -20.8620   51.8090 O.2       4 ALP1        0.0000 
     36 N         103.6360  -20.1955   54.9870 N.am      2 SEC2        0.0000 
     37 N         104.2130  -18.9450   55.3090 N.am      8 SEL2        0.0000 
     38 N         103.0590  -21.4460   54.6650 N.am      5 SEP2        0.0000 
     39 CA        103.6530  -19.0740   58.2030 C.3       3 GLC5        0.0000 
     40 CA        104.7710  -18.6720   56.4980 C.3       9 GLL5        0.0000 
     41 CA        102.5350  -19.4760   59.9080 C.3       6 GLP5        0.0000 
     42 CA        106.3710  -18.8890   57.6435 C.3       3 GLC5        0.0000 
     43 CA        107.9710  -19.1060   58.7890 C.3       6 GLP5        0.0000 
     44 CA        106.2460  -18.7975   55.0570 C.3       3 GLC5        0.0000 
     45 CA        105.0125  -20.3935   55.1840 C.3       3 GLC5        0.0000 
     46 CA        103.0070  -19.4135   56.1125 C.3       3 GLC5        0.0000 
     47 CA        101.2430  -20.1550   55.7270 C.3       6 GLP5        0.0000 
     48 CA        103.4425  -17.7075   57.4435 C.3       3 GLC5        0.0000 
     49 N         104.2760   -9.3965   63.8160 N.am      2 SEC2        0.0000 
     50 N         103.9930   -9.3860   62.4420 N.am      8 SEL2        0.0000 
     51 N         104.5590   -9.4070   65.1900 N.am      5 SEP2        0.0000 
     52 CA        101.8220  -10.0195   63.7165 C.3       3 GLC5        0.0000 
     53 CA        101.4130  -10.1900   61.7770 C.3       9 GLL5        0.0000 
     54 CA        102.2310   -9.8490   65.6560 C.3       6 GLP5        0.0000 
     55 CA         98.4205  -10.9575   62.8260 C.3       3 GLC5        0.0000 
     56 CA         99.9310  -10.3950   61.4620 C.3       9 GLL5        0.0000 
     57 CA         96.9100  -11.5200   64.1900 C.3       6 GLP5        0.0000 
     58 N          97.2060  -11.4650   59.3730 N.am      2 SEC2        0.0000 
     59 N          98.6990  -11.4990   59.6440 N.am      8 SEL2        0.0000 
     60 N          95.7130  -11.4310   59.1020 N.am      5 SEP2        0.0000 
     61 CA         97.7980   -8.6610   57.9065 C.3       3 GLC5        0.0000 
     62 CA         99.2830   -9.0950   59.5270 C.3       9 GLL5        0.0000 
     63 CA         96.3130   -8.2270   56.2860 C.3       6 GLP5        0.0000 
     64 N          97.3170   -8.2145   58.4500 N.am      2 SEC2        0.0000 
     65 N          98.3390   -9.2410   58.4620 N.am      8 SEL2        0.0000 
     66 N          96.2950   -7.1880   58.4380 N.am      5 SEP2        0.0000 
     67 N          97.0260  -10.3360   58.7820 N.am      2 SEC2        0.0000 
     68 CA        100.0590   -3.4530   63.2720 C.3       3 GLC5        0.0000 
     69 CA         99.4540   -4.2760   61.4070 C.3       9 GLL5        0.0000 
     70 CA        100.6640   -2.6300   65.1370 C.3       6 GLP5        0.0000 
     71 CA        106.3607  -16.6240   54.9908 C.3       3 GLC5        0.0000 
     72 CA        104.7250  -16.4130   56.0400 C.3       9 GLL5        0.0000 
     73 CA        108.2750  -16.6940   54.5580 C.3       6 GLP5        0.0000 
     74 CA        102.3240  -18.2860   54.6525 C.3       3 GLC5        0.0000 
     75 CA        104.1680  -16.6950   54.8070 C.3       9 GLL5        0.0000 
     76 CA        100.6090  -19.2300   54.7040 C.3       6 GLP5        0.0000 
     77 CA        103.2802  -16.6485   56.9062 C.3       3 GLC5        0.0000 
     78 CA        102.1630  -16.7315   53.9420 C.3       3 GLC5        0.0000 
     79 CA        100.2870  -16.1210   53.2830 C.3       6 GLP5        0.0000 
     80 CA         96.9982   -6.3912   63.1037 C.3       3 GLC5        0.0000 
     81 CA         97.9510   -6.1850   61.5350 C.3       9 GLL5        0.0000 
     82 CA         95.9160   -7.2760   64.5730 C.3       6 GLP5        0.0000 
@<TRIPOS>BOND
@<TRIPOS>SUBSTRUCTURE
     1 ALC1       15 GROUP        1 X    ALC  0     ROOT ALC X 1
     2 SEC2        1 GROUP        1 X    SEC  0     **** SEC X 2
     3 GLC5        4 GROUP        1 X    GLC  0     **** GLC X 6
     4 ALP1       17 GROUP        1 Y    ALP  0     ROOT ALP Y 8
     5 SEP2        3 GROUP        1 Y    SEP  0     **** SEP Y 9
     6 GLP5        6 GROUP        1 Y    GLP  0     **** GLP Y 13
     7 ALL1       16 GROUP        1 Z    ALL  0     ROOT ALL Z 15
     8 SEL2        2 GROUP        1 Z    SEL  0     **** SEL Z 16
     9 GLL5        5 GROUP        1 Z    GLL  0     **** GLL Z 20
@<TRIPOS>SET

