#    Name: 2hsd_NAD_4_ligand
#    Modification time : Tue Mar 25 17:01:53 2014

@<TRIPOS>MOLECULE
2hsd_NAD_4_ligand
   70    74     1     0     0
SMALL
NO_CHARGES


@<TRIPOS>ATOM
      1 PA        104.9120   -8.9450   59.1730 P.3       1 NAD256      0.0000 
      2 O1A       104.4060   -8.8230   57.7800 O.co2     1 NAD256      0.0000 
      3 O2A       106.2550   -8.3830   59.4820 O.co2     1 NAD256      0.0000 
      4 O5B       104.8730  -10.5180   59.5620 O.3       1 NAD256      0.0000 
      5 C5B       104.0300  -11.4630   58.8750 C.3       1 NAD256      0.0000 
      6 C4B       104.8690  -12.7140   58.6950 C.3       1 NAD256      0.0000 
      7 O4B       104.2140  -13.5910   57.7700 O.3       1 NAD256      0.0000 
      8 C3B       106.2640  -12.4650   58.0940 C.3       1 NAD256      0.0000 
      9 O3B       107.3380  -12.9310   58.9330 O.3       1 NAD256      0.0000 
     10 C2B       106.1800  -13.1450   56.7200 C.3       1 NAD256      0.0000 
     11 O2B       107.4040  -13.4530   56.0340 O.3       1 NAD256      0.0000 
     12 C1B       105.3090  -14.2940   57.1350 C.3       1 NAD256      0.0000 
     13 N9A       104.8010  -15.0930   56.0230 N.pl3     1 NAD256      0.0000 
     14 C8A       104.3260  -14.6350   54.8460 C.2       1 NAD256      0.0000 
     15 N7A       103.9220  -15.6320   54.0550 N.2       1 NAD256      0.0000 
     16 C5A       104.1680  -16.6950   54.8070 C.ar      1 NAD256      0.0000 
     17 C6A       103.9100  -17.9890   54.3950 C.ar      1 NAD256      0.0000 
     18 N6A       103.6490  -18.2200   53.1060 N.pl3     1 NAD256      0.0000 
     19 N1A       104.2130  -18.9450   55.3090 N.ar      1 NAD256      0.0000 
     20 C2A       104.7710  -18.6720   56.4980 C.ar      1 NAD256      0.0000 
     21 N3A       105.0430  -17.4260   56.8830 N.ar      1 NAD256      0.0000 
     22 C4A       104.7250  -16.4130   56.0400 C.ar      1 NAD256      0.0000 
     23 O3        103.7780   -8.2760   60.1510 O.3       1 NAD256      0.0000 
     24 PN        103.3030   -8.2970   61.7060 P.3       1 NAD256      0.0000 
     25 O1N       103.3010   -6.9460   62.3220 O.co2     1 NAD256      0.0000 
     26 O2N       103.9930   -9.3860   62.4420 O.co2     1 NAD256      0.0000 
     27 O5D       101.7850   -8.8090   61.6140 O.3       1 NAD256      0.0000 
     28 C5D       101.4130  -10.1900   61.7770 C.3       1 NAD256      0.0000 
     29 C4D        99.9310  -10.3950   61.4620 C.3       1 NAD256      0.0000 
     30 O4D        99.1610   -9.2600   61.9370 O.3       1 NAD256      0.0000 
     31 C3D        99.6830  -10.5050   59.9580 C.3       1 NAD256      0.0000 
     32 O3D        98.6990  -11.4990   59.6440 O.3       1 NAD256      0.0000 
     33 C2D        99.2830   -9.0950   59.5270 C.3       1 NAD256      0.0000 
     34 O2D        98.3390   -9.2410   58.4620 O.3       1 NAD256      0.0000 
     35 C1D        98.6780   -8.4720   60.8030 C.3       1 NAD256      0.0000 
     36 N1N        98.9590   -7.0100   60.9970 N.pl3     1 NAD256      0.0000 
     37 C2N       100.2110   -6.4310   60.6690 C.ar      1 NAD256      0.0000 
     38 C3N       100.4710   -5.0720   60.8680 C.ar      1 NAD256      0.0000 
     39 C7N       101.8490   -4.4810   60.4860 C.2       1 NAD256      0.0000 
     40 O7N       102.8640   -5.1770   60.4020 O.2       1 NAD256      0.0000 
     41 N7N       101.8860   -3.1750   60.2350 N.am      1 NAD256      0.0000 
     42 C4N        99.4540   -4.2760   61.4070 C.ar      1 NAD256      0.0000 
     43 C5N        98.2100   -4.8280   61.7340 C.ar      1 NAD256      0.0000 
     44 C6N        97.9510   -6.1850   61.5350 C.ar      1 NAD256      0.0000 
     45 H         103.7373  -11.1018   57.9001 H         1 NAD256      0.0000 
     46 H         103.1562  -11.7157   59.4575 H         1 NAD256      0.0000 
     47 H         104.9969  -13.2080   59.6417 H         1 NAD256      0.0000 
     48 H         106.3215  -11.3910   57.9038 H         1 NAD256      0.0000 
     49 H         105.5115  -12.4805   56.1299 H         1 NAD256      0.0000 
     50 H         105.8237  -14.8737   57.8579 H         1 NAD256      0.0000 
     51 H         104.2853  -13.6760   54.6057 H         1 NAD256      0.0000 
     52 H         103.4677  -19.1715   52.8574 H         1 NAD256      0.0000 
     53 H         103.6583  -17.4208   52.5051 H         1 NAD256      0.0000 
     54 H         105.0014  -19.4764   57.1493 H         1 NAD256      0.0000 
     55 H         101.5885  -10.5337   62.8062 H         1 NAD256      0.0000 
     56 H         101.9920  -10.8428   61.1086 H         1 NAD256      0.0000 
     57 H          99.5920  -11.2992   61.9290 H         1 NAD256      0.0000 
     58 H         100.6442  -10.7184   59.4977 H         1 NAD256      0.0000 
     59 H         100.1545   -8.5737   59.2632 H         1 NAD256      0.0000 
     60 H          97.5850   -8.6179   60.7334 H         1 NAD256      0.0000 
     61 H         100.9488   -7.0397   60.2709 H         1 NAD256      0.0000 
     62 H         102.7815   -2.7974   59.9994 H         1 NAD256      0.0000 
     63 H         101.0150   -2.6887   60.3045 H         1 NAD256      0.0000 
     64 H          99.6228   -3.2716   61.5651 H         1 NAD256      0.0000 
     65 H          97.4736   -4.2205   62.1285 H         1 NAD256      0.0000 
     66 H          97.0424   -6.5818   61.7748 H         1 NAD256      0.0000 
     67 H         107.2902  -13.9287   58.8841 H         1 NAD256      0.0000 
     68 H         107.6958  -14.3333   56.4081 H         1 NAD256      0.0000 
     69 H          98.5175  -11.9659   60.5096 H         1 NAD256      0.0000 
     70 H          97.9099  -10.1309   58.6169 H         1 NAD256      0.0000 
@<TRIPOS>BOND
     1    2    1 ar   
     2    3    1 ar   
     3    4    1 1    
     4   23    1 1    
     5    5    4 1    
     6    6    5 1    
     7   45    5 1    
     8   46    5 1    
     9    7    6 1    
    10    8    6 1    
    11   47    6 1    
    12   12    7 1    
    13    9    8 1    
    14   10    8 1    
    15   48    8 1    
    16   67    9 1    
    17   11   10 1    
    18   12   10 1    
    19   49   10 1    
    20   68   11 1    
    21   13   12 1    
    22   50   12 1    
    23   14   13 1    
    24   22   13 1    
    25   15   14 2    
    26   51   14 1    
    27   16   15 1    
    28   17   16 ar   
    29   22   16 ar   
    30   18   17 1    
    31   19   17 ar   
    32   52   18 1    
    33   53   18 1    
    34   20   19 ar   
    35   21   20 ar   
    36   54   20 1    
    37   22   21 ar   
    38   24   23 1    
    39   25   24 ar   
    40   26   24 ar   
    41   27   24 1    
    42   28   27 1    
    43   29   28 1    
    44   55   28 1    
    45   56   28 1    
    46   30   29 1    
    47   31   29 1    
    48   57   29 1    
    49   35   30 1    
    50   32   31 1    
    51   33   31 1    
    52   58   31 1    
    53   69   32 1    
    54   34   33 1    
    55   35   33 1    
    56   59   33 1    
    57   70   34 1    
    58   36   35 1    
    59   60   35 1    
    60   37   36 ar   
    61   44   36 ar   
    62   38   37 ar   
    63   61   37 1    
    64   39   38 1    
    65   42   38 ar   
    66   40   39 2    
    67   41   39 am   
    68   62   41 1    
    69   63   41 1    
    70   43   42 ar   
    71   64   42 1    
    72   44   43 ar   
    73   65   43 1    
    74   66   44 1    
@<TRIPOS>SUBSTRUCTURE
     1 NAD256      1 GROUP   
@<TRIPOS>SET

