#    Name: 4fzv_SAM_1_INTS_M
#    Modification time : Mon Mar 24 21:08:04 2014

@<TRIPOS>MOLECULE
4fzv_SAM_1_INTS_M
   85     0    15     0     0
SMALL
NO_CHARGES


@<TRIPOS>ATOM
      1 OD1        86.3675    4.4480   20.3625 O.co2     3 ASC3        0.0000 
      2 OD1        85.7470    3.5510   21.2400 O.co2    13 ASL3        0.0000 
      3 OD1        86.9880    5.3450   19.4850 O.co2     8 ASP3        0.0000 
      4 O          84.8995    2.5910   20.5875 O.2       1 ALC1        0.0000 
      5 O          85.7470    3.5510   21.2400 O.2      11 ALL1        0.0000 
      6 O          84.0520    1.6310   19.9350 O.2       6 ALP1        0.0000 
      7 O          86.3675    4.4480   20.3625 O.2       1 ALC1        0.0000 
      8 O          86.9880    5.3450   19.4850 O.2       6 ALP1        0.0000 
      9 O          85.1885    3.6650   22.5195 O.2       1 ALC1        0.0000 
     10 O          84.6300    3.7790   23.7990 O.2       6 ALP1        0.0000 
     11 CA         85.1015    1.7425   22.0820 C.3       5 GLC5        0.0000 
     12 CA         86.9620    2.7010   21.6810 C.3      15 GLL5        0.0000 
     13 CA         83.2410    0.7840   22.4830 C.3      10 GLP5        0.0000 
     14 CA         86.6055    0.6880   22.5760 C.3       5 GLC5        0.0000 
     15 CA         86.2490   -1.3250   23.4710 C.3      10 GLP5        0.0000 
     16 NZ         88.0395    6.0265   21.7935 N.4       4 LYC4        0.0000 
     17 NZ         87.6340    4.7000   22.8630 N.4      14 LYL4        0.0000 
     18 NZ         88.4450    7.3530   20.7240 N.4       9 LYP4        0.0000 
     19 N          87.1225    5.4230   24.1515 N.am      2 SEC2        0.0000 
     20 N          87.6340    4.7000   22.8630 N.am     12 SEL2        0.0000 
     21 N          86.6110    6.1460   25.4400 N.am      7 SEP2        0.0000 
     22 N          87.9070    1.9125   24.6445 N.am      2 SEC2        0.0000 
     23 N          88.3980    2.8290   23.5230 N.am     12 SEL2        0.0000 
     24 N          87.4160    0.9960   25.7660 N.am      7 SEP2        0.0000 
     25 N          88.1765    3.2890   24.9790 N.am      2 SEC2        0.0000 
     26 N          87.9550    3.7490   26.4350 N.am      7 SEP2        0.0000 
     27 CA         86.1900    1.5000   15.5490 C.3       5 GLC5        0.0000 
     28 CA         87.1480    0.1560   17.0620 C.3      15 GLL5        0.0000 
     29 CA         85.2320    2.8440   14.0360 C.3      10 GLP5        0.0000 
     30 CA         87.5160    0.1825   15.2230 C.3       5 GLC5        0.0000 
     31 CA         87.8840    0.2090   13.3840 C.3      10 GLP5        0.0000 
     32 CA         85.9505   -0.5560   15.5610 C.3       5 GLC5        0.0000 
     33 CA         86.4500   -1.0980   17.6250 C.3      15 GLL5        0.0000 
     34 CA         85.4510   -0.0140   13.4970 C.3      10 GLP5        0.0000 
     35 CA         88.4210   -3.8485   19.0980 C.3       5 GLC5        0.0000 
     36 CA         87.3800   -2.2880   17.9340 C.3      15 GLL5        0.0000 
     37 CA         89.4620   -5.4090   20.2620 C.3      10 GLP5        0.0000 
     38 N          88.3385   -3.2190   19.8185 N.am      2 SEC2        0.0000 
     39 N          87.3750   -2.4760   19.3620 N.am     12 SEL2        0.0000 
     40 N          89.3020   -3.9620   20.2750 N.am      7 SEP2        0.0000 
     41 N          88.7335   -2.1420   19.9070 N.am      2 SEC2        0.0000 
     42 N          90.0920   -1.8080   20.4520 N.am      7 SEP2        0.0000 
     43 O          86.1105   -2.4990   19.8430 O.2       1 ALC1        0.0000 
     44 O          87.3750   -2.4760   19.3620 O.2      11 ALL1        0.0000 
     45 O          84.8460   -2.5220   20.3240 O.2       6 ALP1        0.0000 
     46 O          85.6290   -4.6675   19.0195 O.2       1 ALC1        0.0000 
     47 O          86.5130   -4.6360   18.0510 O.2      11 ALL1        0.0000 
     48 O          84.7450   -4.6990   19.9880 O.2       6 ALP1        0.0000 
     49 CA         84.1690   -1.1145   17.2635 C.3       5 GLC5        0.0000 
     50 CA         85.2940   -2.9740   16.9580 C.3      15 GLL5        0.0000 
     51 CA         83.0440    0.7450   17.5690 C.3      10 GLP5        0.0000 
     52 CA         82.4795   -2.2955   13.3510 C.3       5 GLC5        0.0000 
     53 CA         82.8360   -4.0990   14.5550 C.3      15 GLL5        0.0000 
     54 CA         82.1230   -0.4920   12.1470 C.3      10 GLP5        0.0000 
     55 CA         79.6110   -5.4170   14.7585 C.3       5 GLC5        0.0000 
     56 CA         81.4830   -4.2990   14.3000 C.3      15 GLL5        0.0000 
     57 CA         77.7390   -6.5350   15.2170 C.3      10 GLP5        0.0000 
     58 CA         80.6160   -2.6840   13.6260 C.3       5 GLC5        0.0000 
     59 CA         79.7490   -1.0690   12.9520 C.3      10 GLP5        0.0000 
     60 O          79.6880   -5.1965   12.8690 O.2       1 ALC1        0.0000 
     61 O          81.0340   -4.7940   13.1150 O.2      11 ALL1        0.0000 
     62 O          78.3420   -5.5990   12.6230 O.2       6 ALP1        0.0000 
     63 N          79.1755   -4.0415   15.2465 N.am      2 SEC2        0.0000 
     64 N          80.5550   -3.9720   15.2530 N.am     12 SEL2        0.0000 
     65 N          77.7960   -4.1110   15.2400 N.am      7 SEP2        0.0000 
     66 CA         81.4495   -1.4600   16.2720 C.3       5 GLC5        0.0000 
     67 CA         80.8960   -3.4530   16.4750 C.3      15 GLL5        0.0000 
     68 CA         82.0030    0.5330   16.0690 C.3      10 GLP5        0.0000 
     69 CA         81.3810   -3.7615   18.6020 C.3       5 GLC5        0.0000 
     70 CA         81.8660   -4.0700   20.7290 C.3      10 GLP5        0.0000 
     71 CA         81.5495   -5.1785   16.6610 C.3       5 GLC5        0.0000 
     72 CA         82.2030   -6.9040   16.8470 C.3      10 GLP5        0.0000 
     73 CA         79.0595   -3.1135   15.8580 C.3       5 GLC5        0.0000 
     74 CA         77.2230   -2.7740   15.2410 C.3      10 GLP5        0.0000 
     75 CA         80.3225   -2.2610   14.7135 C.3       5 GLC5        0.0000 
     76 N          82.1720   -4.4820   17.8515 N.am      2 SEC2        0.0000 
     77 N          82.2380   -3.3070   16.7380 N.am     12 SEL2        0.0000 
     78 N          82.1060   -5.6570   18.9650 N.am      7 SEP2        0.0000 
     79 CA         82.5960   -1.5310   15.9320 C.3       5 GLC5        0.0000 
     80 CA         83.1890   -3.5950   15.7950 C.3      15 GLL5        0.0000 
     81 CA         88.6778    1.2480   22.2780 C.3       5 GLC5        0.0000 
     82 CA         88.0010    2.4010   20.6010 C.3      15 GLL5        0.0000 
     83 CA         89.8740   -0.0550   23.4150 C.3      10 GLP5        0.0000 
     84 CA         84.9215    0.1370   17.4563 C.3       5 GLC5        0.0000 
     85 CA         82.4386   -5.4005   15.9791 C.3       5 GLC5        0.0000 
@<TRIPOS>BOND
@<TRIPOS>SUBSTRUCTURE
     1 ALC1        4 GROUP        1 X    ALC  0     ROOT ALC X 1
     2 SEC2       19 GROUP        1 X    SEC  0     **** SEC X 2
     3 ASC3        1 GROUP        1 X    ASC  0     **** ASC X 3
     4 LYC4       16 GROUP        1 X    LYC  0     **** LYC X 4
     5 GLC5       11 GROUP        1 X    GLC  0     **** GLC X 6
     6 ALP1        6 GROUP        1 Y    ALP  0     ROOT ALP Y 8
     7 SEP2       21 GROUP        1 Y    SEP  0     **** SEP Y 9
     8 ASP3        3 GROUP        1 Y    ASP  0     **** ASP Y 10
     9 LYP4       18 GROUP        1 Y    LYP  0     **** LYP Y 11
    10 GLP5       13 GROUP        1 Y    GLP  0     **** GLP Y 13
    11 ALL1        5 GROUP        1 Z    ALL  0     ROOT ALL Z 15
    12 SEL2       20 GROUP        1 Z    SEL  0     **** SEL Z 16
    13 ASL3        2 GROUP        1 Z    ASL  0     **** ASL Z 17
    14 LYL4       17 GROUP        1 Z    LYL  0     **** LYL Z 18
    15 GLL5       12 GROUP        1 Z    GLL  0     **** GLL Z 20
@<TRIPOS>SET

