#    Name: 4fzv_SAM_1_ligand
#    Modification time : Mon Mar 24 21:08:04 2014

@<TRIPOS>MOLECULE
4fzv_SAM_1_ligand
   50    52     1     0     0
SMALL
NO_CHARGES


@<TRIPOS>ATOM
      1 N          85.7470    3.5510   21.2400 N.4       1 SAM401      0.0000 
      2 CA         86.9620    2.7010   21.6810 C.3       1 SAM401      0.0000 
      3 C          87.7120    3.4610   22.7530 C.2       1 SAM401      0.0000 
      4 O          87.6340    4.7000   22.8630 O.co2     1 SAM401      0.0000 
      5 OXT        88.3980    2.8290   23.5230 O.co2     1 SAM401      0.0000 
      6 CB         88.0010    2.4010   20.6010 C.3       1 SAM401      0.0000 
      7 CG         87.1970    1.6180   19.5570 C.3       1 SAM401      0.0000 
      8 SD         88.2860    0.9020   18.2980 S.3       1 SAM401      0.0000 
      9 CE         89.0380    2.2610   17.3740 C.3       1 SAM401      0.0000 
     10 C5'        87.1480    0.1560   17.0620 C.3       1 SAM401      0.0000 
     11 C4'        86.4500   -1.0980   17.6250 C.3       1 SAM401      0.0000 
     12 O4'        85.5060   -1.6020   16.6630 O.3       1 SAM401      0.0000 
     13 C3'        87.3800   -2.2880   17.9340 C.3       1 SAM401      0.0000 
     14 O3'        87.3750   -2.4760   19.3620 O.3       1 SAM401      0.0000 
     15 C2'        86.7210   -3.4890   17.2240 C.3       1 SAM401      0.0000 
     16 O2'        86.5130   -4.6360   18.0510 O.3       1 SAM401      0.0000 
     17 C1'        85.2940   -2.9740   16.9580 C.3       1 SAM401      0.0000 
     18 N9         84.5490   -3.5210   15.8120 N.pl3     1 SAM401      0.0000 
     19 C8         85.0620   -3.9480   14.5700 C.2       1 SAM401      0.0000 
     20 N7         83.9870   -4.2930   13.8340 N.2       1 SAM401      0.0000 
     21 C5         82.8360   -4.0990   14.5550 C.ar      1 SAM401      0.0000 
     22 C6         81.4830   -4.2990   14.3000 C.ar      1 SAM401      0.0000 
     23 N6         81.0340   -4.7940   13.1150 N.pl3     1 SAM401      0.0000 
     24 N1         80.5550   -3.9720   15.2530 N.ar      1 SAM401      0.0000 
     25 C2         80.8960   -3.4530   16.4750 C.ar      1 SAM401      0.0000 
     26 N3         82.2380   -3.3070   16.7380 N.ar      1 SAM401      0.0000 
     27 C4         83.1890   -3.5950   15.7950 C.ar      1 SAM401      0.0000 
     28 H          86.6208    1.7790   22.1128 H         1 SAM401      0.0000 
     29 H          88.7648    1.7875   20.9968 H         1 SAM401      0.0000 
     30 H          88.3515    3.3036   20.1780 H         1 SAM401      0.0000 
     31 H          86.5446    2.2289   18.9776 H         1 SAM401      0.0000 
     32 H          86.7076    0.7594   19.9542 H         1 SAM401      0.0000 
     33 H          87.8052   -0.0491   16.2512 H         1 SAM401      0.0000 
     34 H          86.4822    0.9605   16.8599 H         1 SAM401      0.0000 
     35 H          85.9315   -0.8362   18.5369 H         1 SAM401      0.0000 
     36 H          88.3147   -2.1038   17.5264 H         1 SAM401      0.0000 
     37 H          87.1689   -3.6709   16.3136 H         1 SAM401      0.0000 
     38 H          84.7306   -3.0506   17.8681 H         1 SAM401      0.0000 
     39 H          85.9695   -3.9726   14.3408 H         1 SAM401      0.0000 
     40 H          81.7343   -5.0094   12.4345 H         1 SAM401      0.0000 
     41 H          80.0432   -4.8988   13.0290 H         1 SAM401      0.0000 
     42 H          80.1930   -3.1883   17.1551 H         1 SAM401      0.0000 
     43 H          86.0277    4.4385   20.8744 H         1 SAM401      0.0000 
     44 H          85.2143    3.0954   20.5268 H         1 SAM401      0.0000 
     45 H          85.1240    3.7313   22.0012 H         1 SAM401      0.0000 
     46 H          89.5749    2.8610   17.9671 H         1 SAM401      0.0000 
     47 H          89.6532    1.9285   16.6592 H         1 SAM401      0.0000 
     48 H          88.3495    2.8313   16.9261 H         1 SAM401      0.0000 
     49 H          86.4082   -2.4975   19.6167 H         1 SAM401      0.0000 
     50 H          85.8181   -4.3551   18.7129 H         1 SAM401      0.0000 
@<TRIPOS>BOND
     1    2    1 1    
     2   43    1 1    
     3   44    1 1    
     4   45    1 1    
     5    3    2 1    
     6    6    2 1    
     7   28    2 1    
     8    4    3 ar   
     9    5    3 ar   
    10    7    6 1    
    11   29    6 1    
    12   30    6 1    
    13    8    7 1    
    14   31    7 1    
    15   32    7 1    
    16    9    8 1    
    17   10    8 1    
    18   46    9 1    
    19   47    9 1    
    20   48    9 1    
    21   11   10 1    
    22   33   10 1    
    23   34   10 1    
    24   12   11 1    
    25   13   11 1    
    26   35   11 1    
    27   17   12 1    
    28   14   13 1    
    29   15   13 1    
    30   36   13 1    
    31   49   14 1    
    32   16   15 1    
    33   17   15 1    
    34   37   15 1    
    35   50   16 1    
    36   18   17 1    
    37   38   17 1    
    38   19   18 1    
    39   27   18 1    
    40   20   19 2    
    41   39   19 1    
    42   21   20 1    
    43   22   21 ar   
    44   27   21 ar   
    45   23   22 1    
    46   24   22 ar   
    47   40   23 1    
    48   41   23 1    
    49   25   24 ar   
    50   26   25 ar   
    51   42   25 1    
    52   27   26 ar   
@<TRIPOS>SUBSTRUCTURE
     1 SAM401      1 GROUP   
@<TRIPOS>SET

