#    Name: 1g0n_NDP_2_INTS_M
#    Modification time : Tue Mar 25 02:15:02 2014

@<TRIPOS>MOLECULE
1g0n_NDP_2_INTS_M
  105     0    12     0     0
SMALL
NO_CHARGES


@<TRIPOS>ATOM
      1 N         101.9400   35.1960   12.1280 N.am      2 SEC2        0.0000 
      2 N         100.8330   33.8940   12.3430 N.am     10 SEL2        0.0000 
      3 N         103.0470   36.4980   11.9130 N.am      6 SEP2        0.0000 
      4 CA        101.7660   34.3235   10.6800 C.3       4 GLC5        0.0000 
      5 CA        101.1450   32.6750   11.7050 C.3      12 GLL5        0.0000 
      6 CA        102.3870   35.9720    9.6550 C.3       8 GLP5        0.0000 
      7 CA        105.7540   33.3765   11.4775 C.3       4 GLC5        0.0000 
      8 CA        104.5170   31.6090   11.0990 C.3      12 GLL5        0.0000 
      9 CA        106.9910   35.1440   11.8560 C.3       8 GLP5        0.0000 
     10 CA        106.5005   29.9350    8.7465 C.3       4 GLC5        0.0000 
     11 CA        105.5530   31.1680   10.2800 C.3      12 GLL5        0.0000 
     12 CA        107.4480   28.7020    7.2130 C.3       8 GLP5        0.0000 
     13 CA        106.3935   32.5215    9.2415 C.3       4 GLC5        0.0000 
     14 CA        107.2340   33.8750    8.2030 C.3       8 GLP5        0.0000 
     15 O         107.7535   30.2370   10.1455 O.2       1 ALC1        0.0000 
     16 O         106.7880   30.9270   10.7380 O.2       9 ALL1        0.0000 
     17 O         108.7190   29.5470    9.5530 O.2       5 ALP1        0.0000 
     18 N         106.4955   31.0570    7.9970 N.am      2 SEC2        0.0000 
     19 N         105.2380   30.9900    8.9790 N.am     10 SEL2        0.0000 
     20 N         107.7530   31.1240    7.0150 N.am      6 SEP2        0.0000 
     21 CA        104.0425   29.5105    9.0975 C.3       4 GLC5        0.0000 
     22 CA        104.0030   31.2240    8.5110 C.3      12 GLL5        0.0000 
     23 CA        104.0820   27.7970    9.6840 C.3       8 GLP5        0.0000 
     24 CA        105.7255   29.9630    7.8620 C.3       4 GLC5        0.0000 
     25 CA        105.1165   32.3485    7.2365 C.3       4 GLC5        0.0000 
     26 CA        106.2300   33.4730    5.9620 C.3       8 GLP5        0.0000 
     27 CA        103.6435   33.0715    8.7620 C.3       4 GLC5        0.0000 
     28 CA        103.2840   34.9190    9.0130 C.3       8 GLP5        0.0000 
     29 N          94.9635   37.0475   13.1530 N.am      2 SEC2        0.0000 
     30 N          96.1120   36.9270   13.8610 N.am     10 SEL2        0.0000 
     31 N          93.8150   37.1680   12.4450 N.am      6 SEP2        0.0000 
     32 N          95.6630   37.9160   16.9615 N.am      2 SEC2        0.0000 
     33 N          96.4990   38.1630   16.1050 N.am     10 SEL2        0.0000 
     34 N          94.8270   37.6690   17.8180 N.am      6 SEP2        0.0000 
     35 CA         96.4065   38.9145   12.2430 C.3       4 GLC5        0.0000 
     36 CA         98.2550   38.4190   12.7710 C.3      12 GLL5        0.0000 
     37 CA         94.5580   39.4100   11.7150 C.3       8 GLP5        0.0000 
     38 CA        102.1965   38.2010   13.0315 C.3       4 GLC5        0.0000 
     39 CA        100.6000   39.2040   13.1260 C.3      12 GLL5        0.0000 
     40 CA        103.7930   37.1980   12.9370 C.3       8 GLP5        0.0000 
     41 N         102.7660   40.5280   12.6210 N.am      2 SEC2        0.0000 
     42 N         101.7150   39.4690   12.2950 N.am     10 SEL2        0.0000 
     43 N         103.8170   41.5870   12.9470 N.am      6 SEP2        0.0000 
     44 O         101.3185   38.8675   11.2055 O.2       1 ALC1        0.0000 
     45 O         101.7150   39.4690   12.2950 O.2       9 ALL1        0.0000 
     46 O         100.9220   38.2660   10.1160 O.2       5 ALP1        0.0000 
     47 N         102.8230   41.0135   13.9110 N.am      2 SEC2        0.0000 
     48 N         101.8290   40.4400   14.8750 N.am     10 SEL2        0.0000 
     49 O         101.9835   41.5185   15.8130 O.2       1 ALC1        0.0000 
     50 O         101.8290   40.4400   14.8750 O.2       9 ALL1        0.0000 
     51 O         102.1380   42.5970   16.7510 O.2       5 ALP1        0.0000 
     52 N          94.8185   42.9315   18.5305 N.am      2 SEC2        0.0000 
     53 N          96.2010   42.2960   18.4930 N.am     10 SEL2        0.0000 
     54 N          93.4360   43.5670   18.5680 N.am      6 SEP2        0.0000 
     55 O          94.5150   40.6500   17.9270 O.2       1 ALC1        0.0000 
     56 O          95.9140   40.5210   17.1310 O.2       9 ALL1        0.0000 
     57 O          93.1160   40.7790   18.7230 O.2       5 ALP1        0.0000 
     58 CA         99.2360   43.3870   12.7380 C.3       4 GLC5        0.0000 
     59 CA         99.4310   43.4660   14.7870 C.3      12 GLL5        0.0000 
     60 CA         99.0410   43.3080   10.6890 C.3       8 GLP5        0.0000 
     61 CA         98.5885   44.8210   13.5720 C.3       4 GLC5        0.0000 
     62 CA         97.7460   46.1760   12.3570 C.3       8 GLP5        0.0000 
     63 NZ         99.1745   29.6065   14.2355 N.4       3 LYC4        0.0000 
     64 NZ         99.2840   28.4810   12.9940 N.4      11 LYL4        0.0000 
     65 NZ         97.7690   30.4810   15.5880 N.4       7 LYP4        0.0000 
     66 N          98.2275   29.0935   13.8405 N.am      2 SEC2        0.0000 
     67 N          99.2840   28.4810   12.9940 N.am     10 SEL2        0.0000 
     68 N          97.1710   29.7060   14.6870 N.am      6 SEP2        0.0000 
     69 N          99.1745   29.6065   14.2355 N.am      2 SEC2        0.0000 
     70 N          99.0650   30.7320   15.4770 N.am      6 SEP2        0.0000 
     71 N          98.3730   27.5620   13.1635 N.am      2 SEC2        0.0000 
     72 N          97.4620   26.6430   13.3330 N.am      6 SEP2        0.0000 
     73 N         102.6340   27.8625   13.2235 N.am      2 SEC2        0.0000 
     74 N         101.6450   29.0270   13.1760 N.am     10 SEL2        0.0000 
     75 N         103.6230   26.6980   13.2710 N.am      6 SEP2        0.0000 
     76 N         101.2980   27.7755    9.8360 N.am      2 SEC2        0.0000 
     77 N         100.6910   28.0880   11.0990 N.am     10 SEL2        0.0000 
     78 N         101.9050   27.4630    8.5730 N.am      6 SEP2        0.0000 
     79 N         101.3200   26.8885   10.8525 N.am      2 SEC2        0.0000 
     80 N         101.9490   25.6890   10.6060 N.am      6 SEP2        0.0000 
     81 N          99.9610   26.5935   11.3965 N.am      2 SEC2        0.0000 
     82 N          99.2310   25.0990   11.6940 N.am      6 SEP2        0.0000 
     83 CA        103.5842   33.3255    9.9360 C.3       4 GLC5        0.0000 
     84 CA        104.1128   29.7094   10.1691 C.3       4 GLC5        0.0000 
     85 CA        103.2520   31.8550   10.6190 C.3      12 GLL5        0.0000 
     86 CA        100.7212   38.7137   15.4078 C.3       4 GLC5        0.0000 
     87 CA        100.8650   37.7600   17.0970 C.3       8 GLP5        0.0000 
     88 CA        102.1545   41.6118   14.0260 C.3       4 GLC5        0.0000 
     89 CA         99.8470   41.3180   13.6970 C.3      12 GLL5        0.0000 
     90 CA        104.1080   42.4990   14.0480 C.3       8 GLP5        0.0000 
     91 CA         96.5588   41.4887   14.7823 C.3       4 GLC5        0.0000 
     92 CA         98.1950   41.5090   15.5600 C.3      12 GLL5        0.0000 
     93 CA         95.2540   41.0840   13.5300 C.3       8 GLP5        0.0000 
     94 CA         98.9928   40.5357   17.0093 C.3       4 GLC5        0.0000 
     95 CA        100.1220   39.1780   17.9840 C.3       8 GLP5        0.0000 
     96 CA         97.1530   44.8155   14.9952 C.3       4 GLC5        0.0000 
     97 CA         97.8240   43.6500   16.5960 C.3      12 GLL5        0.0000 
     98 CA         96.0100   45.6840   13.8220 C.3       8 GLP5        0.0000 
     99 CA        100.4828   45.1735   15.3200 C.3       4 GLC5        0.0000 
    100 CA         98.7680   44.2440   15.7410 C.3      12 GLL5        0.0000 
    101 CA        101.8660   46.4920   15.3760 C.3       8 GLP5        0.0000 
    102 CA         99.6875   32.7341   10.2881 C.3       4 GLC5        0.0000 
    103 CA         99.4190   32.8340    8.2960 C.3       8 GLP5        0.0000 
    104 CA        100.2994   41.1808   11.9230 C.3       4 GLC5        0.0000 
    105 CA        100.5230   42.3370   10.4660 C.3       8 GLP5        0.0000 
@<TRIPOS>BOND
@<TRIPOS>SUBSTRUCTURE
     1 ALC1       15 GROUP        1 X    ALC  0     ROOT ALC X 1
     2 SEC2        1 GROUP        1 X    SEC  0     **** SEC X 2
     3 LYC4       63 GROUP        1 X    LYC  0     **** LYC X 4
     4 GLC5        4 GROUP        1 X    GLC  0     **** GLC X 6
     5 ALP1       17 GROUP        1 Y    ALP  0     ROOT ALP Y 8
     6 SEP2        3 GROUP        1 Y    SEP  0     **** SEP Y 9
     7 LYP4       65 GROUP        1 Y    LYP  0     **** LYP Y 11
     8 GLP5        6 GROUP        1 Y    GLP  0     **** GLP Y 13
     9 ALL1       16 GROUP        1 Z    ALL  0     ROOT ALL Z 15
    10 SEL2        2 GROUP        1 Z    SEL  0     **** SEL Z 16
    11 LYL4       64 GROUP        1 Z    LYL  0     **** LYL Z 18
    12 GLL5        5 GROUP        1 Z    GLL  0     **** GLL Z 20
@<TRIPOS>SET

