#    Name: 1g0n_NDP_2_ligand
#    Modification time : Tue Mar 25 02:15:02 2014

@<TRIPOS>MOLECULE
1g0n_NDP_2_ligand
   74    78     1     0     0
SMALL
NO_CHARGES


@<TRIPOS>ATOM
      1 PA         97.7740   34.7180   15.9720 P.3       1 NDP401      0.0000 
      2 O1A        98.7530   34.5510   17.0700 O.co2     1 NDP401      0.0000 
      3 O2A        96.3370   34.4170   16.1530 O.co2     1 NDP401      0.0000 
      4 O5B        98.2630   33.9030   14.6770 O.3       1 NDP401      0.0000 
      5 C5B        98.9400   34.6270   13.6580 C.3       1 NDP401      0.0000 
      6 C4B        99.3950   33.8310   12.4570 C.3       1 NDP401      0.0000 
      7 O4B       100.8330   33.8940   12.3430 O.3       1 NDP401      0.0000 
      8 C3B        98.9890   32.3800   12.5250 C.3       1 NDP401      0.0000 
      9 O3B        98.2750   31.9600   11.3610 O.3       1 NDP401      0.0000 
     10 C2B       100.2950   31.6510   12.4340 C.3       1 NDP401      0.0000 
     11 O2B       100.1220   30.4240   11.6760 O.3       1 NDP401      0.0000 
     12 C1B       101.1450   32.6750   11.7050 C.3       1 NDP401      0.0000 
     13 N9A       102.5800   32.2550   11.6810 N.pl3     1 NDP401      0.0000 
     14 C8A       103.3990   32.2510   12.7470 C.2       1 NDP401      0.0000 
     15 N7A       104.6140   31.8500   12.3900 N.2       1 NDP401      0.0000 
     16 C5A       104.5170   31.6090   11.0990 C.ar      1 NDP401      0.0000 
     17 C6A       105.5530   31.1680   10.2800 C.ar      1 NDP401      0.0000 
     18 N6A       106.7880   30.9270   10.7380 N.pl3     1 NDP401      0.0000 
     19 N1A       105.2380   30.9900    8.9790 N.ar      1 NDP401      0.0000 
     20 C2A       104.0030   31.2240    8.5110 C.ar      1 NDP401      0.0000 
     21 N3A       103.0170   31.6480    9.3190 N.ar      1 NDP401      0.0000 
     22 C4A       103.2520   31.8550   10.6190 C.ar      1 NDP401      0.0000 
     23 O3         97.9240   36.2200   15.3860 O.3       1 NDP401      0.0000 
     24 PN         97.0140   37.4560   14.9100 P.3       1 NDP401      0.0000 
     25 O1N        96.1120   36.9270   13.8610 O.co2     1 NDP401      0.0000 
     26 O2N        96.4990   38.1630   16.1050 O.co2     1 NDP401      0.0000 
     27 O5D        98.0880   38.4090   14.1920 O.3       1 NDP401      0.0000 
     28 C5D        98.2550   38.4190   12.7710 C.3       1 NDP401      0.0000 
     29 C4D        99.3010   39.4450   12.3860 C.3       1 NDP401      0.0000 
     30 O4D        98.8860   40.7740   12.7780 O.3       1 NDP401      0.0000 
     31 C3D       100.6000   39.2040   13.1260 C.3       1 NDP401      0.0000 
     32 O3D       101.7150   39.4690   12.2950 O.3       1 NDP401      0.0000 
     33 C2D       100.5550   40.1310   14.3110 C.3       1 NDP401      0.0000 
     34 O2D       101.8290   40.4400   14.8750 O.3       1 NDP401      0.0000 
     35 C1D        99.8470   41.3180   13.6970 C.3       1 NDP401      0.0000 
     36 N1N        99.1390   42.0970   14.7050 N.pl3     1 NDP401      0.0000 
     37 C2N        98.1950   41.5090   15.5600 C.2       1 NDP401      0.0000 
     38 C3N        97.5320   42.2780   16.5090 C.2       1 NDP401      0.0000 
     39 C7N        96.4870   41.6920   17.4650 C.2       1 NDP401      0.0000 
     40 O7N        96.2010   42.2960   18.4930 O.2       1 NDP401      0.0000 
     41 N7N        95.9140   40.5210   17.1310 N.am      1 NDP401      0.0000 
     42 C4N        97.8240   43.6500   16.5960 C.3       1 NDP401      0.0000 
     43 C5N        98.7680   44.2440   15.7410 C.2       1 NDP401      0.0000 
     44 C6N        99.4310   43.4660   14.7870 C.2       1 NDP401      0.0000 
     45 P2B       100.4590   28.9880   12.2650 P.3       1 NDP401      0.0000 
     46 O1X        99.2840   28.4810   12.9940 O.co2     1 NDP401      0.0000 
     47 O2X       101.6450   29.0270   13.1760 O.co2     1 NDP401      0.0000 
     48 O3X       100.6910   28.0880   11.0990 O.co2     1 NDP401      0.0000 
     49 H          99.8472   35.1499   14.0754 H         1 NDP401      0.0000 
     50 H          98.2991   35.4718   13.2756 H         1 NDP401      0.0000 
     51 H          98.9442   34.2671   11.5639 H         1 NDP401      0.0000 
     52 H          98.5290   32.1565   13.4187 H         1 NDP401      0.0000 
     53 H         100.6765   31.5097   13.3993 H         1 NDP401      0.0000 
     54 H         100.7561   32.6844   10.6701 H         1 NDP401      0.0000 
     55 H         103.1292   32.5090   13.6553 H         1 NDP401      0.0000 
     56 H         106.9312   31.0754   11.7165 H         1 NDP401      0.0000 
     57 H         107.4565   30.6202   10.0605 H         1 NDP401      0.0000 
     58 H         103.8008   31.0723    7.4879 H         1 NDP401      0.0000 
     59 H          97.3201   38.6761   12.2580 H         1 NDP401      0.0000 
     60 H          98.5830   37.4410   12.3977 H         1 NDP401      0.0000 
     61 H          99.4917   39.4017   11.3387 H         1 NDP401      0.0000 
     62 H         100.5841   38.1924   13.4920 H         1 NDP401      0.0000 
     63 H          99.8630   39.6953   15.0243 H         1 NDP401      0.0000 
     64 H         100.5631   41.9140   13.1786 H         1 NDP401      0.0000 
     65 H          97.9965   40.5027   15.4796 H         1 NDP401      0.0000 
     66 H          95.2622   40.1462   17.7903 H         1 NDP401      0.0000 
     67 H          96.1911   40.1301   16.2533 H         1 NDP401      0.0000 
     68 H          98.1119   43.8973   17.6925 H         1 NDP401      0.0000 
     69 H          96.8305   44.2445   16.5189 H         1 NDP401      0.0000 
     70 H          98.9677   45.2451   15.8191 H         1 NDP401      0.0000 
     71 H         100.1153   43.8852   14.1609 H         1 NDP401      0.0000 
     72 H          98.5641   31.0151   11.2071 H         1 NDP401      0.0000 
     73 H         101.3482   39.4769   11.3647 H         1 NDP401      0.0000 
     74 H         101.6611   41.2151   15.4841 H         1 NDP401      0.0000 
@<TRIPOS>BOND
     1    2    1 ar   
     2    3    1 ar   
     3    4    1 1    
     4   23    1 1    
     5    5    4 1    
     6    6    5 1    
     7   49    5 1    
     8   50    5 1    
     9    7    6 1    
    10    8    6 1    
    11   51    6 1    
    12   12    7 1    
    13    9    8 1    
    14   10    8 1    
    15   52    8 1    
    16   72    9 1    
    17   11   10 1    
    18   12   10 1    
    19   53   10 1    
    20   45   11 1    
    21   13   12 1    
    22   54   12 1    
    23   14   13 1    
    24   22   13 1    
    25   15   14 2    
    26   55   14 1    
    27   16   15 1    
    28   17   16 ar   
    29   22   16 ar   
    30   18   17 1    
    31   19   17 ar   
    32   56   18 1    
    33   57   18 1    
    34   20   19 ar   
    35   21   20 ar   
    36   58   20 1    
    37   22   21 ar   
    38   24   23 1    
    39   25   24 ar   
    40   26   24 ar   
    41   27   24 1    
    42   28   27 1    
    43   29   28 1    
    44   59   28 1    
    45   60   28 1    
    46   30   29 1    
    47   31   29 1    
    48   61   29 1    
    49   35   30 1    
    50   32   31 1    
    51   33   31 1    
    52   62   31 1    
    53   73   32 1    
    54   34   33 1    
    55   35   33 1    
    56   63   33 1    
    57   74   34 1    
    58   36   35 1    
    59   64   35 1    
    60   37   36 1    
    61   44   36 1    
    62   38   37 2    
    63   65   37 1    
    64   39   38 1    
    65   42   38 1    
    66   40   39 2    
    67   41   39 am   
    68   66   41 1    
    69   67   41 1    
    70   43   42 1    
    71   68   42 1    
    72   69   42 1    
    73   44   43 2    
    74   70   43 1    
    75   71   44 1    
    76   46   45 ar   
    77   47   45 ar   
    78   48   45 ar   
@<TRIPOS>SUBSTRUCTURE
     1 NDP401      1 GROUP   
@<TRIPOS>SET

