#    Name: 2pze_ATP_1_INTS_M
#    Modification time : Mon Mar 24 20:12:37 2014

@<TRIPOS>MOLECULE
2pze_ATP_1_INTS_M
   77     0    15     0     0
SMALL
NO_CHARGES


@<TRIPOS>ATOM
      1 NZ          2.6730   12.2325   68.1170 N.4       3 LYC4        0.0000 
      2 NZ          3.2550   11.4140   67.0610 N.4      13 LYL4        0.0000 
      3 NZ          2.0910   13.0510   69.1730 N.4       8 LYP4        0.0000 
      4 N           2.6730   12.2325   68.1170 N.am      2 SEC2        0.0000 
      5 N           3.2550   11.4140   67.0610 N.am     12 SEL2        0.0000 
      6 N           2.0910   13.0510   69.1730 N.am      7 SEP2        0.0000 
      7 Zn          5.7955    9.9310   68.1060 Zn        4 ZIC7        0.0000 
      8 Zn          5.3970   10.1560   67.1990 Zn       14 ZIL7        0.0000 
      9 Zn          6.1940    9.7060   69.0130 Zn        9 ZIP7        0.0000 
     10 N           5.0745    8.6945   67.0675 N.am      2 SEC2        0.0000 
     11 N           5.3970   10.1560   67.1990 N.am     12 SEL2        0.0000 
     12 N           4.7520    7.2330   66.9360 N.am      7 SEP2        0.0000 
     13 N           6.6230    9.8910   66.1675 N.am      2 SEC2        0.0000 
     14 N           7.8490    9.6260   65.1360 N.am      7 SEP2        0.0000 
     15 N           4.5385   12.5515   64.3535 N.am      2 SEC2        0.0000 
     16 N           5.0000   11.6920   65.2620 N.am     12 SEL2        0.0000 
     17 N           4.0770   13.4110   63.4450 N.am      7 SEP2        0.0000 
     18 N           6.4375   12.3530   64.8040 N.am      2 SEC2        0.0000 
     19 N           7.8750   13.0140   64.3460 N.am      7 SEP2        0.0000 
     20 N           5.4175   10.9240   64.2305 N.am      2 SEC2        0.0000 
     21 N           5.8350   10.1560   63.1990 N.am      7 SEP2        0.0000 
     22 NZ          3.4110   13.4475   69.3850 N.4       3 LYC4        0.0000 
     23 NZ          4.7310   13.8440   69.5970 N.4      13 LYL4        0.0000 
     24 N           5.1410   15.1170   70.2510 N.am      2 SEC2        0.0000 
     25 N           4.7310   13.8440   69.5970 N.am     12 SEL2        0.0000 
     26 N           5.5510   16.3900   70.9050 N.am      7 SEP2        0.0000 
     27 N           5.0135   13.9715   70.9715 N.am      2 SEC2        0.0000 
     28 N           5.2960   14.0990   72.3460 N.am      7 SEP2        0.0000 
     29 N           3.4110   13.4475   69.3850 N.am      2 SEC2        0.0000 
     30 Zn          6.1605   10.6695   69.2990 Zn        4 ZIC7        0.0000 
     31 Zn          6.1270   11.6330   69.5850 Zn       14 ZIL7        0.0000 
     32 N           6.3585   11.5520   71.0665 N.am      2 SEC2        0.0000 
     33 N           6.1270   11.6330   69.5850 N.am     12 SEL2        0.0000 
     34 N           6.5900   11.4710   72.5480 N.am      7 SEP2        0.0000 
     35 N           5.0220   13.9770   66.8075 N.am      2 SEC2        0.0000 
     36 N           5.3470   12.6900   67.4350 N.am     12 SEL2        0.0000 
     37 N           4.6970   15.2640   66.1800 N.am      7 SEP2        0.0000 
     38 N           8.8105   13.2330   72.0465 N.am      2 SEC2        0.0000 
     39 N           8.5480   13.9380   70.7850 N.am     12 SEL2        0.0000 
     40 N           9.0730   12.5280   73.3080 N.am      7 SEP2        0.0000 
     41 N           9.6690   14.2510   71.5025 N.am      2 SEC2        0.0000 
     42 N          10.7900   14.5640   72.2200 N.am      7 SEP2        0.0000 
     43 CA          7.4240   16.2465   67.7220 C.3       5 GLC5        0.0000 
     44 CA          9.1610   16.2370   68.9420 C.3      15 GLL5        0.0000 
     45 CA          5.6870   16.2560   66.5020 C.3      10 GLP5        0.0000 
     46 CA          7.8330   16.2135   70.4850 C.3       5 GLC5        0.0000 
     47 CA          6.5050   16.1900   72.0280 C.3      10 GLP5        0.0000 
     48 N           9.9235   17.0510   64.4800 N.am      2 SEC2        0.0000 
     49 N          10.3130   17.6380   65.7830 N.am     12 SEL2        0.0000 
     50 N           9.5340   16.4640   63.1770 N.am      7 SEP2        0.0000 
     51 N          10.8620   16.1605   64.2245 N.am      2 SEC2        0.0000 
     52 N          12.1900   15.8570   65.2720 N.am     12 SEL2        0.0000 
     53 O          11.4505   15.2090   64.3410 O.2       1 ALC1        0.0000 
     54 O          12.1900   15.8570   65.2720 O.2      11 ALL1        0.0000 
     55 O          10.7110   14.5610   63.4100 O.2       6 ALP1        0.0000 
     56 CA         13.2120   16.3960   69.5235 C.3       5 GLC5        0.0000 
     57 CA         12.3700   16.1240   67.6600 C.3      15 GLL5        0.0000 
     58 CA         14.0540   16.6680   71.3870 C.3      10 GLP5        0.0000 
     59 CA         15.3220   12.5230   67.7590 C.3       5 GLC5        0.0000 
     60 CA         14.7280   13.7160   69.1560 C.3      15 GLL5        0.0000 
     61 CA         15.9160   11.3300   66.3620 C.3      10 GLP5        0.0000 
     62 CA         16.6500   12.8350   67.8460 C.3       5 GLC5        0.0000 
     63 CA         16.1490   13.4280   69.4680 C.3      15 GLL5        0.0000 
     64 CA         17.1510   12.2420   66.2240 C.3      10 GLP5        0.0000 
     65 CA         16.5805   16.5705   69.8655 C.3       5 GLC5        0.0000 
     66 CA         16.7420   15.5020   68.4690 C.3      15 GLL5        0.0000 
     67 CA         16.4190   17.6390   71.2620 C.3      10 GLP5        0.0000 
     68 CA         16.9465   13.8720   67.3465 C.3       5 GLC5        0.0000 
     69 CA         15.4300   16.3105   69.8640 C.3       5 GLC5        0.0000 
     70 CA         14.4410   14.9820   68.4660 C.3      15 GLL5        0.0000 
     71 CA         15.7960   13.6120   67.3450 C.3       5 GLC5        0.0000 
     72 CA         10.1892   17.3498   70.1672 C.3       5 GLC5        0.0000 
     73 CA         10.1960   16.9780   68.0950 C.3      15 GLL5        0.0000 
     74 CA         10.7000   18.0920   71.8160 C.3      10 GLP5        0.0000 
     75 CA          9.5985   14.3510   66.1060 C.3       5 GLC5        0.0000 
     76 CA         10.2470   16.4930   66.6450 C.3      15 GLL5        0.0000 
     77 CA          8.3220   12.6290   65.6340 C.3      10 GLP5        0.0000 
@<TRIPOS>BOND
@<TRIPOS>SUBSTRUCTURE
     1 ALC1       53 GROUP        1 X    ALC  0     ROOT ALC X 1
     2 SEC2        4 GROUP        1 X    SEC  0     **** SEC X 2
     3 LYC4        1 GROUP        1 X    LYC  0     **** LYC X 4
     4 ZIC7        7 GROUP        1 X    ZIC  0     **** ZIC X 5
     5 GLC5       43 GROUP        1 X    GLC  0     **** GLC X 6
     6 ALP1       55 GROUP        1 Y    ALP  0     ROOT ALP Y 8
     7 SEP2        6 GROUP        1 Y    SEP  0     **** SEP Y 9
     8 LYP4        3 GROUP        1 Y    LYP  0     **** LYP Y 11
     9 ZIP7        9 GROUP        1 Y    ZIP  0     **** ZIP Y 12
    10 GLP5       45 GROUP        1 Y    GLP  0     **** GLP Y 13
    11 ALL1       54 GROUP        1 Z    ALL  0     ROOT ALL Z 15
    12 SEL2        5 GROUP        1 Z    SEL  0     **** SEL Z 16
    13 LYL4        2 GROUP        1 Z    LYL  0     **** LYL Z 18
    14 ZIL7        8 GROUP        1 Z    ZIL  0     **** ZIL Z 19
    15 GLL5       44 GROUP        1 Z    GLL  0     **** GLL Z 20
@<TRIPOS>SET

