#    Name: 2pze_ATP_1_ligand
#    Modification time : Mon Mar 24 20:12:37 2014

@<TRIPOS>MOLECULE
2pze_ATP_1_ligand
   43    45     1     0     0
SMALL
NO_CHARGES


@<TRIPOS>ATOM
      1 PG          4.7290   11.3860   66.7250 P.3       1 ATP1        0.0000 
      2 O1G         3.2550   11.4140   67.0610 O.co2     1 ATP1        0.0000 
      3 O2G         5.3970   10.1560   67.1990 O.co2     1 ATP1        0.0000 
      4 O3G         5.0000   11.6920   65.2620 O.co2     1 ATP1        0.0000 
      5 PB          5.7660   12.9540   68.9870 P.3       1 ATP1        0.0000 
      6 O1B         4.7310   13.8440   69.5970 O.co2     1 ATP1        0.0000 
      7 O2B         6.1270   11.6330   69.5850 O.co2     1 ATP1        0.0000 
      8 O3B         5.3470   12.6900   67.4350 O.3       1 ATP1        0.0000 
      9 PA          8.6120   13.6340   69.3320 P.3       1 ATP1        0.0000 
     10 O1A         9.2110   12.3750   68.8440 O.co2     1 ATP1        0.0000 
     11 O2A         8.5480   13.9380   70.7850 O.co2     1 ATP1        0.0000 
     12 O3A         7.1030   13.8360   68.7990 O.3       1 ATP1        0.0000 
     13 O5'         9.3810   14.8780   68.6200 O.3       1 ATP1        0.0000 
     14 C5'         9.1610   16.2370   68.9420 C.3       1 ATP1        0.0000 
     15 C4'        10.1960   16.9780   68.0950 C.3       1 ATP1        0.0000 
     16 O4'        11.5010   16.7330   68.6310 O.3       1 ATP1        0.0000 
     17 C3'        10.2470   16.4930   66.6450 C.3       1 ATP1        0.0000 
     18 O3'        10.3130   17.6380   65.7830 O.3       1 ATP1        0.0000 
     19 C2'        11.5030   15.6530   66.5110 C.3       1 ATP1        0.0000 
     20 O2'        12.1900   15.8570   65.2720 O.3       1 ATP1        0.0000 
     21 C1'        12.3700   16.1240   67.6600 C.3       1 ATP1        0.0000 
     22 N9         13.1160   15.0060   68.2850 N.pl3     1 ATP1        0.0000 
     23 C8         12.5860   13.8880   68.7990 C.2       1 ATP1        0.0000 
     24 N7         13.5500   13.0870   69.3210 N.2       1 ATP1        0.0000 
     25 C5         14.7280   13.7160   69.1560 C.ar      1 ATP1        0.0000 
     26 C6         16.1490   13.4280   69.4680 C.ar      1 ATP1        0.0000 
     27 N6         16.4950   12.2800   70.0910 N.pl3     1 ATP1        0.0000 
     28 N1         17.0760   14.3570   69.1010 N.ar      1 ATP1        0.0000 
     29 C2         16.7420   15.5020   68.4690 C.ar      1 ATP1        0.0000 
     30 N3         15.4690   15.8190   68.1520 N.ar      1 ATP1        0.0000 
     31 C4         14.4410   14.9820   68.4660 C.ar      1 ATP1        0.0000 
     32 H           9.3583   16.4564   69.9741 H         1 ATP1        0.0000 
     33 H           8.1865   16.5802   68.6507 H         1 ATP1        0.0000 
     34 H           9.9780   18.0254   68.0977 H         1 ATP1        0.0000 
     35 H           9.3976   15.8893   66.4622 H         1 ATP1        0.0000 
     36 H          11.2505   14.6330   66.6909 H         1 ATP1        0.0000 
     37 H          13.0651   16.8580   67.2766 H         1 ATP1        0.0000 
     38 H          11.6282   13.6678   68.8026 H         1 ATP1        0.0000 
     39 H          15.7402   11.6881   70.3738 H         1 ATP1        0.0000 
     40 H          17.4751   12.1242   70.2140 H         1 ATP1        0.0000 
     41 H          17.5142   16.1827   68.2101 H         1 ATP1        0.0000 
     42 H          11.2592   17.6648   65.4605 H         1 ATP1        0.0000 
     43 H          11.6207   15.4076   64.5835 H         1 ATP1        0.0000 
@<TRIPOS>BOND
     1    2    1 ar   
     2    3    1 ar   
     3    4    1 ar   
     4    8    1 1    
     5    6    5 ar   
     6    7    5 ar   
     7    8    5 1    
     8   12    5 1    
     9   10    9 ar   
    10   11    9 ar   
    11   12    9 1    
    12   13    9 1    
    13   14   13 1    
    14   15   14 1    
    15   32   14 1    
    16   33   14 1    
    17   16   15 1    
    18   17   15 1    
    19   34   15 1    
    20   21   16 1    
    21   18   17 1    
    22   19   17 1    
    23   35   17 1    
    24   42   18 1    
    25   20   19 1    
    26   21   19 1    
    27   36   19 1    
    28   43   20 1    
    29   22   21 1    
    30   37   21 1    
    31   23   22 1    
    32   31   22 1    
    33   24   23 2    
    34   38   23 1    
    35   25   24 1    
    36   26   25 ar   
    37   31   25 ar   
    38   27   26 1    
    39   28   26 ar   
    40   39   27 1    
    41   40   27 1    
    42   29   28 ar   
    43   30   29 ar   
    44   41   29 1    
    45   31   30 ar   
@<TRIPOS>SUBSTRUCTURE
     1 ATP1        1 GROUP   
@<TRIPOS>SET

