#    Name: 2yei_XQI_2_INTS_M
#    Modification time : Tue Mar 25 08:45:18 2014

@<TRIPOS>MOLECULE
2yei_XQI_2_INTS_M
   26     0     6     0     0
SMALL
NO_CHARGES


@<TRIPOS>ATOM
      1 CA          0.1935   12.0085   26.4990 C.3       2 GLC5        0.0000 
      2 CA         -0.4570   10.3960   25.1970 C.3       6 GLL5        0.0000 
      3 CA          0.8440   13.6210   27.8010 C.3       4 GLP5        0.0000 
      4 CA         -2.2680   12.5470   25.5695 C.3       2 GLC5        0.0000 
      5 CA         -1.4950   10.9990   24.4960 C.3       6 GLL5        0.0000 
      6 CA         -3.0410   14.0950   26.6430 C.3       4 GLP5        0.0000 
      7 CA         -1.5970   13.2355   24.6120 C.3       2 GLC5        0.0000 
      8 CA         -1.2340   11.6640   23.3040 C.3       6 GLL5        0.0000 
      9 CA         -1.9600   14.8070   25.9200 C.3       4 GLP5        0.0000 
     10 O          -3.8680   11.3880   24.5190 O.2       1 ALC1        0.0000 
     11 O          -2.7680   10.9370   24.9770 O.2       5 ALL1        0.0000 
     12 O          -4.9680   11.8390   24.0610 O.2       3 ALP1        0.0000 
     13 O           1.0930   11.3840   20.8650 O.2       1 ALC1        0.0000 
     14 O           0.3200   12.3800   21.6450 O.2       5 ALL1        0.0000 
     15 O           1.8660   10.3880   20.0850 O.2       3 ALP1        0.0000 
     16 CA          4.0970    9.6445   26.0430 C.3       2 GLC5        0.0000 
     17 CA          1.9700    9.8030   25.4680 C.3       6 GLL5        0.0000 
     18 CA          6.2240    9.4860   26.6180 C.3       4 GLP5        0.0000 
     19 CA          1.8707   11.3625   26.5185 C.3       2 GLC5        0.0000 
     20 CA          2.3360   12.5940   27.9500 C.3       4 GLP5        0.0000 
     21 CA         -2.2015    9.2718   25.5328 C.3       2 GLC5        0.0000 
     22 CA         -3.4270    7.8460   26.2190 C.3       4 GLP5        0.0000 
     23 CA         -2.9642   10.3087   22.8990 C.3       2 GLC5        0.0000 
     24 CA         -4.5640    9.2860   21.8980 C.3       4 GLP5        0.0000 
     25 CA         -0.3618   10.5209   21.7589 C.3       2 GLC5        0.0000 
     26 CA         -0.3980    9.4970   20.2840 C.3       4 GLP5        0.0000 
@<TRIPOS>BOND
@<TRIPOS>SUBSTRUCTURE
     1 ALC1       10 GROUP        1 X    ALC  0     ROOT ALC X 1
     2 GLC5        1 GROUP        1 X    GLC  0     **** GLC X 6
     3 ALP1       12 GROUP        1 Y    ALP  0     ROOT ALP Y 8
     4 GLP5        3 GROUP        1 Y    GLP  0     **** GLP Y 13
     5 ALL1       11 GROUP        1 Z    ALL  0     ROOT ALL Z 15
     6 GLL5        2 GROUP        1 Z    GLL  0     **** GLL Z 20
@<TRIPOS>SET

