#    Name: 2yei_XQI_2_ligand
#    Modification time : Tue Mar 25 08:45:18 2014

@<TRIPOS>MOLECULE
2yei_XQI_2_ligand
   23    23     1     0     0
SMALL
NO_CHARGES


@<TRIPOS>ATOM
      1 CG          0.8410   10.4590   24.7060 C.ar      1 XQI1225     0.0000 
      2 CD1        -0.4570   10.3960   25.1970 C.ar      1 XQI1225     0.0000 
      3 CD2         1.1020   11.1240   23.5140 C.ar      1 XQI1225     0.0000 
      4 CE1        -1.4950   10.9990   24.4960 C.ar      1 XQI1225     0.0000 
      5 CE2         0.0640   11.7270   22.8130 C.ar      1 XQI1225     0.0000 
      6 CZ         -1.2340   11.6640   23.3040 C.ar      1 XQI1225     0.0000 
      7 OH1        -2.7680   10.9370   24.9770 O.3       1 XQI1225     0.0000 
      8 OH2         0.3200   12.3800   21.6450 O.3       1 XQI1225     0.0000 
      9 C           2.8350    9.0180   24.5110 C.2       1 XQI1225     0.0000 
     10 O           3.2500    9.5300   23.4840 O.2       1 XQI1225     0.0000 
     11 OXT         3.1840    7.6380   24.8060 O.3       1 XQI1225     0.0000 
     12 CH3         3.1230    6.6520   23.7780 C.3       1 XQI1225     0.0000 
     13 C9          1.9700    9.8030   25.4680 C.3       1 XQI1225     0.0000 
     14 H          -0.6504    9.9034   26.0789 H         1 XQI1225     0.0000 
     15 H           2.0629   11.1701   23.1503 H         1 XQI1225     0.0000 
     16 H          -2.0025   12.1098   22.7851 H         1 XQI1225     0.0000 
     17 H           1.5595    9.1341   26.2200 H         1 XQI1225     0.0000 
     18 H           2.5690   10.5665   25.9574 H         1 XQI1225     0.0000 
     19 H           3.7326    6.8714   23.0163 H         1 XQI1225     0.0000 
     20 H           3.3876    5.7481   24.1142 H         1 XQI1225     0.0000 
     21 H           2.2011    6.5659   23.4002 H         1 XQI1225     0.0000 
     22 H          -3.3248   11.4149   24.2976 H         1 XQI1225     0.0000 
     23 H           0.9322   11.7731   21.1381 H         1 XQI1225     0.0000 
@<TRIPOS>BOND
     1    2    1 ar   
     2    3    1 ar   
     3   13    1 1    
     4    4    2 ar   
     5   14    2 1    
     6    5    3 ar   
     7   15    3 1    
     8    6    4 ar   
     9    7    4 1    
    10    6    5 ar   
    11    8    5 1    
    12   16    6 1    
    13   22    7 1    
    14   23    8 1    
    15   10    9 2    
    16   11    9 1    
    17   13    9 1    
    18   12   11 1    
    19   19   12 1    
    20   20   12 1    
    21   21   12 1    
    22   17   13 1    
    23   18   13 1    
@<TRIPOS>SUBSTRUCTURE
     1 XQI1225     1 GROUP   
@<TRIPOS>SET

