#    Name: 2V9C_2_CAVITY_N1_ALL.mol2
#    Modification time : Mon Mar 10 15:30:29 2014

@<TRIPOS>MOLECULE
2V9C_2_CAVITY_N1_ALL.mol2
  153     0     5     0     0
SMALL
NO_CHARGES


@<TRIPOS>ATOM
      1 N          43.5250   12.9714   -0.5913 N.2       2 ALA2        0.0000 
      2 DU         42.9892   14.3450   -0.8672 H         5 CUB7        0.0000 
      3 CZ         42.4533   15.7186   -1.1430 C.ar      3 PHE5        0.0000 
      4 O          42.3831   12.3721   -1.3575 O.2       2 ALA2        0.0000 
      5 CZ         41.8473   13.7457   -1.6333 C.ar      3 PHE5        0.0000 
      6 CZ         41.3115   15.1193   -1.9092 C.ar      3 PHE5        0.0000 
      7 O          41.2413   11.7728   -2.1236 O.2       2 ALA2        0.0000 
      8 CZ         40.7054   13.1464   -2.3995 C.ar      3 PHE5        0.0000 
      9 CZ         40.1696   14.5200   -2.6753 C.ar      3 PHE5        0.0000 
     10 CZ         40.0994   11.1735   -2.8898 C.ar      3 PHE5        0.0000 
     11 CZ         39.5636   12.5471   -3.1656 C.ar      3 PHE5        0.0000 
     12 CZ         39.0277   13.9207   -3.4415 C.ar      3 PHE5        0.0000 
     13 CZ         38.4919   15.2943   -3.7173 C.ar      3 PHE5        0.0000 
     14 N          38.4217   11.9478   -3.9318 N.2       2 ALA2        0.0000 
     15 CZ         37.8858   13.3214   -4.2076 C.ar      3 PHE5        0.0000 
     16 CZ         37.3500   14.6950   -4.4834 C.ar      3 PHE5        0.0000 
     17 CZ         36.8142   16.0686   -4.7593 C.ar      3 PHE5        0.0000 
     18 CZ         36.2783   17.4422   -5.0351 C.ar      3 PHE5        0.0000 
     19 N          36.2081   14.0957   -5.2496 N.2       2 ALA2        0.0000 
     20 OG         35.6723   15.4693   -5.5254 O.2       1 SER1        0.0000 
     21 CZ         35.1365   16.8429   -5.8013 C.ar      3 PHE5        0.0000 
     22 CZ         34.5304   14.8700   -6.2916 C.ar      3 PHE5        0.0000 
     23 CZ         33.9946   16.2436   -6.5674 C.ar      3 PHE5        0.0000 
     24 CZ         32.8527   15.6443   -7.3336 C.ar      3 PHE5        0.0000 
     25 CA         42.7132   12.9077    0.6684 C.3       4 GLY6        0.0000 
     26 CA         42.1774   14.2813    0.3926 C.3       4 GLY6        0.0000 
     27 CZ         41.6415   15.6549    0.1167 C.ar      3 PHE5        0.0000 
     28 CA         41.5713   12.3084   -0.0977 C.3       4 GLY6        0.0000 
     29 CZ         41.0355   13.6820   -0.3736 C.ar      3 PHE5        0.0000 
     30 CZ         40.4997   15.0556   -0.6494 C.ar      3 PHE5        0.0000 
     31 CZ         40.4295   11.7091   -0.8639 C.ar      3 PHE5        0.0000 
     32 CZ         39.8936   13.0827   -1.1397 C.ar      3 PHE5        0.0000 
     33 CZ         39.3578   14.4563   -1.4156 C.ar      3 PHE5        0.0000 
     34 CZ         38.7518   12.4834   -1.9059 C.ar      3 PHE5        0.0000 
     35 CZ         38.2159   13.8570   -2.1817 C.ar      3 PHE5        0.0000 
     36 CZ         37.6801   15.2306   -2.4576 C.ar      3 PHE5        0.0000 
     37 O          36.5382   14.6313   -3.2237 O.2       2 ALA2        0.0000 
     38 CZ         36.0024   16.0049   -3.4995 C.ar      3 PHE5        0.0000 
     39 CZ         35.4665   17.3785   -3.7754 C.ar      3 PHE5        0.0000 
     40 CZ         34.9307   18.7521   -4.0512 C.ar      3 PHE5        0.0000 
     41 N          34.8605   15.4056   -4.2657 N.2       2 ALA2        0.0000 
     42 N          34.3247   16.7792   -4.5415 N.2       2 ALA2        0.0000 
     43 CZ         33.7888   18.1528   -4.8174 C.ar      3 PHE5        0.0000 
     44 CZ         32.6469   17.5535   -5.5835 C.ar      3 PHE5        0.0000 
     45 CA         41.3656   14.2176    1.6523 C.3       4 GLY6        0.0000 
     46 CZ         40.2237   13.6183    0.8861 C.ar      3 PHE5        0.0000 
     47 CZ         36.8683   15.1669   -1.1978 C.ar      3 PHE5        0.0000 
     48 CZ         36.3324   16.5405   -1.4737 C.ar      3 PHE5        0.0000 
     49 N          35.1906   15.9412   -2.2398 N.2       2 ALA2        0.0000 
     50 N          34.6547   17.3148   -2.5156 N.2       2 ALA2        0.0000 
     51 N          33.5129   16.7155   -3.2818 N.2       2 ALA2        0.0000 
     52 N          32.9770   18.0891   -3.5576 N.2       2 ALA2        0.0000 
     53 DU         45.6844   11.7252   -2.8350 H         5 CUB7        0.0000 
     54 DU         45.1486   13.0988   -3.1108 H         5 CUB7        0.0000 
     55 O          44.6128   14.4724   -3.3866 O.2       2 ALA2        0.0000 
     56 O          44.5426   11.1259   -3.6011 O.2       2 ALA2        0.0000 
     57 N          44.0067   12.4995   -3.8770 N.2       2 ALA2        0.0000 
     58 CZ         43.4709   13.8731   -4.1528 C.ar      3 PHE5        0.0000 
     59 O          43.4007   10.5266   -4.3673 O.2       2 ALA2        0.0000 
     60 N          42.8649   11.9002   -4.6431 N.2       2 ALA2        0.0000 
     61 CA         41.7230   11.3009   -5.4092 C.3       4 GLY6        0.0000 
     62 OG         40.0453   12.0752   -6.4512 O.2       1 SER1        0.0000 
     63 CA         38.9034   11.4759   -7.2174 C.3       4 GLY6        0.0000 
     64 CZ         36.7600   16.9704   -8.3207 C.ar      3 PHE5        0.0000 
     65 CA         36.2242   18.3440   -8.5966 C.3       4 GLY6        0.0000 
     66 N          37.2257   12.2502   -8.2594 N.2       2 ALA2        0.0000 
     67 OG         36.6899   13.6239   -8.5352 O.2       1 SER1        0.0000 
     68 OG         36.1540   14.9975   -8.8110 O.2       1 SER1        0.0000 
     69 CZ         35.6182   16.3711   -9.0869 C.ar      3 PHE5        0.0000 
     70 CA         35.5480   13.0246   -9.3013 C.3       4 GLY6        0.0000 
     71 DU         35.0121   14.3982   -9.5772 H         5 CUB7        0.0000 
     72 CZ         34.4763   15.7718   -9.8530 C.ar      3 PHE5        0.0000 
     73 OG         34.4061   12.4253  -10.0675 O.2       1 SER1        0.0000 
     74 OG         33.8703   13.7989  -10.3433 O.2       1 SER1        0.0000 
     75 CZ         33.3344   15.1725  -10.6192 C.ar      3 PHE5        0.0000 
     76 O          44.8726   11.6615   -1.5752 O.2       2 ALA2        0.0000 
     77 DU         44.3368   13.0351   -1.8511 H         5 CUB7        0.0000 
     78 CZ         43.8010   14.4087   -2.1269 C.ar      3 PHE5        0.0000 
     79 CA         43.2651   15.7823   -2.4027 C.3       4 GLY6        0.0000 
     80 O          43.7308   11.0622   -2.3414 O.2       2 ALA2        0.0000 
     81 DU         43.1949   12.4358   -2.6172 H         5 CUB7        0.0000 
     82 CZ         42.6591   13.8094   -2.8931 C.ar      3 PHE5        0.0000 
     83 O          42.5889   10.4629   -3.1075 O.2       2 ALA2        0.0000 
     84 CZ         42.0531   11.8365   -3.3834 C.ar      3 PHE5        0.0000 
     85 CZ         41.5172   13.2101   -3.6592 C.ar      3 PHE5        0.0000 
     86 CA         40.9112   11.2372   -4.1495 C.3       4 GLY6        0.0000 
     87 CZ         40.3754   12.6108   -4.4254 C.ar      3 PHE5        0.0000 
     88 CA         39.2335   12.0115   -5.1915 C.3       4 GLY6        0.0000 
     89 OG         37.5558   12.7858   -6.2335 O.2       1 SER1        0.0000 
     90 OG         36.4841   15.5330   -6.7852 O.2       1 SER1        0.0000 
     91 CZ         35.9482   16.9066   -7.0610 C.ar      3 PHE5        0.0000 
     92 OG         35.8781   13.5601   -7.2755 O.2       1 SER1        0.0000 
     93 OG         35.3422   14.9337   -7.5513 O.2       1 SER1        0.0000 
     94 CZ         34.8064   16.3073   -7.8271 C.ar      3 PHE5        0.0000 
     95 CA         34.2003   14.3345   -8.3174 C.3       4 GLY6        0.0000 
     96 CZ         33.6645   15.7081   -8.5933 C.ar      3 PHE5        0.0000 
     97 CA         33.0585   13.7352   -9.0836 C.3       4 GLY6        0.0000 
     98 CZ         32.5226   15.1088   -9.3594 C.ar      3 PHE5        0.0000 
     99 CA         43.2764    8.0818   -8.1432 C.3       4 GLY6        0.0000 
    100 CA         42.2047   10.8290   -8.6949 C.3       4 GLY6        0.0000 
    101 CA         42.1345    7.4825   -8.9093 C.3       4 GLY6        0.0000 
    102 CA         41.5987    8.8562   -9.1852 C.3       4 GLY6        0.0000 
    103 N          41.0628   10.2298   -9.4610 N.2       2 ALA2        0.0000 
    104 O          40.5270   11.6034   -9.7368 O.2       2 ALA2        0.0000 
    105 CA         39.9912   12.9770  -10.0127 C.3       4 GLY6        0.0000 
    106 CA         39.4553   14.3506  -10.2885 C.3       4 GLY6        0.0000 
    107 CZ         38.9195   15.7242  -10.5644 C.ar      3 PHE5        0.0000 
    108 CA         40.4568    8.2569   -9.9513 C.3       4 GLY6        0.0000 
    109 N          39.9210    9.6305  -10.2272 N.2       2 ALA2        0.0000 
    110 N          39.3851   11.0041  -10.5030 N.2       2 ALA2        0.0000 
    111 N          38.8493   12.3777  -10.7788 N.2       2 ALA2        0.0000 
    112 OG         38.3134   13.7513  -11.0547 O.2       1 SER1        0.0000 
    113 DU         37.7776   15.1249  -11.3305 H         5 CUB7        0.0000 
    114 CZ         37.2418   16.4985  -11.6063 C.ar      3 PHE5        0.0000 
    115 CZ         36.7059   17.8721  -11.8822 C.ar      3 PHE5        0.0000 
    116 DU         36.0999   15.8992  -12.3725 H         5 CUB7        0.0000 
    117 CZ         35.5640   17.2728  -12.6483 C.ar      3 PHE5        0.0000 
    118 CZ         35.0282   18.6464  -12.9242 C.ar      3 PHE5        0.0000 
    119 N          45.9604   13.1625   -4.3705 N.2       2 ALA2        0.0000 
    120 CA         45.3544   11.1896   -4.8609 C.3       4 GLY6        0.0000 
    121 N          44.8185   12.5632   -5.1367 N.2       2 ALA2        0.0000 
    122 CA         44.2125   10.5903   -5.6270 C.3       4 GLY6        0.0000 
    123 O          43.0706    9.9910   -6.3931 O.2       2 ALA2        0.0000 
    124 N          42.5348   11.3646   -6.6690 N.2       2 ALA2        0.0000 
    125 O          41.9288    9.3917   -7.1593 O.2       2 ALA2        0.0000 
    126 CA         41.3929   10.7653   -7.4351 C.3       4 GLY6        0.0000 
    127 OG         40.8571   12.1389   -7.7110 O.2       1 SER1        0.0000 
    128 CA         40.7869    8.7924   -7.9254 C.3       4 GLY6        0.0000 
    129 N          40.2510   10.1660   -8.2013 N.2       2 ALA2        0.0000 
    130 N          39.7152   11.5396   -8.4771 N.2       2 ALA2        0.0000 
    131 CZ         37.5718   17.0341   -9.5805 C.ar      3 PHE5        0.0000 
    132 CA         37.0360   18.4077   -9.8563 C.3       4 GLY6        0.0000 
    133 N          38.0375   12.3140   -9.5191 N.2       2 ALA2        0.0000 
    134 OG         37.5016   13.6876   -9.7949 O.2       1 SER1        0.0000 
    135 OG         36.9658   15.0612  -10.0708 O.2       1 SER1        0.0000 
    136 DU         36.4300   16.4348  -10.3466 H         5 CUB7        0.0000 
    137 CZ         35.8941   17.8084  -10.6224 C.ar      3 PHE5        0.0000 
    138 CZ         35.3583   19.1820  -10.8983 C.ar      3 PHE5        0.0000 
    139 DU         36.3598   13.0883  -10.5611 H         5 CUB7        0.0000 
    140 DU         35.8239   14.4619  -10.8369 H         5 CUB7        0.0000 
    141 CZ         35.2881   15.8355  -11.1128 C.ar      3 PHE5        0.0000 
    142 CZ         34.7523   17.2091  -11.3886 C.ar      3 PHE5        0.0000 
    143 DU         34.1462   15.2362  -11.8789 H         5 CUB7        0.0000 
    144 CZ         33.6104   16.6098  -12.1547 C.ar      3 PHE5        0.0000 
    145 O          41.6147   13.1044  -12.5322 O.2       2 ALA2        0.0000 
    146 CA         42.4105    8.9199  -10.4449 C.3       4 GLY6        0.0000 
    147 CA         41.8746   10.2935  -10.7207 C.3       4 GLY6        0.0000 
    148 O          41.3388   11.6671  -10.9966 O.2       2 ALA2        0.0000 
    149 CA         40.8029   13.0407  -11.2724 C.3       4 GLY6        0.0000 
    150 CA         40.2671   14.4143  -11.5483 C.3       4 GLY6        0.0000 
    151 N          40.7328    9.6942  -11.4869 N.2       2 ALA2        0.0000 
    152 CZ         38.0535   16.5622  -12.8661 C.ar      3 PHE5        0.0000 
    153 CZ         37.5177   17.9358  -13.1419 C.ar      3 PHE5        0.0000 
@<TRIPOS>BOND
@<TRIPOS>SUBSTRUCTURE
     1 SER1       20 GROUP   
     2 ALA2        1 GROUP   
     3 PHE5        3 GROUP   
     4 GLY6       25 GROUP   
     5 CUB7        2 GROUP   
@<TRIPOS>SET

