#    Name: 2v9c_MRE_2_INTS_M
#    Modification time : Tue Mar 25 01:19:05 2014

@<TRIPOS>MOLECULE
2v9c_MRE_2_INTS_M
   31     0     6     0     0
SMALL
NO_CHARGES


@<TRIPOS>ATOM
      1 CA         30.3985   15.4945   -9.2305 C.3       2 GLC5        0.0000 
      2 CA         31.7010   15.3950  -10.9370 C.3       6 GLL5        0.0000 
      3 CA         29.0960   15.5940   -7.5240 C.3       4 GLP5        0.0000 
      4 CA         35.6330   11.8890   -7.3490 C.3       2 GLC5        0.0000 
      5 CA         35.8080   14.0540   -7.0770 C.3       6 GLL5        0.0000 
      6 CA         35.4580    9.7240   -7.6210 C.3       4 GLP5        0.0000 
      7 CA         39.0745   14.7330   -4.4910 C.3       2 GLC5        0.0000 
      8 CA         37.4690   14.6900   -3.3330 C.3       6 GLL5        0.0000 
      9 CA         40.6800   14.7760   -5.6490 C.3       4 GLP5        0.0000 
     10 CA         38.0155   16.3275   -2.8285 C.3       2 GLC5        0.0000 
     11 CA         38.5620   17.9650   -2.3240 C.3       4 GLP5        0.0000 
     12 CA         37.1165   16.8275   -2.4295 C.3       2 GLC5        0.0000 
     13 CA         35.6710   15.6900   -2.5350 C.3       6 GLL5        0.0000 
     14 CA         36.6115   15.1840   -0.6820 C.3       2 GLC5        0.0000 
     15 CA         37.5520   14.6780    1.1710 C.3       4 GLP5        0.0000 
     16 CA         33.6965   15.1285   -3.4080 C.3       2 GLC5        0.0000 
     17 CA         31.7220   14.5670   -4.2810 C.3       4 GLP5        0.0000 
     18 N          32.4930   11.0955   -9.8560 N.am      1 SEC2        0.0000 
     19 N          33.7080   11.1600  -10.4160 N.am      5 SEL2        0.0000 
     20 N          31.2780   11.0310   -9.2960 N.am      3 SEP2        0.0000 
     21 CA         32.7800   13.0093   -8.8622 C.3       2 GLC5        0.0000 
     22 CA         33.0450   13.3230  -11.1410 C.3       6 GLL5        0.0000 
     23 CA         32.7080   12.0850   -6.9410 C.3       4 GLP5        0.0000 
     24 CA         29.4748   15.8070  -11.2430 C.3       2 GLC5        0.0000 
     25 CA         27.5280   16.3680  -10.9340 C.3       4 GLP5        0.0000 
     26 CA         31.5318   17.2405  -11.9205 C.3       2 GLC5        0.0000 
     27 CA         31.1420   15.0970  -12.1670 C.3       6 GLL5        0.0000 
     28 CA         31.6420   19.2350  -12.2890 C.3       4 GLP5        0.0000 
     29 CA         33.6065   13.7260   -7.0495 C.3       2 GLC5        0.0000 
     30 CA         34.7930   14.8900   -7.5590 C.3       6 GLL5        0.0000 
     31 CA         34.3760   13.1013   -6.6905 C.3       2 GLC5        0.0000 
@<TRIPOS>BOND
@<TRIPOS>SUBSTRUCTURE
     1 SEC2       18 GROUP        1 X    SEC  0     ROOT SEC X 2
     2 GLC5        1 GROUP        1 X    GLC  0     **** GLC X 6
     3 SEP2       20 GROUP        1 Y    SEP  0     ROOT SEP Y 9
     4 GLP5        3 GROUP        1 Y    GLP  0     **** GLP Y 13
     5 SEL2       19 GROUP        1 Z    SEL  0     ROOT SEL Z 16
     6 GLL5        2 GROUP        1 Z    GLL  0     **** GLL Z 20
@<TRIPOS>SET

