#    Name: 2v9c_MRE_2_ligand
#    Modification time : Tue Mar 25 01:19:05 2014

@<TRIPOS>MOLECULE
2v9c_MRE_2_ligand
   34    35     1     0     0
SMALL
NO_CHARGES


@<TRIPOS>ATOM
      1 C1         32.6590   14.5440  -10.4260 C.ar      1 MRE1214     0.0000 
      2 C2         33.0450   13.3230  -11.1410 C.ar      1 MRE1214     0.0000 
      3 C3         32.4530   13.0640  -12.3650 C.ar      1 MRE1214     0.0000 
      4 C4         31.5110   13.9500  -12.8810 C.ar      1 MRE1214     0.0000 
      5 C5         31.1420   15.0970  -12.1670 C.ar      1 MRE1214     0.0000 
      6 C6         31.7010   15.3950  -10.9370 C.ar      1 MRE1214     0.0000 
      7 C1'        34.7930   14.8900   -7.5590 C.ar      1 MRE1214     0.0000 
      8 C2'        34.2170   15.8440   -6.7570 C.ar      1 MRE1214     0.0000 
      9 C3'        34.7060   15.9500   -5.4670 C.ar      1 MRE1214     0.0000 
     10 C4'        35.7200   15.1180   -5.0170 C.ar      1 MRE1214     0.0000 
     11 C5'        36.2800   14.1810   -5.8030 C.ar      1 MRE1214     0.0000 
     12 C6'        35.8080   14.0540   -7.0770 C.ar      1 MRE1214     0.0000 
     13 C          34.0440   12.3500  -10.5520 C.2       1 MRE1214     0.0000 
     14 CHX        37.4690   14.6900   -3.3330 C.3       1 MRE1214     0.0000 
     15 CHZ        35.6710   15.6900   -2.5350 C.3       1 MRE1214     0.0000 
     16 N1         33.2000   14.8140   -9.1750 N.2       1 MRE1214     0.0000 
     17 N1'        34.3620   14.6540   -8.8660 N.2       1 MRE1214     0.0000 
     18 OXT        35.2850   12.7270  -10.1470 O.co2     1 MRE1214     0.0000 
     19 O          33.7080   11.1600  -10.4160 O.co2     1 MRE1214     0.0000 
     20 N10        36.2330   15.1940   -3.7280 N.pl3     1 MRE1214     0.0000 
     21 H          32.7058   12.2200  -12.8950 H         1 MRE1214     0.0000 
     22 H          31.0784   13.7629  -13.7982 H         1 MRE1214     0.0000 
     23 H          30.4314   15.7342  -12.5767 H         1 MRE1214     0.0000 
     24 H          31.4099   16.2262  -10.4208 H         1 MRE1214     0.0000 
     25 H          33.4729   16.4413   -7.0874 H         1 MRE1214     0.0000 
     26 H          34.3091   16.6620   -4.8259 H         1 MRE1214     0.0000 
     27 H          37.0368   13.5777   -5.4648 H         1 MRE1214     0.0000 
     28 H          36.1977   13.3302   -7.7120 H         1 MRE1214     0.0000 
     29 H          38.2210   15.1110   -3.8402 H         1 MRE1214     0.0000 
     30 H          37.6432   14.8526   -2.3618 H         1 MRE1214     0.0000 
     31 H          37.5321   13.7030   -3.4809 H         1 MRE1214     0.0000 
     32 H          36.3000   15.6003   -1.7628 H         1 MRE1214     0.0000 
     33 H          35.4355   16.6590   -2.6102 H         1 MRE1214     0.0000 
     34 H          34.8331   15.2030   -2.2886 H         1 MRE1214     0.0000 
@<TRIPOS>BOND
     1    2    1 ar   
     2    6    1 ar   
     3   16    1 1    
     4    3    2 ar   
     5   13    2 1    
     6    4    3 ar   
     7   21    3 1    
     8    5    4 ar   
     9   22    4 1    
    10    6    5 ar   
    11   23    5 1    
    12   24    6 1    
    13    8    7 ar   
    14   12    7 ar   
    15   17    7 1    
    16    9    8 ar   
    17   25    8 1    
    18   10    9 ar   
    19   26    9 1    
    20   11   10 ar   
    21   20   10 1    
    22   12   11 ar   
    23   27   11 1    
    24   28   12 1    
    25   18   13 ar   
    26   19   13 ar   
    27   20   14 1    
    28   29   14 1    
    29   30   14 1    
    30   31   14 1    
    31   20   15 1    
    32   32   15 1    
    33   33   15 1    
    34   34   15 1    
    35   17   16 2    
@<TRIPOS>SUBSTRUCTURE
     1 MRE1214     1 GROUP   
@<TRIPOS>SET

