#    Name: 2DQM_1_CAVITY_N1_6.mol2
#    Modification time : Tue Mar 11 09:01:49 2014

@<TRIPOS>MOLECULE
2DQM_1_CAVITY_N1_6.mol2
  141     0     7     0     0
SMALL
NO_CHARGES


@<TRIPOS>ATOM
      1 CA         69.2610   48.5836   10.8542 C.3       6 GLY6        0.0000 
      2 NZ         70.1129   47.3787   11.1234 N.2       4 LYS4        0.0000 
      3 CA         68.9652   48.0669    9.4774 C.3       6 GLY6        0.0000 
      4 NZ         69.8171   46.8620    9.7466 N.2       4 LYS4        0.0000 
      5 N          69.5213   46.3453    8.3698 N.2       2 ALA2        0.0000 
      6 N          69.3473   52.7556   12.5384 N.2       2 ALA2        0.0000 
      7 N          68.1996   53.4438   10.8925 N.2       2 ALA2        0.0000 
      8 CA         69.0515   52.2389   11.1616 C.3       6 GLY6        0.0000 
      9 CA         69.9035   51.0341   11.4308 C.3       6 GLY6        0.0000 
     10 CZ         70.7554   49.8292   11.6999 C.ar      5 PHE5        0.0000 
     11 CZ         70.4596   49.3125   10.3232 C.ar      5 PHE5        0.0000 
     12 CZ         71.3115   48.1076   10.5923 C.ar      5 PHE5        0.0000 
     13 CA         70.1638   48.7958    8.9464 C.3       6 GLY6        0.0000 
     14 OG         71.0158   47.5909    9.2155 O.2       1 SER1        0.0000 
     15 OG         71.8677   46.3860    9.4847 O.2       1 SER1        0.0000 
     16 N          70.7200   47.0742    7.8387 N.2       2 ALA2        0.0000 
     17 OD1        71.5719   45.8693    8.1079 O.3       3 ASP3        0.0000 
     18 N          69.6940   54.6894   11.7382 N.2       2 ALA2        0.0000 
     19 N          70.5459   53.4845   12.0074 N.2       2 ALA2        0.0000 
     20 CA         71.3979   52.2796   12.2765 C.3       6 GLY6        0.0000 
     21 O          69.3982   54.1727   10.3614 O.2       2 ALA2        0.0000 
     22 O          70.2501   52.9678   10.6306 O.2       2 ALA2        0.0000 
     23 CA         71.1021   51.7629   10.8997 C.3       6 GLY6        0.0000 
     24 CA         69.9543   52.4511    9.2538 C.3       6 GLY6        0.0000 
     25 CA         70.8063   51.2463    9.5229 C.3       6 GLY6        0.0000 
     26 CZ         71.6582   50.0414    9.7921 C.ar      5 PHE5        0.0000 
     27 CA         71.3624   49.5247    8.4153 C.3       6 GLY6        0.0000 
     28 CA         71.0666   49.0080    7.0385 C.3       6 GLY6        0.0000 
     29 OG         71.9186   47.8031    7.3077 O.2       1 SER1        0.0000 
     30 OG         72.7705   46.5982    7.5768 O.2       1 SER1        0.0000 
     31 N          70.7709   48.4913    5.6617 N.2       2 ALA2        0.0000 
     32 N          71.6228   47.2864    5.9309 N.2       2 ALA2        0.0000 
     33 NZ         72.4747   46.0815    6.2000 N.2       4 LYS4        0.0000 
     34 O          71.7445   54.2134   11.4763 O.2       2 ALA2        0.0000 
     35 CA         72.5965   53.0085   11.7455 C.3       6 GLY6        0.0000 
     36 CA         72.3007   52.4918   10.3687 C.3       6 GLY6        0.0000 
     37 O          71.1530   53.1800    8.7227 O.2       2 ALA2        0.0000 
     38 CA         72.0049   51.9751    8.9919 C.3       6 GLY6        0.0000 
     39 CA         72.8569   50.7703    9.2610 C.3       6 GLY6        0.0000 
     40 CA         71.7091   51.4584    7.6151 C.3       6 GLY6        0.0000 
     41 OG         72.5611   50.2536    7.8843 O.2       1 SER1        0.0000 
     42 CA         71.4133   50.9418    6.2383 C.3       6 GLY6        0.0000 
     43 CA         72.2653   49.7369    6.5075 C.3       6 GLY6        0.0000 
     44 OG         73.1172   48.5320    6.7766 O.2       1 SER1        0.0000 
     45 O          71.9695   49.2202    5.1307 O.2       2 ALA2        0.0000 
     46 NZ         72.8214   48.0153    5.3998 N.2       4 LYS4        0.0000 
     47 N          73.6734   46.8104    5.6690 N.2       2 ALA2        0.0000 
     48 O          71.6737   48.7035    3.7539 O.2       2 ALA2        0.0000 
     49 NZ         72.5256   47.4986    4.0231 N.2       4 LYS4        0.0000 
     50 CA         71.3779   48.1868    2.3771 C.3       6 GLY6        0.0000 
     51 NZ         72.2298   46.9819    2.6463 N.2       4 LYS4        0.0000 
     52 N          73.4993   53.2207    9.8376 N.2       2 ALA2        0.0000 
     53 O          73.2035   52.7040    8.4608 O.2       2 ALA2        0.0000 
     54 N          74.0555   51.4991    8.7300 N.2       2 ALA2        0.0000 
     55 O          72.0558   53.3922    6.8149 O.2       2 ALA2        0.0000 
     56 DU         72.9077   52.1873    7.0840 H         7 CUB7        0.0000 
     57 DU         73.7597   50.9824    7.3532 H         7 CUB7        0.0000 
     58 O          71.7600   52.8755    5.4381 O.2       2 ALA2        0.0000 
     59 O          72.6120   51.6706    5.7073 O.2       2 ALA2        0.0000 
     60 DU         73.4639   50.4657    5.9764 H         7 CUB7        0.0000 
     61 CZ         74.3158   49.2609    6.2456 C.ar      5 PHE5        0.0000 
     62 O          71.4642   52.3588    4.0613 O.2       2 ALA2        0.0000 
     63 O          72.3162   51.1539    4.3305 O.2       2 ALA2        0.0000 
     64 DU         73.1681   49.9491    4.5996 H         7 CUB7        0.0000 
     65 CZ         74.0201   48.7442    4.8688 C.ar      5 PHE5        0.0000 
     66 CZ         74.8720   47.5393    5.1379 C.ar      5 PHE5        0.0000 
     67 CA         72.0204   50.6372    2.9537 C.3       6 GLY6        0.0000 
     68 DU         72.8723   49.4324    3.2228 H         7 CUB7        0.0000 
     69 DU         73.7243   48.2275    3.4920 H         7 CUB7        0.0000 
     70 CA         74.5762   47.0226    3.7611 C.3       6 GLY6        0.0000 
     71 CZ         71.7246   50.1206    1.5769 C.ar      5 PHE5        0.0000 
     72 CA         72.5765   48.9157    1.8461 C.3       6 GLY6        0.0000 
     73 CA         73.4285   47.7108    2.1152 C.3       6 GLY6        0.0000 
     74 CA         74.2804   46.5059    2.3844 C.3       6 GLY6        0.0000 
     75 O          74.4022   53.4329    7.9298 O.2       2 ALA2        0.0000 
     76 N          75.2541   52.2280    8.1989 N.2       2 ALA2        0.0000 
     77 CZ         76.1060   51.0231    8.4681 C.ar      5 PHE5        0.0000 
     78 O          74.1064   52.9162    6.5530 O.2       2 ALA2        0.0000 
     79 DU         74.9583   51.7113    6.8221 H         7 CUB7        0.0000 
     80 CZ         75.8103   50.5064    7.0913 C.ar      5 PHE5        0.0000 
     81 O          72.9586   53.6044    4.9071 O.2       2 ALA2        0.0000 
     82 DU         73.8106   52.3995    5.1762 H         7 CUB7        0.0000 
     83 DU         74.6625   51.1946    5.4454 H         7 CUB7        0.0000 
     84 CZ         75.5145   49.9897    5.7145 C.ar      5 PHE5        0.0000 
     85 O          71.8109   54.2926    3.2611 O.2       2 ALA2        0.0000 
     86 OG         72.6628   53.0877    3.5303 O.2       1 SER1        0.0000 
     87 DU         73.5148   51.8828    3.7994 H         7 CUB7        0.0000 
     88 DU         74.3667   50.6779    4.0686 H         7 CUB7        0.0000 
     89 DU         75.2187   49.4731    4.3377 H         7 CUB7        0.0000 
     90 CZ         76.0706   48.2682    4.6069 C.ar      5 PHE5        0.0000 
     91 OG         72.3671   52.5710    2.1535 O.2       1 SER1        0.0000 
     92 OG         73.2190   51.3661    2.4226 O.2       1 SER1        0.0000 
     93 DU         74.0709   50.1612    2.6918 H         7 CUB7        0.0000 
     94 O          74.9229   48.9564    2.9609 O.2       2 ALA2        0.0000 
     95 O          75.7748   47.7515    3.2301 O.2       2 ALA2        0.0000 
     96 CZ         72.9232   50.8494    1.0459 C.ar      5 PHE5        0.0000 
     97 CA         73.7752   49.6446    1.3150 C.3       6 GLY6        0.0000 
     98 CA         74.6271   48.4397    1.5842 C.3       6 GLY6        0.0000 
     99 OD1        75.4790   47.2348    1.8533 O.3       3 ASP3        0.0000 
    100 O          75.6008   54.1618    7.3987 O.2       2 ALA2        0.0000 
    101 N          76.4527   52.9569    7.6679 N.2       2 ALA2        0.0000 
    102 CZ         77.3047   51.7520    7.9370 C.ar      5 PHE5        0.0000 
    103 O          75.3050   53.6451    6.0219 O.2       2 ALA2        0.0000 
    104 DU         76.1569   52.4402    6.2911 H         7 CUB7        0.0000 
    105 CZ         77.0089   51.2353    6.5602 C.ar      5 PHE5        0.0000 
    106 O          74.1573   54.3333    4.3760 O.2       2 ALA2        0.0000 
    107 DU         75.0092   53.1284    4.6451 H         7 CUB7        0.0000 
    108 DU         75.8611   51.9235    4.9143 H         7 CUB7        0.0000 
    109 CZ         76.7131   50.7186    5.1834 C.ar      5 PHE5        0.0000 
    110 CZ         77.5650   49.5137    5.4526 C.ar      5 PHE5        0.0000 
    111 OG         73.8615   53.8166    2.9992 O.2       1 SER1        0.0000 
    112 DU         74.7134   52.6117    3.2684 H         7 CUB7        0.0000 
    113 O          75.5654   51.4068    3.5375 O.2       2 ALA2        0.0000 
    114 O          76.4173   50.2019    3.8067 O.2       2 ALA2        0.0000 
    115 OG         74.4176   52.0950    1.8916 O.2       1 SER1        0.0000 
    116 O          75.2696   50.8901    2.1607 O.2       2 ALA2        0.0000 
    117 OG         74.1218   51.5783    0.5148 O.2       1 SER1        0.0000 
    118 O          74.9738   50.3734    0.7839 O.2       2 ALA2        0.0000 
    119 CZ         73.8260   51.0616   -0.8620 C.ar      5 PHE5        0.0000 
    120 CA         74.6780   49.8567   -0.5928 C.3       6 GLY6        0.0000 
    121 O          76.7994   54.8907    6.8677 O.2       2 ALA2        0.0000 
    122 O          75.6517   55.5789    5.2217 O.2       2 ALA2        0.0000 
    123 DU         76.5036   54.3740    5.4909 H         7 CUB7        0.0000 
    124 DU         77.3556   53.1691    5.7600 H         7 CUB7        0.0000 
    125 NZ         78.2075   51.9642    6.0292 N.2       4 LYS4        0.0000 
    126 DU         75.3559   55.0622    3.8449 H         7 CUB7        0.0000 
    127 DU         76.2078   53.8573    4.1141 H         7 CUB7        0.0000 
    128 NZ         77.0598   52.6524    4.3832 N.2       4 LYS4        0.0000 
    129 NZ         77.9117   51.4475    4.6524 N.2       4 LYS4        0.0000 
    130 DU         75.0601   54.5455    2.4682 H         7 CUB7        0.0000 
    131 DU         75.9120   53.3406    2.7373 H         7 CUB7        0.0000 
    132 O          76.7640   52.1357    3.0065 O.2       2 ALA2        0.0000 
    133 O          77.6159   50.9308    3.2756 O.2       2 ALA2        0.0000 
    134 O          75.6163   52.8239    1.3605 O.2       2 ALA2        0.0000 
    135 O          76.4682   51.6190    1.6297 O.2       2 ALA2        0.0000 
    136 OG         75.3205   52.3072   -0.0163 O.2       1 SER1        0.0000 
    137 NZ         75.0247   51.7905   -1.3930 N.2       4 LYS4        0.0000 
    138 O          75.8766   50.5856   -1.1239 O.2       2 ALA2        0.0000 
    139 O          77.9626   52.8646    2.4754 O.2       2 ALA2        0.0000 
    140 NZ         78.8146   51.6597    2.7445 N.2       4 LYS4        0.0000 
    141 O          77.3710   51.8312   -0.2782 O.2       2 ALA2        0.0000 
@<TRIPOS>BOND
@<TRIPOS>SUBSTRUCTURE
     1 SER1       14 GROUP   
     2 ALA2        5 GROUP   
     3 ASP3       17 GROUP   
     4 LYS4        2 GROUP   
     5 PHE5       10 GROUP   
     6 GLY6        1 GROUP   
     7 CUB7       56 GROUP   
@<TRIPOS>SET

