#    Name: 2dqm_BES_1_INTS_M
#    Modification time : Tue Mar 25 10:14:16 2014

@<TRIPOS>MOLECULE
2dqm_BES_1_INTS_M
   65     0    15     0     0
SMALL
NO_CHARGES


@<TRIPOS>ATOM
      1 OD1        71.3270   44.6570   11.3430 O.co2     3 ASC3        0.0000 
      2 OD1        71.2990   44.7770    9.5000 O.co2    13 ASL3        0.0000 
      3 OD1        71.3550   44.5370   13.1860 O.co2     8 ASP3        0.0000 
      4 OD1        70.4885   44.5730   10.6385 O.co2     3 ASC3        0.0000 
      5 OD1        69.6780   44.3690   11.7770 O.co2     8 ASP3        0.0000 
      6 OD1        71.1740   43.1285    9.7125 O.co2     3 ASC3        0.0000 
      7 OD1        71.0490   41.4800    9.9250 O.co2     8 ASP3        0.0000 
      8 OD1        70.7390   43.6925    8.8825 O.co2     3 ASC3        0.0000 
      9 OD1        70.1790   42.6080    8.2650 O.co2     8 ASP3        0.0000 
     10 OD1        72.7625   44.5045    9.8635 O.co2     3 ASC3        0.0000 
     11 OD1        74.2260   44.2320   10.2270 O.co2     8 ASP3        0.0000 
     12 O          70.4885   44.5730   10.6385 O.2       1 ALC1        0.0000 
     13 O          71.2990   44.7770    9.5000 O.2      11 ALL1        0.0000 
     14 O          69.6780   44.3690   11.7770 O.2       6 ALP1        0.0000 
     15 O          71.1740   43.1285    9.7125 O.2       1 ALC1        0.0000 
     16 O          71.0490   41.4800    9.9250 O.2       6 ALP1        0.0000 
     17 O          70.7390   43.6925    8.8825 O.2       1 ALC1        0.0000 
     18 O          70.1790   42.6080    8.2650 O.2       6 ALP1        0.0000 
     19 O          72.7625   44.5045    9.8635 O.2       1 ALC1        0.0000 
     20 O          74.2260   44.2320   10.2270 O.2       6 ALP1        0.0000 
     21 CA         73.0495   44.7560    5.7995 C.3       5 GLC5        0.0000 
     22 CA         71.6440   45.6690    7.2000 C.3      15 GLL5        0.0000 
     23 CA         74.4550   43.8430    4.3990 C.3      10 GLP5        0.0000 
     24 Zn         73.2485   44.2610    7.2085 Zn        4 ZIC7        0.0000 
     25 Zn         72.1590   44.3510    7.0650 Zn       14 ZIL7        0.0000 
     26 Zn         74.3380   44.1710    7.3520 Zn        9 ZIP7        0.0000 
     27 N          71.5205   43.7600    6.1080 N.am      2 SEC2        0.0000 
     28 N          72.1590   44.3510    7.0650 N.am     12 SEL2        0.0000 
     29 N          70.8820   43.1690    5.1510 N.am      7 SEP2        0.0000 
     30 O          71.1690   43.4795    7.6650 O.2       1 ALC1        0.0000 
     31 O          72.1590   44.3510    7.0650 O.2      11 ALL1        0.0000 
     32 Zn         74.0435   45.4460    7.2240 Zn        4 ZIC7        0.0000 
     33 Zn         73.7490   46.7210    7.0960 Zn       14 ZIL7        0.0000 
     34 CA         74.6465   48.2435    6.5970 C.3       5 GLC5        0.0000 
     35 CA         72.9880   48.7030    5.2220 C.3      15 GLL5        0.0000 
     36 CA         76.3050   47.7840    7.9720 C.3      10 GLP5        0.0000 
     37 CA         73.7750   47.6125    0.6570 C.3       5 GLC5        0.0000 
     38 CA         74.7210   47.1290    2.1110 C.3      15 GLL5        0.0000 
     39 CA         72.8290   48.0960   -0.7970 C.3      10 GLP5        0.0000 
     40 CA         74.9825   45.4575    2.7060 C.3       5 GLC5        0.0000 
     41 CA         75.2440   43.7860    3.3010 C.3      10 GLP5        0.0000 
     42 CA         76.0145   47.7095    6.1455 C.3       5 GLC5        0.0000 
     43 CA         75.7240   47.6350    4.3190 C.3      15 GLL5        0.0000 
     44 N          69.8960   50.4595    5.0295 N.am      2 SEC2        0.0000 
     45 N          70.7740   49.7180    5.5370 N.am     12 SEL2        0.0000 
     46 N          69.0180   51.2010    4.5220 N.am      7 SEP2        0.0000 
     47 N          69.6500   49.0790    4.7010 N.am      2 SEC2        0.0000 
     48 N          68.5260   48.4400    3.8650 N.am      7 SEP2        0.0000 
     49 CA         69.0740   45.3717    9.1855 C.3       5 GLC5        0.0000 
     50 CA         70.0360   46.7790    8.7780 C.3      15 GLL5        0.0000 
     51 CA         67.4470   44.3490    9.6400 C.3      10 GLP5        0.0000 
     52 CA         68.5952   46.0517   10.0515 C.3       5 GLC5        0.0000 
     53 CA         70.0660   47.8630    9.8430 C.3      15 GLL5        0.0000 
     54 CA         69.1222   49.2578    8.5081 C.3       5 GLC5        0.0000 
     55 CA         67.8560   50.3080    7.5620 C.3      10 GLP5        0.0000 
     56 CA         69.3063   46.6275   12.7822 C.3       5 GLC5        0.0000 
     57 CA         69.4210   47.6460   11.0830 C.3      15 GLL5        0.0000 
     58 CA         69.1850   45.1070   13.9850 C.3      10 GLP5        0.0000 
     59 CA         68.2948   49.4800   10.8887 C.3       5 GLC5        0.0000 
     60 CA         67.1620   50.8120   10.1980 C.3      10 GLP5        0.0000 
     61 CA         68.7883   50.4000   10.7060 C.3       5 GLC5        0.0000 
     62 CA         70.0910   49.8760   11.8330 C.3      15 GLL5        0.0000 
     63 CA         72.2497   50.4765   11.7395 C.3       5 GLC5        0.0000 
     64 CA         74.0850   50.9650   12.2650 C.3      10 GLP5        0.0000 
     65 CA         74.7608   45.6595    4.1777 C.3       5 GLC5        0.0000 
@<TRIPOS>BOND
@<TRIPOS>SUBSTRUCTURE
     1 ALC1       12 GROUP        1 X    ALC  0     ROOT ALC X 1
     2 SEC2       27 GROUP        1 X    SEC  0     **** SEC X 2
     3 ASC3        1 GROUP        1 X    ASC  0     **** ASC X 3
     4 ZIC7       24 GROUP        1 X    ZIC  0     **** ZIC X 5
     5 GLC5       21 GROUP        1 X    GLC  0     **** GLC X 6
     6 ALP1       14 GROUP        1 Y    ALP  0     ROOT ALP Y 8
     7 SEP2       29 GROUP        1 Y    SEP  0     **** SEP Y 9
     8 ASP3        3 GROUP        1 Y    ASP  0     **** ASP Y 10
     9 ZIP7       26 GROUP        1 Y    ZIP  0     **** ZIP Y 12
    10 GLP5       23 GROUP        1 Y    GLP  0     **** GLP Y 13
    11 ALL1       13 GROUP        1 Z    ALL  0     ROOT ALL Z 15
    12 SEL2       28 GROUP        1 Z    SEL  0     **** SEL Z 16
    13 ASL3        2 GROUP        1 Z    ASL  0     **** ASL Z 17
    14 ZIL7       25 GROUP        1 Z    ZIL  0     **** ZIL Z 19
    15 GLL5       22 GROUP        1 Z    GLL  0     **** GLL Z 20
@<TRIPOS>SET

