#    Name: 2dqm_BES_1_ligand
#    Modification time : Tue Mar 25 10:14:17 2014

@<TRIPOS>MOLECULE
2dqm_BES_1_ligand
   46    46     1     0     0
SMALL
NO_CHARGES


@<TRIPOS>ATOM
      1 N2         71.2990   44.7770    9.5000 N.4       1 BES901      0.0000 
      2 C1         71.3660   46.0100    8.6840 C.3       1 BES901      0.0000 
      3 C6         70.0360   46.7790    8.7780 C.3       1 BES901      0.0000 
      4 C7         70.0660   47.8630    9.8430 C.ar      1 BES901      0.0000 
      5 C8         70.7260   49.0940    9.5980 C.ar      1 BES901      0.0000 
      6 C12        69.4210   47.6460   11.0830 C.ar      1 BES901      0.0000 
      7 C9         70.7380   50.1000   10.5950 C.ar      1 BES901      0.0000 
      8 C11        69.4340   48.6500   12.0760 C.ar      1 BES901      0.0000 
      9 C10        70.0910   49.8760   11.8330 C.ar      1 BES901      0.0000 
     10 C2         71.6440   45.6690    7.2000 C.3       1 BES901      0.0000 
     11 O2         72.1590   44.3510    7.0650 O.3       1 BES901      0.0000 
     12 C3         72.6230   46.6660    6.6410 C.2       1 BES901      0.0000 
     13 O3         73.7490   46.7210    7.0960 O.2       1 BES901      0.0000 
     14 N1         72.1870   47.5580    5.7220 N.am      1 BES901      0.0000 
     15 C4         72.9880   48.7030    5.2220 C.3       1 BES901      0.0000 
     16 C13        73.4300   48.4900    3.7500 C.3       1 BES901      0.0000 
     17 C14        74.4090   47.3170    3.5940 C.3       1 BES901      0.0000 
     18 C15        74.7210   47.1290    2.1110 C.3       1 BES901      0.0000 
     19 C16        75.7240   47.6350    4.3190 C.3       1 BES901      0.0000 
     20 C5         72.0860   49.8980    5.3160 C.2       1 BES901      0.0000 
     21 O1         70.7740   49.7180    5.5370 O.co2     1 BES901      0.0000 
     22 O4         72.5380   51.0180    5.2060 O.co2     1 BES901      0.0000 
     23 H          72.1523   46.6533    9.0327 H         1 BES901      0.0000 
     24 H          69.2343   46.0676    9.0039 H         1 BES901      0.0000 
     25 H          69.8220   47.2308    7.8033 H         1 BES901      0.0000 
     26 H          71.1908   49.2539    8.7056 H         1 BES901      0.0000 
     27 H          68.9442   46.7593   11.2599 H         1 BES901      0.0000 
     28 H          71.2130   50.9852   10.4198 H         1 BES901      0.0000 
     29 H          68.9679   48.4892   12.9705 H         1 BES901      0.0000 
     30 H          70.0998   50.6023   12.5507 H         1 BES901      0.0000 
     31 H          70.7050   45.7829    6.6660 H         1 BES901      0.0000 
     32 H          71.2257   47.4803    5.3029 H         1 BES901      0.0000 
     33 H          73.8427   48.8542    5.8310 H         1 BES901      0.0000 
     34 H          73.9049   49.4063    3.3917 H         1 BES901      0.0000 
     35 H          72.5419   48.3019    3.1422 H         1 BES901      0.0000 
     36 H          73.9861   46.4363    3.9861 H         1 BES901      0.0000 
     37 H          70.6872   44.8832   10.2838 H         1 BES901      0.0000 
     38 H          70.9635   43.9984    8.9697 H         1 BES901      0.0000 
     39 H          72.1959   44.5212    9.8607 H         1 BES901      0.0000 
     40 H          75.1340   47.9475    1.7117 H         1 BES901      0.0000 
     41 H          75.3593   46.3745    1.9585 H         1 BES901      0.0000 
     42 H          73.8973   46.9279    1.5808 H         1 BES901      0.0000 
     43 H          76.3824   46.8865    4.2395 H         1 BES901      0.0000 
     44 H          76.1640   48.4530    3.9484 H         1 BES901      0.0000 
     45 H          75.5802   47.7963    5.2954 H         1 BES901      0.0000 
     46 H          71.6147   43.7950    7.6931 H         1 BES901      0.0000 
@<TRIPOS>BOND
     1    2    1 1    
     2   37    1 1    
     3   38    1 1    
     4   39    1 1    
     5    3    2 1    
     6   10    2 1    
     7   23    2 1    
     8    4    3 1    
     9   24    3 1    
    10   25    3 1    
    11    5    4 ar   
    12    6    4 ar   
    13    7    5 ar   
    14   26    5 1    
    15    8    6 ar   
    16   27    6 1    
    17    9    7 ar   
    18   28    7 1    
    19    9    8 ar   
    20   29    8 1    
    21   30    9 1    
    22   11   10 1    
    23   12   10 1    
    24   31   10 1    
    25   46   11 1    
    26   13   12 2    
    27   14   12 am   
    28   15   14 1    
    29   32   14 1    
    30   16   15 1    
    31   20   15 1    
    32   33   15 1    
    33   17   16 1    
    34   34   16 1    
    35   35   16 1    
    36   18   17 1    
    37   19   17 1    
    38   36   17 1    
    39   40   18 1    
    40   41   18 1    
    41   42   18 1    
    42   43   19 1    
    43   44   19 1    
    44   45   19 1    
    45   21   20 ar   
    46   22   20 ar   
@<TRIPOS>SUBSTRUCTURE
     1 BES901      1 GROUP   
@<TRIPOS>SET

