#    Name: 3rnn_RNN_1_INTS_M
#    Modification time : Mon Apr  7 20:32:46 2014

@<TRIPOS>MOLECULE
3rnn_RNN_1_INTS_M
   66     0     6     0     0
SMALL
NO_CHARGES


@<TRIPOS>ATOM
      1 CA         60.0770   30.7785   47.9805 C.3       2 GLC5        0.0000 
      2 CA         59.2760   31.9030   46.3690 C.3       6 GLL5        0.0000 
      3 CA         60.8780   29.6540   49.5920 C.3       4 GLP5        0.0000 
      4 CA         60.7815   32.9580   47.4175 C.3       2 GLC5        0.0000 
      5 CA         62.2870   34.0130   48.4660 C.3       4 GLP5        0.0000 
      6 CA         56.2350   29.9655   47.7745 C.3       2 GLC5        0.0000 
      7 CA         56.9770   30.8930   46.2390 C.3       6 GLL5        0.0000 
      8 CA         55.4930   29.0380   49.3100 C.3       4 GLP5        0.0000 
      9 CA         56.1085   30.6270   44.3595 C.3       2 GLC5        0.0000 
     10 CA         55.2400   30.3610   42.4800 C.3       4 GLP5        0.0000 
     11 CA         62.9735   21.9320   47.9780 C.3       2 GLC5        0.0000 
     12 CA         63.7920   20.8120   46.3120 C.3       6 GLL5        0.0000 
     13 CA         62.1550   23.0520   49.6440 C.3       4 GLP5        0.0000 
     14 CA         62.2445   19.7025   47.3530 C.3       2 GLC5        0.0000 
     15 CA         60.6970   18.5930   48.3940 C.3       4 GLP5        0.0000 
     16 CA         64.1655   19.0325   45.5880 C.3       2 GLC5        0.0000 
     17 CA         64.5390   17.2530   44.8640 C.3       4 GLP5        0.0000 
     18 CA         66.8510   22.7675   47.7490 C.3       2 GLC5        0.0000 
     19 CA         66.0850   21.8330   46.2080 C.3       6 GLL5        0.0000 
     20 CA         67.6170   23.7020   49.2900 C.3       4 GLP5        0.0000 
     21 CA         67.0060   22.1135   44.3570 C.3       2 GLC5        0.0000 
     22 CA         67.9270   22.3940   42.5060 C.3       4 GLP5        0.0000 
     23 CA         58.4060   29.8410   42.4725 C.3       2 GLC5        0.0000 
     24 CA         60.3240   29.9550   43.0570 C.3       6 GLL5        0.0000 
     25 CA         56.4880   29.7270   41.8880 C.3       4 GLP5        0.0000 
     26 CA         64.6970   22.9435   42.5040 C.3       2 GLC5        0.0000 
     27 CA         62.7410   22.8880   43.0650 C.3       6 GLL5        0.0000 
     28 CA         66.6530   22.9990   41.9430 C.3       4 GLP5        0.0000 
     29 CA         57.4140   30.3690   43.7265 C.3       2 GLC5        0.0000 
     30 CA         58.3400   31.0110   45.5650 C.3       6 GLL5        0.0000 
     31 CA         65.6885   22.3650   43.7315 C.3       2 GLC5        0.0000 
     32 CA         64.7240   21.7310   45.5200 C.3       6 GLL5        0.0000 
     33 O          61.6015   30.3000   45.0025 O.2       1 ALC1        0.0000 
     34 O          60.4160   29.6800   44.5020 O.2       5 ALL1        0.0000 
     35 O          62.7870   30.9200   45.5030 O.2       3 ALP1        0.0000 
     36 O          61.5000   22.4855   44.9745 O.2       1 ALC1        0.0000 
     37 O          62.6370   23.1590   44.4690 O.2       5 ALL1        0.0000 
     38 O          60.3630   21.8120   45.4800 O.2       3 ALP1        0.0000 
     39 CA         63.4400   27.2130   40.7380 C.3       2 GLC5        0.0000 
     40 CA         62.7480   27.1450   42.3600 C.3       6 GLL5        0.0000 
     41 CA         64.1150   27.9800   39.1220 C.3       4 GLP5        0.0000 
     42 CA         61.1305   25.3138   44.0727 C.3       2 GLC5        0.0000 
     43 CA         62.7820   25.7470   42.3480 C.3       6 GLL5        0.0000 
     44 CA         60.0780   25.2420   45.8060 C.3       4 GLP5        0.0000 
     45 CA         60.2138   25.8238   44.0722 C.3       2 GLC5        0.0000 
     46 CA         60.3340   27.1050   42.3390 C.3       6 GLL5        0.0000 
     47 CA         59.6502   25.6107   40.6598 C.3       2 GLC5        0.0000 
     48 CA         60.3650   25.7060   42.3380 C.3       6 GLL5        0.0000 
     49 CA         58.9510   24.8160   38.9810 C.3       4 GLP5        0.0000 
     50 CA         58.2037   26.3313   42.8387 C.3       2 GLC5        0.0000 
     51 CA         56.0580   26.2570   43.3390 C.3       4 GLP5        0.0000 
     52 CA         62.8260   28.2810   40.7455 C.3       2 GLC5        0.0000 
     53 CA         61.5320   27.8260   42.3660 C.3       6 GLL5        0.0000 
     54 CA         62.5913   26.6155   44.0568 C.3       2 GLC5        0.0000 
     55 CA         63.0080   27.4960   45.7710 C.3       4 GLP5        0.0000 
     56 CA         60.2690   24.5467   40.6505 C.3       2 GLC5        0.0000 
     57 CA         61.5840   25.0240   42.3310 C.3       6 GLL5        0.0000 
     58 CA         58.6940   33.4450   45.3890 C.3       2 GLC5        0.0000 
     59 CA         58.5800   35.4330   44.8110 C.3       4 GLP5        0.0000 
     60 CA         57.7532   31.7720   47.7955 C.3       2 GLC5        0.0000 
     61 CA         57.6140   32.3690   49.4880 C.3       4 GLP5        0.0000 
     62 CA         65.3063   20.9846   47.8875 C.3       2 GLC5        0.0000 
     63 CA         65.4410   20.4170   49.7130 C.3       4 GLP5        0.0000 
     64 CA         62.1228   27.9489   44.0666 C.3       2 GLC5        0.0000 
     65 CA         61.1218   24.2257   44.2465 C.3       2 GLC5        0.0000 
     66 CA         61.5900   23.5310   42.3090 C.3       6 GLL5        0.0000 
@<TRIPOS>BOND
@<TRIPOS>SUBSTRUCTURE
     1 ALC1       33 GROUP        1 X    ALC  0     ROOT ALC X 1
     2 GLC5        1 GROUP        1 X    GLC  0     **** GLC X 6
     3 ALP1       35 GROUP        1 Y    ALP  0     ROOT ALP Y 8
     4 GLP5        3 GROUP        1 Y    GLP  0     **** GLP Y 13
     5 ALL1       34 GROUP        1 Z    ALL  0     ROOT ALL Z 15
     6 GLL5        2 GROUP        1 Z    GLL  0     **** GLL Z 20
@<TRIPOS>SET

