#    Name: 3rnn_RNN_1_ligand
#    Modification time : Mon Apr  7 20:32:46 2014

@<TRIPOS>MOLECULE
3rnn_RNN_1_ligand
   52    52     1     0     0
SMALL
NO_CHARGES


@<TRIPOS>ATOM
      1 C1         62.7480   27.1450   42.3600 C.ar      1 RNN280      0.0000 
      2 C2         62.7820   25.7470   42.3480 C.ar      1 RNN280      0.0000 
      3 C3         60.3340   27.1050   42.3390 C.ar      1 RNN280      0.0000 
      4 C4         60.3650   25.7060   42.3380 C.ar      1 RNN280      0.0000 
      5 C5         61.5320   27.8260   42.3660 C.ar      1 RNN280      0.0000 
      6 C6         61.5840   25.0240   42.3310 C.ar      1 RNN280      0.0000 
      7 C7         59.2760   31.9030   46.3690 C.3       1 RNN280      0.0000 
      8 C8         56.9770   30.8930   46.2390 C.3       1 RNN280      0.0000 
      9 C9         63.7920   20.8120   46.3120 C.3       1 RNN280      0.0000 
     10 C10        66.0850   21.8330   46.2080 C.3       1 RNN280      0.0000 
     11 C11        61.5420   29.3380   42.3720 C.3       1 RNN280      0.0000 
     12 C12        61.5900   23.5310   42.3090 C.3       1 RNN280      0.0000 
     13 C13        60.3240   29.9550   43.0570 C.3       1 RNN280      0.0000 
     14 C14        62.7410   22.8880   43.0650 C.3       1 RNN280      0.0000 
     15 C15        58.3400   31.0110   45.5650 C.3       1 RNN280      0.0000 
     16 C16        64.7240   21.7310   45.5200 C.3       1 RNN280      0.0000 
     17 N17        60.4160   29.6800   44.5020 N.pl3     1 RNN280      0.0000 
     18 N18        62.6370   23.1590   44.4690 N.pl3     1 RNN280      0.0000 
     19 O19        59.4100   28.9450   46.7270 O.2       1 RNN280      0.0000 
     20 O20        58.1490   28.6060   44.5310 O.2       1 RNN280      0.0000 
     21 O21        63.7660   23.7840   46.7370 O.2       1 RNN280      0.0000 
     22 O22        64.9790   24.1340   44.5400 O.2       1 RNN280      0.0000 
     23 S23        59.0130   29.3810   45.4110 S.o2      1 RNN280      0.0000 
     24 S24        64.0520   23.3790   45.3740 S.o2      1 RNN280      0.0000 
     25 H          63.6322   27.6752   42.3644 H         1 RNN280      0.0000 
     26 H          63.6791   25.2543   42.3516 H         1 RNN280      0.0000 
     27 H          59.4372   27.5987   42.3200 H         1 RNN280      0.0000 
     28 H          59.4824   25.1765   42.3425 H         1 RNN280      0.0000 
     29 H          61.5885   29.7067   41.3340 H         1 RNN280      0.0000 
     30 H          62.4526   29.6948   42.8810 H         1 RNN280      0.0000 
     31 H          61.6188   23.1760   41.2571 H         1 RNN280      0.0000 
     32 H          60.6361   23.1504   42.7314 H         1 RNN280      0.0000 
     33 H          59.4280   29.5113   42.6366 H         1 RNN280      0.0000 
     34 H          60.3235   31.0229   42.8672 H         1 RNN280      0.0000 
     35 H          63.6807   23.2798   42.6490 H         1 RNN280      0.0000 
     36 H          62.7182   21.8073   42.8619 H         1 RNN280      0.0000 
     37 H          58.2431   31.3350   44.5627 H         1 RNN280      0.0000 
     38 H          64.8313   21.4180   44.5146 H         1 RNN280      0.0000 
     39 H          61.2350   29.6487   45.0229 H         1 RNN280      0.0000 
     40 H          61.8262   23.2372   44.9966 H         1 RNN280      0.0000 
     41 H          60.1732   31.9863   45.9353 H         1 RNN280      0.0000 
     42 H          58.9117   32.8289   46.4692 H         1 RNN280      0.0000 
     43 H          59.4280   31.5465   47.2909 H         1 RNN280      0.0000 
     44 H          57.0486   30.4987   47.1552 H         1 RNN280      0.0000 
     45 H          56.5329   31.7836   46.3371 H         1 RNN280      0.0000 
     46 H          56.3538   30.3106   45.7171 H         1 RNN280      0.0000 
     47 H          64.1647   19.8878   46.3955 H         1 RNN280      0.0000 
     48 H          63.6372   21.1506   47.2401 H         1 RNN280      0.0000 
     49 H          62.8954   20.7283   45.8772 H         1 RNN280      0.0000 
     50 H          66.5284   20.9403   46.2883 H         1 RNN280      0.0000 
     51 H          66.7120   22.4275   45.7046 H         1 RNN280      0.0000 
     52 H          66.0067   22.2056   47.1327 H         1 RNN280      0.0000 
@<TRIPOS>BOND
     1    2    1 ar   
     2    5    1 ar   
     3   25    1 1    
     4    6    2 ar   
     5   26    2 1    
     6    4    3 ar   
     7    5    3 ar   
     8   27    3 1    
     9    6    4 ar   
    10   28    4 1    
    11   11    5 1    
    12   12    6 1    
    13   15    7 1    
    14   41    7 1    
    15   42    7 1    
    16   43    7 1    
    17   15    8 1    
    18   44    8 1    
    19   45    8 1    
    20   46    8 1    
    21   16    9 1    
    22   47    9 1    
    23   48    9 1    
    24   49    9 1    
    25   16   10 1    
    26   50   10 1    
    27   51   10 1    
    28   52   10 1    
    29   13   11 1    
    30   29   11 1    
    31   30   11 1    
    32   14   12 1    
    33   31   12 1    
    34   32   12 1    
    35   17   13 1    
    36   33   13 1    
    37   34   13 1    
    38   18   14 1    
    39   35   14 1    
    40   36   14 1    
    41   23   15 1    
    42   37   15 1    
    43   24   16 1    
    44   38   16 1    
    45   23   17 1    
    46   39   17 1    
    47   24   18 1    
    48   40   18 1    
    49   23   19 2    
    50   23   20 2    
    51   24   21 2    
    52   24   22 2    
@<TRIPOS>SUBSTRUCTURE
     1 RNN280      1 GROUP   
@<TRIPOS>SET

