#    Name: 3s7l_591_1_INTS_M
#    Modification time : Tue Mar 25 12:16:02 2014

@<TRIPOS>MOLECULE
3s7l_591_1_INTS_M
   45     0    12     0     0
SMALL
NO_CHARGES


@<TRIPOS>ATOM
      1 CA         16.9390  -10.7680   20.8415 C.3       4 GLC5        0.0000 
      2 CA         17.5530  -11.1500   18.7230 C.3      12 GLL5        0.0000 
      3 CA         16.3250  -10.3860   22.9600 C.3       8 GLP5        0.0000 
      4 N          14.4045   -5.6245   20.4590 N.am      2 SEC2        0.0000 
      5 N          14.1940   -6.0490   18.9220 N.am     10 SEL2        0.0000 
      6 N          14.6150   -5.2000   21.9960 N.am      6 SEP2        0.0000 
      7 CA         15.1135  -11.2000   20.4725 C.3       4 GLC5        0.0000 
      8 CA         16.0590  -11.0770   18.9610 C.3      12 GLL5        0.0000 
      9 CA         14.1680  -11.3230   21.9840 C.3       8 GLP5        0.0000 
     10 O          15.1190   -7.1570   14.3085 O.2       1 ALC1        0.0000 
     11 O          14.8540   -6.5860   15.4850 O.2       9 ALL1        0.0000 
     12 O          15.3840   -7.7280   13.1320 O.2       5 ALP1        0.0000 
     13 O          16.0475   -5.3165   13.6455 O.2       1 ALC1        0.0000 
     14 O          16.2330   -4.8690   15.0200 O.2       9 ALL1        0.0000 
     15 O          15.8620   -5.7640   12.2710 O.2       5 ALP1        0.0000 
     16 O          16.7925   -3.6600   15.0420 O.2       1 ALC1        0.0000 
     17 O          17.3520   -2.4510   15.0640 O.2       5 ALP1        0.0000 
     18 OD1        16.0475   -5.3165   13.6455 O.co2     3 ASC3        0.0000 
     19 OD1        15.2950   -5.4200   15.7960 O.co2    11 ASL3        0.0000 
     20 OD1        15.8620   -5.7640   12.2710 O.co2     7 ASP3        0.0000 
     21 OD1        15.1190   -7.1570   14.3085 O.co2     3 ASC3        0.0000 
     22 OD1        15.3840   -7.7280   13.1320 O.co2     7 ASP3        0.0000 
     23 OD1        16.7925   -3.6600   15.0420 O.co2     3 ASC3        0.0000 
     24 OD1        17.3520   -2.4510   15.0640 O.co2     7 ASP3        0.0000 
     25 CA          9.1315   -3.3145   12.5945 C.3       4 GLC5        0.0000 
     26 CA         10.2300   -4.0780   14.3190 C.3      12 GLL5        0.0000 
     27 CA          8.0330   -2.5510   10.8700 C.3       8 GLP5        0.0000 
     28 CA         12.0510   -3.6985   13.4855 C.3       4 GLC5        0.0000 
     29 CA         13.8720   -3.3190   12.6520 C.3       8 GLP5        0.0000 
     30 CA          6.9585   -2.2035   14.0200 C.3       4 GLC5        0.0000 
     31 CA          8.6780   -2.4150   14.6260 C.3      12 GLL5        0.0000 
     32 CA          5.2390   -1.9920   13.4140 C.3       8 GLP5        0.0000 
     33 CA          8.3555   -2.4830   12.7480 C.3       4 GLC5        0.0000 
     34 CA         16.8645  -12.8788   19.3875 C.3       4 GLC5        0.0000 
     35 CA         16.9230  -14.6440   19.9330 C.3       8 GLP5        0.0000 
     36 CA         11.5457   -9.1141   15.3111 C.3       4 GLC5        0.0000 
     37 CA         11.8280   -8.2480   16.9570 C.3      12 GLL5        0.0000 
     38 CA         11.7660  -10.2670   13.8150 C.3       8 GLP5        0.0000 
     39 CA         10.9402   -6.6224   14.0953 C.3       4 GLC5        0.0000 
     40 CA          9.7850   -7.1070   16.3670 C.3      12 GLL5        0.0000 
     41 CA         10.8590   -6.9810   12.0480 C.3       8 GLP5        0.0000 
     42 CA         10.4552   -5.6910   13.4782 C.3       4 GLC5        0.0000 
     43 CA          9.8730   -4.7240   15.4980 C.3      12 GLL5        0.0000 
     44 CA          7.4642   -4.7935   16.2263 C.3       4 GLC5        0.0000 
     45 CA          5.5640   -5.1830   16.6090 C.3       8 GLP5        0.0000 
@<TRIPOS>BOND
@<TRIPOS>SUBSTRUCTURE
     1 ALC1       10 GROUP        1 X    ALC  0     ROOT ALC X 1
     2 SEC2        4 GROUP        1 X    SEC  0     **** SEC X 2
     3 ASC3       18 GROUP        1 X    ASC  0     **** ASC X 3
     4 GLC5        1 GROUP        1 X    GLC  0     **** GLC X 6
     5 ALP1       12 GROUP        1 Y    ALP  0     ROOT ALP Y 8
     6 SEP2        6 GROUP        1 Y    SEP  0     **** SEP Y 9
     7 ASP3       20 GROUP        1 Y    ASP  0     **** ASP Y 10
     8 GLP5        3 GROUP        1 Y    GLP  0     **** GLP Y 13
     9 ALL1       11 GROUP        1 Z    ALL  0     ROOT ALL Z 15
    10 SEL2        5 GROUP        1 Z    SEL  0     **** SEL Z 16
    11 ASL3       19 GROUP        1 Z    ASL  0     **** ASL Z 17
    12 GLL5        2 GROUP        1 Z    GLL  0     **** GLL Z 20
@<TRIPOS>SET

