#    Name: 3s7l_591_1_ligand
#    Modification time : Tue Mar 25 12:16:02 2014

@<TRIPOS>MOLECULE
3s7l_591_1_ligand
   47    50     1     0     0
SMALL
NO_CHARGES


@<TRIPOS>ATOM
      1 C1         17.5530  -11.1500   18.7230 C.3       1 5911        0.0000 
      2 N1         15.4940  -10.1650   17.9930 N.pl3     1 5911        0.0000 
      3 O1         14.1940   -6.0490   18.9220 O.2       1 5911        0.0000 
      4 C2         16.0590  -11.0770   18.9610 C.3       1 5911        0.0000 
      5 N2         15.3080  -10.5770   16.7340 N.2       1 5911        0.0000 
      6 C3         15.1170   -8.8810   18.2090 C.2       1 5911        0.0000 
      7 N3         15.1850   -5.0630   17.0950 N.am      1 5911        0.0000 
      8 C4         14.6440   -8.4220   17.0050 C.2       1 5911        0.0000 
      9 N4         14.8540   -6.5860   15.4850 N.pl3     1 5911        0.0000 
     10 C5         14.7910   -9.5180   16.1320 C.2       1 5911        0.0000 
     11 N5         16.2330   -4.8690   15.0200 N.pl3     1 5911        0.0000 
     12 C6         14.1210   -7.0650   16.6860 C.3       1 5911        0.0000 
     13 N6          9.6540   -2.9330   13.8610 N.ar      1 5911        0.0000 
     14 C7         14.4900   -6.0280   17.7410 C.2       1 5911        0.0000 
     15 N7          8.2430   -2.9410   15.7830 N.ar      1 5911        0.0000 
     16 C8         15.2950   -5.4200   15.7960 C.cat     1 5911        0.0000 
     17 C9         15.7030   -3.8990   17.7710 C.3       1 5911        0.0000 
     18 C10        12.5900   -7.1210   16.5840 C.ar      1 5911        0.0000 
     19 C11        11.8280   -8.2480   16.9570 C.ar      1 5911        0.0000 
     20 C12        10.4420   -8.2380   16.8440 C.ar      1 5911        0.0000 
     21 C13         9.7850   -7.1070   16.3670 C.ar      1 5911        0.0000 
     22 C14        10.5050   -5.9600   15.9850 C.ar      1 5911        0.0000 
     23 C15        11.8980   -5.9940   16.1090 C.ar      1 5911        0.0000 
     24 C16         9.8730   -4.7240   15.4980 C.ar      1 5911        0.0000 
     25 C17        10.2300   -4.0780   14.3190 C.ar      1 5911        0.0000 
     26 C18         8.6780   -2.4150   14.6260 C.ar      1 5911        0.0000 
     27 C19         8.8560   -4.0840   16.1890 C.ar      1 5911        0.0000 
     28 H          15.8876  -10.7305   19.9787 H         1 5911        0.0000 
     29 H          15.6426  -12.0770   18.8531 H         1 5911        0.0000 
     30 H          15.1654   -8.3942   19.0158 H         1 5911        0.0000 
     31 H          14.9129   -7.1187   14.7159 H         1 5911        0.0000 
     32 H          14.5244   -9.4570   15.1845 H         1 5911        0.0000 
     33 H          16.8485   -4.2200   15.4671 H         1 5911        0.0000 
     34 H          16.2352   -5.1552   14.0618 H         1 5911        0.0000 
     35 H          12.3119   -9.0836   17.3161 H         1 5911        0.0000 
     36 H           9.8987   -9.0702   17.1141 H         1 5911        0.0000 
     37 H           8.7562   -7.1034   16.2901 H         1 5911        0.0000 
     38 H          12.4479   -5.1495   15.8385 H         1 5911        0.0000 
     39 H          11.0097   -4.5196   13.7430 H         1 5911        0.0000 
     40 H           8.2076   -1.5065   14.2843 H         1 5911        0.0000 
     41 H           8.5388   -4.5300   17.1058 H         1 5911        0.0000 
     42 H          17.9898  -10.2565   18.8275 H         1 5911        0.0000 
     43 H          18.0013  -11.7723   19.3647 H         1 5911        0.0000 
     44 H          17.7669  -11.4749   17.8018 H         1 5911        0.0000 
     45 H          16.3469   -4.1459   18.4952 H         1 5911        0.0000 
     46 H          16.1875   -3.2898   17.1432 H         1 5911        0.0000 
     47 H          14.9748   -3.3621   18.1969 H         1 5911        0.0000 
@<TRIPOS>BOND
     1    4    1 1    
     2   42    1 1    
     3   43    1 1    
     4   44    1 1    
     5    4    2 1    
     6    5    2 1    
     7    6    2 1    
     8   14    3 2    
     9   28    4 1    
    10   29    4 1    
    11   10    5 2    
    12    8    6 2    
    13   30    6 1    
    14   14    7 am   
    15   16    7 ar   
    16   17    7 1    
    17   10    8 1    
    18   12    8 1    
    19   12    9 1    
    20   16    9 ar   
    21   31    9 1    
    22   32   10 1    
    23   16   11 ar   
    24   33   11 1    
    25   34   11 1    
    26   14   12 1    
    27   18   12 1    
    28   25   13 ar   
    29   26   13 ar   
    30   26   15 ar   
    31   27   15 ar   
    32   45   17 1    
    33   46   17 1    
    34   47   17 1    
    35   19   18 ar   
    36   23   18 ar   
    37   20   19 ar   
    38   35   19 1    
    39   21   20 ar   
    40   36   20 1    
    41   22   21 ar   
    42   37   21 1    
    43   23   22 ar   
    44   24   22 1    
    45   38   23 1    
    46   25   24 ar   
    47   27   24 ar   
    48   39   25 1    
    49   40   26 1    
    50   41   27 1    
@<TRIPOS>SUBSTRUCTURE
     1 5911        1 GROUP   
@<TRIPOS>SET

