#    Name: 1eh4_IC1_1_INTS_M
#    Modification time : Mon Mar 24 23:56:58 2014

@<TRIPOS>MOLECULE
1eh4_IC1_1_INTS_M
   53     0     6     0     0
SMALL
NO_CHARGES


@<TRIPOS>ATOM
      1 CA        -22.3675   75.2770   65.9605 C.3       2 GLC5        0.0000 
      2 CA        -21.6670   76.7820   67.1200 C.3       6 GLL5        0.0000 
      3 CA        -23.0680   73.7720   64.8010 C.3       4 GLP5        0.0000 
      4 CA        -18.2520   79.4140   69.3220 C.3       2 GLC5        0.0000 
      5 CA        -18.2740   78.3430   67.6790 C.3       6 GLL5        0.0000 
      6 CA        -18.2300   80.4850   70.9650 C.3       4 GLP5        0.0000 
      7 CA        -21.1170   75.5985   65.8100 C.3       2 GLC5        0.0000 
      8 CA        -22.5500   77.0930   66.1370 C.3       6 GLL5        0.0000 
      9 CA        -19.6840   74.1040   65.4830 C.3       4 GLP5        0.0000 
     10 CA        -20.4425   76.0585   64.8360 C.3       2 GLC5        0.0000 
     11 CA        -21.2010   78.0130   64.1890 C.3       6 GLL5        0.0000 
     12 N         -25.5480   80.3670   65.0650 N.am      1 SEC2        0.0000 
     13 N         -24.3690   79.3320   65.6120 N.am      5 SEL2        0.0000 
     14 N         -26.7270   81.4020   64.5180 N.am      3 SEP2        0.0000 
     15 CA        -26.2055   80.0820   66.1395 C.3       2 GLC5        0.0000 
     16 CA        -25.5640   78.6480   65.3430 C.3       6 GLL5        0.0000 
     17 CA        -26.8470   81.5160   66.9360 C.3       4 GLP5        0.0000 
     18 CA        -26.7080   76.8595   65.4145 C.3       2 GLC5        0.0000 
     19 CA        -27.8520   75.0710   65.4860 C.3       4 GLP5        0.0000 
     20 CA        -26.5720   77.4935   66.9440 C.3       2 GLC5        0.0000 
     21 CA        -27.5800   76.3390   68.5450 C.3       4 GLP5        0.0000 
     22 CA        -25.8125   78.1090   63.5610 C.3       2 GLC5        0.0000 
     23 CA        -26.0610   77.5700   61.7790 C.3       4 GLP5        0.0000 
     24 CA        -21.4730   81.8850   61.6195 C.3       2 GLC5        0.0000 
     25 CA        -21.2190   80.4380   60.6870 C.3       6 GLL5        0.0000 
     26 CA        -21.7270   83.3320   62.5520 C.3       4 GLP5        0.0000 
     27 CA        -23.0730   79.4415   60.9665 C.3       2 GLC5        0.0000 
     28 CA        -24.9270   78.4450   61.2460 C.3       4 GLP5        0.0000 
     29 CA        -18.2280   75.7555   64.0730 C.3       2 GLC5        0.0000 
     30 CA        -19.0200   77.0840   63.7130 C.3       6 GLL5        0.0000 
     31 CA        -17.4360   74.4270   64.4330 C.3       4 GLP5        0.0000 
     32 CA        -20.3940   75.9690   63.3675 C.3       2 GLC5        0.0000 
     33 CA        -21.7680   74.8540   63.0220 C.3       4 GLP5        0.0000 
     34 CA        -20.8220   79.1668   68.5815 C.3       2 GLC5        0.0000 
     35 CA        -20.3550   77.2220   67.5160 C.3       6 GLL5        0.0000 
     36 CA        -21.7250   80.6280   69.8810 C.3       4 GLP5        0.0000 
     37 CA        -19.0012   77.9862   70.1690 C.3       2 GLC5        0.0000 
     38 CA        -18.7390   76.5920   69.2660 C.3       6 GLL5        0.0000 
     39 CA        -18.8570   79.2190   71.5140 C.3       4 GLP5        0.0000 
     40 CA        -19.8960   75.5586   66.6955 C.3       2 GLC5        0.0000 
     41 CA        -19.9690   76.4310   68.6330 C.3       6 GLL5        0.0000 
     42 CA        -22.7705   76.1958   64.6388 C.3       2 GLC5        0.0000 
     43 CA        -23.1120   74.7870   63.6820 C.3       4 GLP5        0.0000 
     44 CA        -22.7945   81.0995   65.4788 C.3       2 GLC5        0.0000 
     45 CA        -23.2580   79.1580   64.8330 C.3       6 GLL5        0.0000 
     46 CA        -22.4100   82.5750   66.6450 C.3       4 GLP5        0.0000 
     47 CA        -24.0530   79.0345   62.7793 C.3       2 GLC5        0.0000 
     48 CA        -23.1000   80.0900   63.7920 C.3       6 GLL5        0.0000 
     49 CA        -23.2210   78.9530   62.1480 C.3       2 GLC5        0.0000 
     50 CA        -21.9720   79.9760   62.9380 C.3       6 GLL5        0.0000 
     51 CA        -21.7620   81.4108   62.9078 C.3       2 GLC5        0.0000 
     52 CA        -21.4488   76.6668   63.3487 C.3       2 GLC5        0.0000 
     53 CA        -21.0580   78.9460   63.1620 C.3       6 GLL5        0.0000 
@<TRIPOS>BOND
@<TRIPOS>SUBSTRUCTURE
     1 SEC2       12 GROUP        1 X    SEC  0     ROOT SEC X 2
     2 GLC5        1 GROUP        1 X    GLC  0     **** GLC X 6
     3 SEP2       14 GROUP        1 Y    SEP  0     ROOT SEP Y 9
     4 GLP5        3 GROUP        1 Y    GLP  0     **** GLP Y 13
     5 SEL2       13 GROUP        1 Z    SEL  0     ROOT SEL Z 16
     6 GLL5        2 GROUP        1 Z    GLL  0     **** GLL Z 20
@<TRIPOS>SET

