#    Name: 1eh4_IC1_1_ligand
#    Modification time : Mon Mar 24 23:56:58 2014

@<TRIPOS>MOLECULE
1eh4_IC1_1_ligand
   40    42     1     0     0
SMALL
NO_CHARGES


@<TRIPOS>ATOM
      1 N1        -21.0040   75.5630   68.9010 N.am      1 IC1300      0.0000 
      2 C2        -21.9880   75.7990   67.9930 C.2       1 IC1300      0.0000 
      3 O2        -23.0540   75.1790   67.9680 O.2       1 IC1300      0.0000 
      4 C3        -21.6670   76.7820   67.1200 C.2       1 IC1300      0.0000 
      5 C4        -19.4830   78.1890   67.0480 C.ar      1 IC1300      0.0000 
      6 C5        -18.2740   78.3430   67.6790 C.ar      1 IC1300      0.0000 
      7 C6        -17.9050   77.5600   68.7640 C.ar      1 IC1300      0.0000 
      8 C7        -18.7390   76.5920   69.2660 C.ar      1 IC1300      0.0000 
      9 C8        -19.9690   76.4310   68.6330 C.ar      1 IC1300      0.0000 
     10 C9        -20.3550   77.2220   67.5160 C.ar      1 IC1300      0.0000 
     11 C10       -22.5500   77.0930   66.1370 C.2       1 IC1300      0.0000 
     12 C1'       -22.3080   78.1160   65.0540 C.ar      1 IC1300      0.0000 
     13 C2'       -23.2580   79.1580   64.8330 C.ar      1 IC1300      0.0000 
     14 C3'       -23.1000   80.0900   63.7920 C.ar      1 IC1300      0.0000 
     15 C4'       -21.9720   79.9760   62.9380 C.ar      1 IC1300      0.0000 
     16 C5'       -21.0580   78.9460   63.1620 C.ar      1 IC1300      0.0000 
     17 C6'       -21.2010   78.0130   64.1890 C.ar      1 IC1300      0.0000 
     18 O2'       -24.3690   79.3320   65.6120 O.3       1 IC1300      0.0000 
     19 O4'       -21.7720   80.8530   61.9090 O.3       1 IC1300      0.0000 
     20 O6'       -20.2700   77.0230   64.3540 O.3       1 IC1300      0.0000 
     21 C11       -25.5640   78.6480   65.3430 C.3       1 IC1300      0.0000 
     22 C12       -21.2190   80.4380   60.6870 C.3       1 IC1300      0.0000 
     23 C13       -19.0200   77.0840   63.7130 C.3       1 IC1300      0.0000 
     24 H         -21.0180   74.9154   69.6013 H         1 IC1300      0.0000 
     25 H         -19.7387   78.7736   66.2490 H         1 IC1300      0.0000 
     26 H         -17.6055   79.0710   67.3368 H         1 IC1300      0.0000 
     27 H         -16.9728   77.7154   69.2027 H         1 IC1300      0.0000 
     28 H         -18.4818   76.0191   70.0561 H         1 IC1300      0.0000 
     29 H         -23.4866   76.6203   66.0737 H         1 IC1300      0.0000 
     30 H         -23.7749   80.8308   63.6492 H         1 IC1300      0.0000 
     31 H         -20.2257   78.8699   62.5295 H         1 IC1300      0.0000 
     32 H         -25.4422   77.6564   65.3863 H         1 IC1300      0.0000 
     33 H         -26.2824   78.8839   65.9975 H         1 IC1300      0.0000 
     34 H         -25.9165   78.8605   64.4316 H         1 IC1300      0.0000 
     35 H         -20.3040   80.0524   60.8053 H         1 IC1300      0.0000 
     36 H         -21.7781   79.7361   60.2457 H         1 IC1300      0.0000 
     37 H         -21.1362   81.1962   60.0403 H         1 IC1300      0.0000 
     38 H         -18.5049   77.8984   63.9803 H         1 IC1300      0.0000 
     39 H         -18.4507   76.2918   63.9330 H         1 IC1300      0.0000 
     40 H         -19.1139   77.1101   62.7178 H         1 IC1300      0.0000 
@<TRIPOS>BOND
     1    2    1 am   
     2    9    1 1    
     3   24    1 1    
     4    3    2 2    
     5    4    2 1    
     6   10    4 1    
     7   11    4 2    
     8    6    5 ar   
     9   10    5 ar   
    10   25    5 1    
    11    7    6 ar   
    12   26    6 1    
    13    8    7 ar   
    14   27    7 1    
    15    9    8 ar   
    16   28    8 1    
    17   10    9 ar   
    18   12   11 1    
    19   29   11 1    
    20   13   12 ar   
    21   17   12 ar   
    22   14   13 ar   
    23   18   13 1    
    24   15   14 ar   
    25   30   14 1    
    26   16   15 ar   
    27   19   15 1    
    28   17   16 ar   
    29   31   16 1    
    30   20   17 1    
    31   21   18 1    
    32   22   19 1    
    33   23   20 1    
    34   32   21 1    
    35   33   21 1    
    36   34   21 1    
    37   35   22 1    
    38   36   22 1    
    39   37   22 1    
    40   38   23 1    
    41   39   23 1    
    42   40   23 1    
@<TRIPOS>SUBSTRUCTURE
     1 IC1300      1 GROUP   
@<TRIPOS>SET

