#    Name: 3h0s_B38_2_INTS_M
#    Modification time : Tue Mar 25 13:26:35 2014

@<TRIPOS>MOLECULE
3h0s_B38_2_INTS_M
   58     0     9     0     0
SMALL
NO_CHARGES


@<TRIPOS>ATOM
      1 CA         40.0445  -33.9370   60.8450 C.3       3 GLC5        0.0000 
      2 CA         39.2700  -35.0090   62.5330 C.3       9 GLL5        0.0000 
      3 CA         40.8190  -32.8650   59.1570 C.3       6 GLP5        0.0000 
      4 CA         36.5570  -36.3325   57.2220 C.3       3 GLC5        0.0000 
      5 CA         36.2250  -37.9230   58.7740 C.3       9 GLL5        0.0000 
      6 CA         36.8890  -34.7420   55.6700 C.3       6 GLP5        0.0000 
      7 CA         39.1990  -32.3095   64.1325 C.3       3 GLC5        0.0000 
      8 CA         38.4810  -34.3700   63.7240 C.3       9 GLL5        0.0000 
      9 CA         39.9170  -30.2490   64.5410 C.3       6 GLP5        0.0000 
     10 CA         32.6255  -37.0225   56.3255 C.3       3 GLC5        0.0000 
     11 CA         33.8880  -38.1080   57.6550 C.3       9 GLL5        0.0000 
     12 CA         31.3630  -35.9370   54.9960 C.3       6 GLP5        0.0000 
     13 CA         40.0580  -34.8330   59.9250 C.3       3 GLC5        0.0000 
     14 CA         39.2970  -36.8010   60.6930 C.3       9 GLL5        0.0000 
     15 CA         36.2615  -33.4245   60.4860 C.3       3 GLC5        0.0000 
     16 CA         35.4610  -35.4500   59.9640 C.3       9 GLL5        0.0000 
     17 CA         37.0620  -31.3990   61.0080 C.3       6 GLP5        0.0000 
     18 N          39.3510  -39.4085   58.1855 N.am      2 SEC2        0.0000 
     19 N          38.8090  -38.9200   59.4590 N.am      8 SEL2        0.0000 
     20 N          39.8930  -39.8970   56.9120 N.am      5 SEP2        0.0000 
     21 CA         40.7190  -36.6520   67.9735 C.3       3 GLC5        0.0000 
     22 CA         38.9410  -37.5000   67.4410 C.3       9 GLL5        0.0000 
     23 CA         42.4970  -35.8040   68.5060 C.3       6 GLP5        0.0000 
     24 CA         36.6595  -40.2065   69.8345 C.3       3 GLC5        0.0000 
     25 CA         37.2730  -38.6230   68.7660 C.3       9 GLL5        0.0000 
     26 CA         36.0460  -41.7900   70.9030 C.3       6 GLP5        0.0000 
     27 O          35.6305  -34.6605   66.5060 O.2       1 ALC1        0.0000 
     28 O          35.6180  -35.8240   67.3280 O.2       7 ALL1        0.0000 
     29 O          35.6430  -33.4970   65.6840 O.2       4 ALP1        0.0000 
     30 N          39.1800  -33.5050   67.6380 N.am      2 SEC2        0.0000 
     31 N          39.1750  -34.4680   66.5000 N.am      8 SEL2        0.0000 
     32 N          39.1850  -32.5420   68.7760 N.am      5 SEP2        0.0000 
     33 CA         37.9688  -33.0443   62.0682 C.3       3 GLC5        0.0000 
     34 CA         35.7285  -34.6168   58.5875 C.3       3 GLC5        0.0000 
     35 CA         36.6730  -35.9510   60.1620 C.3       9 GLL5        0.0000 
     36 CA         35.3900  -33.5330   57.1120 C.3       6 GLP5        0.0000 
     37 CA         36.3028  -38.1615   62.6827 C.3       3 GLC5        0.0000 
     38 CA         37.9090  -37.0500   62.7860 C.3       9 GLL5        0.0000 
     39 CA         34.9990  -39.5410   61.9130 C.3       6 GLP5        0.0000 
     40 CA         37.8448  -37.7995   57.4273 C.3       3 GLC5        0.0000 
     41 CA         37.0760  -37.2410   59.5310 C.3       9 GLL5        0.0000 
     42 CA         39.0390  -38.0170   55.7020 C.3       6 GLP5        0.0000 
     43 CA         35.7744  -38.4002   60.6116 C.3       3 GLC5        0.0000 
     44 CA         40.0846  -37.8327   62.2235 C.3       3 GLC5        0.0000 
     45 CA         38.4380  -36.0370   61.7310 C.3       9 GLL5        0.0000 
     46 CA         41.7810  -38.9310   62.4480 C.3       6 GLP5        0.0000 
     47 CA         35.0335  -35.1547   57.9650 C.3       3 GLC5        0.0000 
     48 CA         34.4960  -36.2000   59.1000 C.3       9 GLL5        0.0000 
     49 CA         34.2676  -37.5035   60.6125 C.3       3 GLC5        0.0000 
     50 CA         33.6170  -38.4180   62.1910 C.3       6 GLP5        0.0000 
     51 CA         37.0597  -34.5875   67.7395 C.3       3 GLC5        0.0000 
     52 CA         36.7140  -36.5880   67.5070 C.3       9 GLL5        0.0000 
     53 CA         36.7480  -32.6290   68.2130 C.3       6 GLP5        0.0000 
     54 CA         38.4154  -39.9809   67.4274 C.3       3 GLC5        0.0000 
     55 CA         38.5800  -38.5490   68.2980 C.3       9 GLL5        0.0000 
     56 CA         38.8140  -41.6380   66.5370 C.3       6 GLP5        0.0000 
     57 CA         37.7683  -37.2186   69.6645 C.3       3 GLC5        0.0000 
     58 CA         37.8890  -36.8700   71.4260 C.3       6 GLP5        0.0000 
@<TRIPOS>BOND
@<TRIPOS>SUBSTRUCTURE
     1 ALC1       27 GROUP        1 X    ALC  0     ROOT ALC X 1
     2 SEC2       18 GROUP        1 X    SEC  0     **** SEC X 2
     3 GLC5        1 GROUP        1 X    GLC  0     **** GLC X 6
     4 ALP1       29 GROUP        1 Y    ALP  0     ROOT ALP Y 8
     5 SEP2       20 GROUP        1 Y    SEP  0     **** SEP Y 9
     6 GLP5        3 GROUP        1 Y    GLP  0     **** GLP Y 13
     7 ALL1       28 GROUP        1 Z    ALL  0     ROOT ALL Z 15
     8 SEL2       19 GROUP        1 Z    SEL  0     **** SEL Z 16
     9 GLL5        2 GROUP        1 Z    GLL  0     **** GLL Z 20
@<TRIPOS>SET

