#    Name: 3h0s_B38_2_ligand
#    Modification time : Tue Mar 25 13:26:35 2014

@<TRIPOS>MOLECULE
3h0s_B38_2_ligand
   49    53     1     0     0
SMALL
NO_CHARGES


@<TRIPOS>ATOM
      1 C4         39.2700  -35.0090   62.5330 C.3       1 B38102      0.0000 
      2 C7         38.4520  -37.7700   59.8260 C.2       1 B38102      0.0000 
      3 C6         36.6730  -35.9510   60.1620 C.ar      1 B38102      0.0000 
      4 C9         37.3040  -36.5140   64.1190 C.3       1 B38102      0.0000 
      5 C13        36.2250  -37.9230   58.7740 C.ar      1 B38102      0.0000 
      6 C8         38.4810  -34.3700   63.7240 C.3       1 B38102      0.0000 
      7 C16        33.8880  -38.1080   57.6550 C.3       1 B38102      0.0000 
      8 C1         38.4380  -36.0370   61.7310 C.3       1 B38102      0.0000 
      9 O2         37.4760  -35.2630   60.9490 O.3       1 B38102      0.0000 
     10 C3         39.2970  -36.8010   60.6930 C.3       1 B38102      0.0000 
     11 C5         37.9090  -37.0500   62.7860 C.3       1 B38102      0.0000 
     12 C10        37.0760  -37.2410   59.5310 C.ar      1 B38102      0.0000 
     13 C11        35.4610  -35.4500   59.9640 C.ar      1 B38102      0.0000 
     14 O12        38.8090  -38.9200   59.4590 O.2       1 B38102      0.0000 
     15 C14        34.4960  -36.2000   59.1000 C.ar      1 B38102      0.0000 
     16 C15        34.8580  -37.3530   58.5360 C.ar      1 B38102      0.0000 
     17 N27        38.1310  -35.4270   64.7160 N.am      1 B38102      0.0000 
     18 C20        38.0290  -36.5040   67.0250 C.ar      1 B38102      0.0000 
     19 C21        36.3490  -37.6360   68.3820 C.ar      1 B38102      0.0000 
     20 C18        38.5800  -38.5490   68.2980 C.ar      1 B38102      0.0000 
     21 C19        38.9410  -37.5000   67.4410 C.ar      1 B38102      0.0000 
     22 C26        38.4700  -35.3950   66.0680 C.2       1 B38102      0.0000 
     23 C17        37.2730  -38.6230   68.7660 C.ar      1 B38102      0.0000 
     24 C22        36.7140  -36.5880   67.5070 C.ar      1 B38102      0.0000 
     25 N23        35.6180  -35.8240   67.3280 N.pl3     1 B38102      0.0000 
     26 N24        34.6110  -36.3310   68.0200 N.2       1 B38102      0.0000 
     27 C25        35.0070  -37.4340   68.6810 C.2       1 B38102      0.0000 
     28 O28        39.1750  -34.4680   66.5000 O.2       1 B38102      0.0000 
     29 H          40.1603  -35.5016   62.9328 H         1 B38102      0.0000 
     30 H          39.5931  -34.2079   61.8629 H         1 B38102      0.0000 
     31 H          37.2216  -37.3583   64.8125 H         1 B38102      0.0000 
     32 H          36.2918  -36.1528   63.9057 H         1 B38102      0.0000 
     33 H          36.4185  -38.8145   58.3315 H         1 B38102      0.0000 
     34 H          37.5873  -33.9075   63.3214 H         1 B38102      0.0000 
     35 H          39.1126  -33.6126   64.1737 H         1 B38102      0.0000 
     36 H          39.7883  -36.0793   60.0394 H         1 B38102      0.0000 
     37 H          40.0623  -37.3733   61.2186 H         1 B38102      0.0000 
     38 H          37.1388  -37.6967   62.2922 H         1 B38102      0.0000 
     39 H          38.7430  -37.7527   63.0428 H         1 B38102      0.0000 
     40 H          35.1186  -34.5765   60.3581 H         1 B38102      0.0000 
     41 H          33.5750  -35.7676   58.9863 H         1 B38102      0.0000 
     42 H          39.2722  -39.2474   68.5720 H         1 B38102      0.0000 
     43 H          39.9224  -37.4484   67.0934 H         1 B38102      0.0000 
     44 H          36.9810  -39.3828   69.3818 H         1 B38102      0.0000 
     45 H          35.5868  -35.0220   66.7702 H         1 B38102      0.0000 
     46 H          34.4862  -37.9894   69.2521 H         1 B38102      0.0000 
     47 H          34.2453  -38.2306   56.7291 H         1 B38102      0.0000 
     48 H          33.6905  -39.0194   58.0160 H         1 B38102      0.0000 
     49 H          33.0135  -37.6303   57.5709 H         1 B38102      0.0000 
@<TRIPOS>BOND
     1    6    1 1    
     2    8    1 1    
     3   29    1 1    
     4   30    1 1    
     5   10    2 1    
     6   12    2 1    
     7   14    2 2    
     8    9    3 1    
     9   12    3 ar   
    10   13    3 ar   
    11   11    4 1    
    12   17    4 1    
    13   31    4 1    
    14   32    4 1    
    15   12    5 ar   
    16   16    5 ar   
    17   33    5 1    
    18   17    6 1    
    19   34    6 1    
    20   35    6 1    
    21   16    7 1    
    22   47    7 1    
    23   48    7 1    
    24   49    7 1    
    25    9    8 1    
    26   10    8 1    
    27   11    8 1    
    28   36   10 1    
    29   37   10 1    
    30   38   11 1    
    31   39   11 1    
    32   15   13 ar   
    33   40   13 1    
    34   16   15 ar   
    35   41   15 1    
    36   22   17 am   
    37   21   18 ar   
    38   22   18 1    
    39   24   18 ar   
    40   23   19 ar   
    41   24   19 ar   
    42   27   19 1    
    43   21   20 ar   
    44   23   20 ar   
    45   42   20 1    
    46   43   21 1    
    47   28   22 2    
    48   44   23 1    
    49   25   24 1    
    50   26   25 1    
    51   45   25 1    
    52   27   26 2    
    53   46   27 1    
@<TRIPOS>SUBSTRUCTURE
     1 B38102      1 GROUP   
@<TRIPOS>SET

