#    Name: 3vhe_42Q_1_INTS_M
#    Modification time : Tue Mar 25 00:50:22 2014

@<TRIPOS>MOLECULE
3vhe_42Q_1_INTS_M
  108     0     9     0     0
SMALL
NO_CHARGES


@<TRIPOS>ATOM
      1 CA        -20.7845    4.2770  -12.9635 C.3       3 GLC5        0.0000 
      2 CA        -20.6780    2.5390  -14.1850 C.3       9 GLL5        0.0000 
      3 CA        -20.8910    6.0150  -11.7420 C.3       6 GLP5        0.0000 
      4 N         -21.6760    4.8880  -14.0590 N.am      2 SEC2        0.0000 
      5 N         -21.7270    3.4780  -14.0570 N.am      8 SEL2        0.0000 
      6 N         -21.6250    6.2980  -14.0610 N.am      5 SEP2        0.0000 
      7 CA        -23.3785    2.4205  -15.2885 C.3       3 GLC5        0.0000 
      8 CA        -22.9850    2.8900  -13.6920 C.3       9 GLL5        0.0000 
      9 CA        -23.7720    1.9510  -16.8850 C.3       6 GLP5        0.0000 
     10 CA        -24.8055    2.3615  -14.0190 C.3       3 GLC5        0.0000 
     11 CA        -26.6260    1.8330  -14.3460 C.3       6 GLP5        0.0000 
     12 CA        -23.1255    4.6100  -14.7715 C.3       3 GLC5        0.0000 
     13 CA        -23.2660    6.3300  -15.8510 C.3       6 GLP5        0.0000 
     14 CA        -22.7735    4.4875  -12.3680 C.3       3 GLC5        0.0000 
     15 CA        -22.5620    6.0850  -11.0440 C.3       6 GLP5        0.0000 
     16 CA        -22.5170    2.5045  -11.9795 C.3       3 GLC5        0.0000 
     17 CA        -22.0490    2.1190  -10.2670 C.3       6 GLP5        0.0000 
     18 CA        -22.0335    1.3725  -11.9540 C.3       3 GLC5        0.0000 
     19 CA        -22.0180    0.6260  -13.6410 C.3       9 GLL5        0.0000 
     20 CA        -18.7540   -0.6400  -15.9355 C.3       3 GLC5        0.0000 
     21 CA        -19.1690   -0.8340  -14.1030 C.3       9 GLL5        0.0000 
     22 CA        -18.3390   -0.4460  -17.7680 C.3       6 GLP5        0.0000 
     23 CA        -20.7235   -1.2200  -15.4280 C.3       3 GLC5        0.0000 
     24 CA        -22.2780   -1.6060  -16.7530 C.3       6 GLP5        0.0000 
     25 CA        -18.8475   -1.6325  -12.5575 C.3       3 GLC5        0.0000 
     26 CA        -18.5260   -2.4310  -11.0120 C.3       6 GLP5        0.0000 
     27 CA        -22.6210   -1.3830   -9.7305 C.3       3 GLC5        0.0000 
     28 CA        -23.1630   -1.8300  -11.5210 C.3       9 GLL5        0.0000 
     29 CA        -22.0790   -0.9360   -7.9400 C.3       6 GLP5        0.0000 
     30 CA        -24.0440   -1.3715   -9.3435 C.3       3 GLC5        0.0000 
     31 CA        -24.3060   -2.4190  -10.8890 C.3       9 GLL5        0.0000 
     32 CA        -23.7820   -0.3240   -7.7980 C.3       6 GLP5        0.0000 
     33 CA        -25.6140   -2.6950  -14.7100 C.3       3 GLC5        0.0000 
     34 CA        -24.5820   -1.1690  -13.4980 C.3       9 GLL5        0.0000 
     35 CA        -26.6460   -4.2210  -15.9220 C.3       6 GLP5        0.0000 
     36 O         -27.5560   -4.1320  -11.0980 O.2       1 ALC1        0.0000 
     37 O         -26.6790   -2.9510  -11.0040 O.2       7 ALL1        0.0000 
     38 O         -28.4330   -5.3130  -11.1920 O.2       4 ALP1        0.0000 
     39 O         -28.2540   -4.4080  -10.2430 O.2       1 ALC1        0.0000 
     40 O         -28.0750   -3.5030   -9.2940 O.2       7 ALL1        0.0000 
     41 N         -25.4170   -2.5505   -7.9985 N.am      2 SEC2        0.0000 
     42 N         -26.3220   -2.0400   -8.9630 N.am      8 SEL2        0.0000 
     43 N         -24.5120   -3.0610   -7.0340 N.am      5 SEP2        0.0000 
     44 CA        -26.7775   -2.9920  -14.6670 C.3       3 GLC5        0.0000 
     45 CA        -26.9090   -1.7630  -13.4120 C.3       9 GLL5        0.0000 
     46 CA        -28.9845   -2.0565  -14.1460 C.3       3 GLC5        0.0000 
     47 CA        -31.0600   -2.3500  -14.8800 C.3       6 GLP5        0.0000 
     48 CA        -27.9145   -0.3305  -13.5380 C.3       3 GLC5        0.0000 
     49 CA        -28.9200    1.1020  -13.6640 C.3       6 GLP5        0.0000 
     50 CA        -31.2380   -2.7400   -4.8280 C.3       3 GLC5        0.0000 
     51 CA        -29.5760   -3.8650   -5.2960 C.3       9 GLL5        0.0000 
     52 CA        -32.9000   -1.6150   -4.3600 C.3       6 GLP5        0.0000 
     53 CA        -28.0790   -0.7910   -7.7400 C.3       3 GLC5        0.0000 
     54 CA        -28.1690   -2.6050   -6.9880 C.3       9 GLL5        0.0000 
     55 CA        -27.9890    1.0230   -8.4920 C.3       6 GLP5        0.0000 
     56 CA        -26.3290   -1.6550   -6.7405 C.3       3 GLC5        0.0000 
     57 CA        -24.4890   -0.7050   -6.4930 C.3       6 GLP5        0.0000 
     58 CA        -30.0010   -0.7570   -6.7920 C.3       3 GLC5        0.0000 
     59 CA        -28.8140   -0.5380   -4.9040 C.3       9 GLL5        0.0000 
     60 CA        -31.1880   -0.9760   -8.6800 C.3       6 GLP5        0.0000 
     61 CA        -30.8570   -1.0765   -4.6320 C.3       3 GLC5        0.0000 
     62 CA        -29.1995    1.1400   -4.9630 C.3       3 GLC5        0.0000 
     63 CA        -29.5850    2.8180   -5.0220 C.3       6 GLP5        0.0000 
     64 CA        -28.4015    0.2425   -6.6980 C.3       3 GLC5        0.0000 
     65 CA        -26.2025   -3.4265   -5.3360 C.3       3 GLC5        0.0000 
     66 CA        -26.9990   -1.6490   -4.4650 C.3       9 GLL5        0.0000 
     67 CA        -25.4060   -5.2040   -6.2070 C.3       6 GLP5        0.0000 
     68 CA        -30.8640   -1.8460   -3.8780 C.3       3 GLC5        0.0000 
     69 CA        -28.8280   -2.0770   -3.3960 C.3       9 GLL5        0.0000 
     70 CA        -30.0700   -1.5115   -2.2270 C.3       3 GLC5        0.0000 
     71 CA        -31.3120   -0.9460   -1.0580 C.3       6 GLP5        0.0000 
     72 CA        -21.8430   -0.3605  -15.2822 C.3       3 GLC5        0.0000 
     73 CA        -20.7980    1.1440  -13.9820 C.3       9 GLL5        0.0000 
     74 CA        -22.5750    1.5924  -15.3736 C.3       3 GLC5        0.0000 
     75 CA        -17.5765    2.7960  -13.2425 C.3       3 GLC5        0.0000 
     76 CA        -18.6960    1.6110  -14.5090 C.3       9 GLL5        0.0000 
     77 CA        -16.1280    3.3780  -11.9740 C.3       6 GLP5        0.0000 
     78 CA        -22.6375    0.2998  -11.2205 C.3       3 GLC5        0.0000 
     79 CA        -23.2890   -1.2090  -12.8270 C.3       9 GLL5        0.0000 
     80 CA        -22.9952   -3.9463  -10.5195 C.3       3 GLC5        0.0000 
     81 CA        -22.2560   -5.7680   -9.8340 C.3       6 GLP5        0.0000 
     82 CA        -25.9520   -3.7340  -12.9767 C.3       3 GLC5        0.0000 
     83 CA        -25.5800   -2.3780  -11.5670 C.3       9 GLL5        0.0000 
     84 CA        -26.2670   -5.4030  -13.7410 C.3       6 GLP5        0.0000 
     85 CA        -25.8820    0.1862  -13.7620 C.3       3 GLC5        0.0000 
     86 CA        -25.6940   -1.7520  -12.8580 C.3       9 GLL5        0.0000 
     87 CA        -23.1400   -2.5391  -14.1410 C.3       3 GLC5        0.0000 
     88 CA        -22.3760   -3.7340  -15.4460 C.3       6 GLP5        0.0000 
     89 CA        -29.8190   -5.0782   -9.3835 C.3       3 GLC5        0.0000 
     90 CA        -28.5160   -3.5970   -7.9810 C.3       9 GLL5        0.0000 
     91 CA        -30.6890   -6.0040  -10.9660 C.3       6 GLP5        0.0000 
     92 CA        -30.0685   -2.5643   -8.2405 C.3       3 GLC5        0.0000 
     93 CA        -29.3820   -4.7080   -7.6210 C.3       9 GLL5        0.0000 
     94 CA        -31.6380   -5.0615   -7.0755 C.3       3 GLC5        0.0000 
     95 CA        -33.6300   -5.3490   -7.1980 C.3       6 GLP5        0.0000 
     96 CA        -27.2720   -4.2523   -5.8347 C.3       3 GLC5        0.0000 
     97 CA        -29.8113   -1.8233   -7.4942 C.3       3 GLC5        0.0000 
     98 CA        -28.7000   -2.7360   -5.6290 C.3       9 GLL5        0.0000 
     99 CA        -26.9825   -4.2914   -6.8007 C.3       3 GLC5        0.0000 
    100 CA        -26.3235   -0.7150   -3.4743 C.3       3 GLC5        0.0000 
    101 CA        -24.9880    0.2430   -2.4460 C.3       6 GLP5        0.0000 
    102 CA        -26.0740   -1.1890   -5.4977 C.3       3 GLC5        0.0000 
    103 CA        -26.8223   -2.4415   -2.7806 C.3       3 GLC5        0.0000 
    104 CA        -25.4010   -3.0080   -1.6120 C.3       6 GLP5        0.0000 
    105 CA        -19.9143    1.7199  -16.2101 C.3       3 GLC5        0.0000 
    106 CA        -19.9470    1.4120  -18.1230 C.3       6 GLP5        0.0000 
    107 CA        -19.7347    1.8354  -12.3031 C.3       3 GLC5        0.0000 
    108 CA        -19.5880    1.6430  -10.3090 C.3       6 GLP5        0.0000 
@<TRIPOS>BOND
@<TRIPOS>SUBSTRUCTURE
     1 ALC1       36 GROUP        1 X    ALC  0     ROOT ALC X 1
     2 SEC2        4 GROUP        1 X    SEC  0     **** SEC X 2
     3 GLC5        1 GROUP        1 X    GLC  0     **** GLC X 6
     4 ALP1       38 GROUP        1 Y    ALP  0     ROOT ALP Y 8
     5 SEP2        6 GROUP        1 Y    SEP  0     **** SEP Y 9
     6 GLP5        3 GROUP        1 Y    GLP  0     **** GLP Y 13
     7 ALL1       37 GROUP        1 Z    ALL  0     ROOT ALL Z 15
     8 SEL2        5 GROUP        1 Z    SEL  0     **** SEL Z 16
     9 GLL5        2 GROUP        1 Z    GLL  0     **** GLL Z 20
@<TRIPOS>SET

