#    Name: 3vhe_42Q_1_ligand
#    Modification time : Tue Mar 25 00:50:22 2014

@<TRIPOS>MOLECULE
3vhe_42Q_1_ligand
   47    50     1     0     0
SMALL
NO_CHARGES


@<TRIPOS>ATOM
      1 C1        -20.6780    2.5390  -14.1850 C.ar      1 42Q1170     0.0000 
      2 N2        -21.7270    3.4780  -14.0570 N.ar      1 42Q1170     0.0000 
      3 C3        -22.9850    2.8900  -13.6920 C.ar      1 42Q1170     0.0000 
      4 N4        -23.1220    1.4970  -13.4870 N.ar      1 42Q1170     0.0000 
      5 C5        -22.0180    0.6260  -13.6410 C.ar      1 42Q1170     0.0000 
      6 C6        -20.7980    1.1440  -13.9820 C.ar      1 42Q1170     0.0000 
      7 N8        -19.5290    0.5860  -14.1970 N.pl3     1 42Q1170     0.0000 
      8 C9        -18.6960    1.6110  -14.5090 C.2       1 42Q1170     0.0000 
      9 C10       -19.3540    2.8170  -14.5130 C.2       1 42Q1170     0.0000 
     10 C11       -19.1690   -0.8340  -14.1030 C.3       1 42Q1170     0.0000 
     11 O17       -22.1300   -0.7600  -13.4810 O.3       1 42Q1170     0.0000 
     12 C18       -23.2890   -1.2090  -12.8270 C.ar      1 42Q1170     0.0000 
     13 C19       -23.1630   -1.8300  -11.5210 C.ar      1 42Q1170     0.0000 
     14 C20       -24.3060   -2.4190  -10.8890 C.ar      1 42Q1170     0.0000 
     15 C21       -25.5800   -2.3780  -11.5670 C.ar      1 42Q1170     0.0000 
     16 C22       -25.6940   -1.7520  -12.8580 C.ar      1 42Q1170     0.0000 
     17 C23       -24.5820   -1.1690  -13.4980 C.ar      1 42Q1170     0.0000 
     18 N27       -26.6790   -2.9510  -11.0040 N.am      1 42Q1170     0.0000 
     19 C28       -26.9740   -2.7780   -9.7050 C.2       1 42Q1170     0.0000 
     20 N29       -28.0750   -3.5030   -9.2940 N.am      1 42Q1170     0.0000 
     21 C30       -28.5160   -3.5970   -7.9810 C.ar      1 42Q1170     0.0000 
     22 O31       -26.3220   -2.0400   -8.9630 O.2       1 42Q1170     0.0000 
     23 F34       -26.9090   -1.7630  -13.4120 F         1 42Q1170     0.0000 
     24 C35       -29.3820   -4.7080   -7.6210 C.ar      1 42Q1170     0.0000 
     25 C36       -29.9100   -4.8400   -6.2850 C.ar      1 42Q1170     0.0000 
     26 C37       -29.5760   -3.8650   -5.2960 C.ar      1 42Q1170     0.0000 
     27 C38       -28.7000   -2.7360   -5.6290 C.ar      1 42Q1170     0.0000 
     28 C39       -28.1690   -2.6050   -6.9880 C.ar      1 42Q1170     0.0000 
     29 C44       -28.3190   -1.6970   -4.5400 C.3       1 42Q1170     0.0000 
     30 F45       -28.8140   -0.5380   -4.9040 F         1 42Q1170     0.0000 
     31 F46       -26.9990   -1.6490   -4.4650 F         1 42Q1170     0.0000 
     32 F47       -28.8280   -2.0770   -3.3960 F         1 42Q1170     0.0000 
     33 H         -23.8020    3.5048  -13.5789 H         1 42Q1170     0.0000 
     34 H         -17.7408    1.5124  -14.7085 H         1 42Q1170     0.0000 
     35 H         -18.9935    3.6635  -14.6981 H         1 42Q1170     0.0000 
     36 H         -22.2604   -1.8427  -11.0617 H         1 42Q1170     0.0000 
     37 H         -24.2272   -2.8556   -9.9868 H         1 42Q1170     0.0000 
     38 H         -24.6565   -0.7296  -14.3984 H         1 42Q1170     0.0000 
     39 H         -27.3067   -3.5414  -11.6066 H         1 42Q1170     0.0000 
     40 H         -28.6277   -4.0290  -10.0355 H         1 42Q1170     0.0000 
     41 H         -29.6169   -5.4019   -8.3271 H         1 42Q1170     0.0000 
     42 H         -30.5113   -5.6189   -6.0568 H         1 42Q1170     0.0000 
     43 H         -29.9381   -3.9385   -4.3527 H         1 42Q1170     0.0000 
     44 H         -27.5731   -1.8340   -7.2182 H         1 42Q1170     0.0000 
     45 H         -18.1996   -0.9850  -14.2968 H         1 42Q1170     0.0000 
     46 H         -19.3463   -1.2025  -13.1904 H         1 42Q1170     0.0000 
     47 H         -19.6878   -1.3923  -14.7504 H         1 42Q1170     0.0000 
@<TRIPOS>BOND
     1    2    1 ar   
     2    6    1 ar   
     3    9    1 1    
     4    3    2 ar   
     5    4    3 ar   
     6   33    3 1    
     7    5    4 ar   
     8    6    5 ar   
     9   11    5 1    
    10    7    6 1    
    11    8    7 1    
    12   10    7 1    
    13    9    8 2    
    14   34    8 1    
    15   35    9 1    
    16   45   10 1    
    17   46   10 1    
    18   47   10 1    
    19   12   11 1    
    20   13   12 ar   
    21   17   12 ar   
    22   14   13 ar   
    23   36   13 1    
    24   15   14 ar   
    25   37   14 1    
    26   16   15 ar   
    27   18   15 1    
    28   17   16 ar   
    29   23   16 1    
    30   38   17 1    
    31   19   18 am   
    32   39   18 1    
    33   20   19 am   
    34   22   19 2    
    35   21   20 1    
    36   40   20 1    
    37   24   21 ar   
    38   28   21 ar   
    39   25   24 ar   
    40   41   24 1    
    41   26   25 ar   
    42   42   25 1    
    43   27   26 ar   
    44   43   26 1    
    45   28   27 ar   
    46   29   27 1    
    47   44   28 1    
    48   30   29 1    
    49   31   29 1    
    50   32   29 1    
@<TRIPOS>SUBSTRUCTURE
     1 42Q1170     1 GROUP   
@<TRIPOS>SET

