#    Name: 3b70_NAP_1_INTS_M
#    Modification time : Mon Mar 24 19:05:00 2014

@<TRIPOS>MOLECULE
3b70_NAP_1_INTS_M
   75     0     9     0     0
SMALL
NO_CHARGES


@<TRIPOS>ATOM
      1 N          37.4435  -16.0550   72.9655 N.am      2 SEC2        0.0000 
      2 N          38.2790  -14.8880   72.4090 N.am      8 SEL2        0.0000 
      3 N          36.6080  -17.2220   73.5220 N.am      5 SEP2        0.0000 
      4 CA         36.6500   -9.8780   74.1560 C.3       3 GLC5        0.0000 
      5 CA         37.8740  -10.6800   75.6540 C.3       9 GLL5        0.0000 
      6 CA         35.4260   -9.0760   72.6580 C.3       6 GLP5        0.0000 
      7 N          35.4750   -9.5540   74.9625 N.am      2 SEC2        0.0000 
      8 N          36.5200  -10.8470   75.2260 N.am      8 SEL2        0.0000 
      9 N          34.4300   -8.2610   74.6990 N.am      5 SEP2        0.0000 
     10 N          35.2565  -10.9320   74.0250 N.am      2 SEC2        0.0000 
     11 N          33.9930  -11.0170   72.8240 N.am      5 SEP2        0.0000 
     12 O          35.4580  -11.6265   76.2525 O.2       1 ALC1        0.0000 
     13 O          36.5200  -10.8470   75.2260 O.2       7 ALL1        0.0000 
     14 O          34.3960  -12.4060   77.2790 O.2       4 ALP1        0.0000 
     15 CA         39.7815  -12.5080   78.7790 C.3       3 GLC5        0.0000 
     16 CA         38.8690  -11.1240   77.8420 C.3       9 GLL5        0.0000 
     17 CA         40.6940  -13.8920   79.7160 C.3       6 GLP5        0.0000 
     18 CA         40.5275  -12.3280   81.6555 C.3       3 GLC5        0.0000 
     19 CA         40.0300  -10.4360   82.0910 C.3       9 GLL5        0.0000 
     20 CA         41.0250  -14.2200   81.2200 C.3       6 GLP5        0.0000 
     21 CA         40.4945  -12.1400   79.7305 C.3       3 GLC5        0.0000 
     22 CA         40.2950  -10.3880   79.7450 C.3       9 GLL5        0.0000 
     23 N          38.2585  -16.6980   73.6895 N.am      2 SEC2        0.0000 
     24 N          39.9090  -16.1740   73.8570 N.am      8 SEL2        0.0000 
     25 N          38.6220  -19.2485   74.1025 N.am      2 SEC2        0.0000 
     26 N          39.9000  -18.5910   74.1690 N.am      8 SEL2        0.0000 
     27 N          37.3440  -19.9060   74.0360 N.am      5 SEP2        0.0000 
     28 N          39.9085  -19.8805   74.2500 N.am      2 SEC2        0.0000 
     29 N          39.9170  -21.1700   74.3310 N.am      5 SEP2        0.0000 
     30 CA         40.0520  -16.8790   75.9210 C.3       3 GLC5        0.0000 
     31 CA         42.2230  -17.0820   75.4390 C.3       9 GLL5        0.0000 
     32 CA         37.8810  -16.6760   76.4030 C.3       6 GLP5        0.0000 
     33 N          47.2225  -16.4610   75.1710 N.am      2 SEC2        0.0000 
     34 N          45.7590  -16.3560   75.7440 N.am      8 SEL2        0.0000 
     35 N          48.6860  -16.5660   74.5980 N.am      5 SEP2        0.0000 
     36 N          46.6535  -17.0475   76.6340 N.am      2 SEC2        0.0000 
     37 N          47.5480  -17.7390   77.5240 N.am      5 SEP2        0.0000 
     38 O          46.8665  -18.9635   72.6450 O.2       1 ALC1        0.0000 
     39 O          46.4820  -17.8810   73.7990 O.2       7 ALL1        0.0000 
     40 O          47.2510  -20.0460   71.4910 O.2       4 ALP1        0.0000 
     41 CA         44.5365  -20.3740   76.6830 C.3       3 GLC5        0.0000 
     42 CA         44.9390  -19.1430   75.2470 C.3       9 GLL5        0.0000 
     43 CA         44.1340  -21.6050   78.1190 C.3       6 GLP5        0.0000 
     44 CA         44.8730  -21.4740   76.3160 C.3       3 GLC5        0.0000 
     45 CA         45.6120  -21.3430   74.5130 C.3       9 GLL5        0.0000 
     46 O          47.1645  -23.0520   76.0840 O.2       1 ALC1        0.0000 
     47 O          47.3600  -23.6000   74.8460 O.2       7 ALL1        0.0000 
     48 O          46.9690  -22.5040   77.3220 O.2       4 ALP1        0.0000 
     49 CA         42.5785  -20.8760   75.7520 C.3       3 GLC5        0.0000 
     50 CA         43.4200  -20.5930   73.9560 C.3       9 GLL5        0.0000 
     51 CA         41.7370  -21.1590   77.5480 C.3       6 GLP5        0.0000 
     52 N          35.6365   -7.8450   79.9675 N.am      2 SEC2        0.0000 
     53 N          36.2740   -8.8350   79.4870 N.am      8 SEL2        0.0000 
     54 N          34.9990   -6.8550   80.4480 N.am      5 SEP2        0.0000 
     55 N          34.3290  -11.1980   77.8350 N.am      2 SEC2        0.0000 
     56 N          34.2620   -9.9900   78.3910 N.am      8 SEL2        0.0000 
     57 N          34.3960  -12.4060   77.2790 N.am      5 SEP2        0.0000 
     58 N          33.8405   -9.6325   79.8115 N.am      2 SEC2        0.0000 
     59 N          33.4190   -9.2750   81.2320 N.am      5 SEP2        0.0000 
     60 N          33.3985   -9.8700   77.2940 N.am      2 SEC2        0.0000 
     61 N          32.5350   -9.7500   76.1970 N.am      5 SEP2        0.0000 
     62 N          35.0045   -8.2825   75.9170 N.am      2 SEC2        0.0000 
     63 N          35.5790   -8.3040   77.1350 N.am      8 SEL2        0.0000 
     64 CA         38.6355  -13.9625   76.2285 C.3       3 GLC5        0.0000 
     65 CA         38.4910  -12.0820   75.7640 C.3       9 GLL5        0.0000 
     66 CA         38.4550  -15.6410   77.3630 C.3       6 GLP5        0.0000 
     67 CA         42.6077  -11.3995   81.0015 C.3       3 GLC5        0.0000 
     68 CA         41.5520   -9.8130   79.8680 C.3       9 GLL5        0.0000 
     69 CA         43.4090  -13.1200   81.4930 C.3       6 GLP5        0.0000 
     70 CA         44.9920  -16.5142   72.9870 C.3       3 GLC5        0.0000 
     71 CA         44.6760  -16.8000   74.9700 C.3       9 GLL5        0.0000 
     72 CA         45.0820  -15.6130   71.3840 C.3       6 GLP5        0.0000 
     73 CA         42.8794  -23.5610   74.3325 C.3       3 GLC5        0.0000 
     74 CA         43.1400  -21.7730   73.2880 C.3       9 GLL5        0.0000 
     75 CA         41.8190  -24.9100   75.2450 C.3       6 GLP5        0.0000 
@<TRIPOS>BOND
@<TRIPOS>SUBSTRUCTURE
     1 ALC1       12 GROUP        1 X    ALC  0     ROOT ALC X 1
     2 SEC2        1 GROUP        1 X    SEC  0     **** SEC X 2
     3 GLC5        4 GROUP        1 X    GLC  0     **** GLC X 6
     4 ALP1       14 GROUP        1 Y    ALP  0     ROOT ALP Y 8
     5 SEP2        3 GROUP        1 Y    SEP  0     **** SEP Y 9
     6 GLP5        6 GROUP        1 Y    GLP  0     **** GLP Y 13
     7 ALL1       13 GROUP        1 Z    ALL  0     ROOT ALL Z 15
     8 SEL2        2 GROUP        1 Z    SEL  0     **** SEL Z 16
     9 GLL5        5 GROUP        1 Z    GLL  0     **** GLL Z 20
@<TRIPOS>SET

