#    Name: 3b70_NAP_1_ligand
#    Modification time : Mon Mar 24 19:05:00 2014

@<TRIPOS>MOLECULE
3b70_NAP_1_ligand
   73    77     1     0     0
SMALL
NO_CHARGES


@<TRIPOS>ATOM
      1 PA         39.5340  -14.7720   73.1450 P.3       1 NAP372      0.0000 
      2 O1A        38.2790  -14.8880   72.4090 O.co2     1 NAP372      0.0000 
      3 O2A        40.6960  -14.2940   72.4300 O.co2     1 NAP372      0.0000 
      4 O5B        39.3680  -13.8760   74.4970 O.3       1 NAP372      0.0000 
      5 C5B        39.1410  -12.4860   74.4240 C.3       1 NAP372      0.0000 
      6 C4B        38.4910  -12.0820   75.7640 C.3       1 NAP372      0.0000 
      7 O4B        39.4030  -12.0560   76.8620 O.3       1 NAP372      0.0000 
      8 C3B        37.8740  -10.6800   75.6540 C.3       1 NAP372      0.0000 
      9 O3B        36.5200  -10.8470   75.2260 O.3       1 NAP372      0.0000 
     10 C2B        37.9000  -10.2140   77.1080 C.3       1 NAP372      0.0000 
     11 O2B        36.6400  -10.5080   77.6470 O.3       1 NAP372      0.0000 
     12 C1B        38.8690  -11.1240   77.8420 C.3       1 NAP372      0.0000 
     13 N9A        40.0330  -10.4810   78.4080 N.pl3     1 NAP372      0.0000 
     14 C8A        41.1380  -10.0390   77.7140 C.2       1 NAP372      0.0000 
     15 N7A        42.0420   -9.5960   78.6100 N.2       1 NAP372      0.0000 
     16 C5A        41.5520   -9.8130   79.8680 C.ar      1 NAP372      0.0000 
     17 C6A        42.0610   -9.5450   81.1520 C.ar      1 NAP372      0.0000 
     18 N6A        43.2670   -9.0140   81.3220 N.pl3     1 NAP372      0.0000 
     19 N1A        41.2970   -9.9200   82.2460 N.ar      1 NAP372      0.0000 
     20 C2A        40.0300  -10.4360   82.0910 C.ar      1 NAP372      0.0000 
     21 N3A        39.5160  -10.7020   80.8280 N.ar      1 NAP372      0.0000 
     22 C4A        40.2950  -10.3880   79.7450 C.ar      1 NAP372      0.0000 
     23 O3         39.9090  -16.1740   73.8570 O.3       1 NAP372      0.0000 
     24 PN         40.6430  -17.5440   73.4430 P.3       1 NAP372      0.0000 
     25 O1N        39.9000  -18.5910   74.1690 O.co2     1 NAP372      0.0000 
     26 O2N        40.7290  -17.5890   71.9930 O.co2     1 NAP372      0.0000 
     27 O5D        42.1010  -17.3760   74.0470 O.3       1 NAP372      0.0000 
     28 C5D        42.2230  -17.0820   75.4390 C.3       1 NAP372      0.0000 
     29 C4D        43.6300  -17.3600   75.9330 C.3       1 NAP372      0.0000 
     30 O4D        43.8270  -18.7680   75.9880 O.3       1 NAP372      0.0000 
     31 C3D        44.6760  -16.8000   74.9700 C.3       1 NAP372      0.0000 
     32 O3D        45.7590  -16.3560   75.7440 O.3       1 NAP372      0.0000 
     33 C2D        45.1280  -18.0310   74.2100 C.3       1 NAP372      0.0000 
     34 O2D        46.4820  -17.8810   73.7990 O.3       1 NAP372      0.0000 
     35 C1D        44.9390  -19.1430   75.2470 C.3       1 NAP372      0.0000 
     36 N1N        44.6300  -20.4010   74.5670 N.pl3     1 NAP372      0.0000 
     37 C2N        45.6120  -21.3430   74.5130 C.ar      1 NAP372      0.0000 
     38 C3N        45.3540  -22.5320   73.8710 C.ar      1 NAP372      0.0000 
     39 C7N        46.4310  -23.5830   73.8910 C.2       1 NAP372      0.0000 
     40 O7N        46.4180  -24.4980   72.8560 O.2       1 NAP372      0.0000 
     41 N7N        47.3600  -23.6000   74.8460 N.am      1 NAP372      0.0000 
     42 C4N        44.1250  -22.7700   73.2330 C.ar      1 NAP372      0.0000 
     43 C5N        43.1400  -21.7730   73.2880 C.ar      1 NAP372      0.0000 
     44 C6N        43.4200  -20.5930   73.9560 C.ar      1 NAP372      0.0000 
     45 P2B        35.6260   -9.3550   78.2240 P.3       1 NAP372      0.0000 
     46 O1X        36.2740   -8.8350   79.4870 O.co2     1 NAP372      0.0000 
     47 O2X        34.2620   -9.9900   78.3910 O.co2     1 NAP372      0.0000 
     48 O3X        35.5790   -8.3040   77.1350 O.co2     1 NAP372      0.0000 
     49 H          38.4511  -12.2139   73.6344 H         1 NAP372      0.0000 
     50 H          40.0564  -11.9156   74.3231 H         1 NAP372      0.0000 
     51 H          37.6678  -12.7689   75.9599 H         1 NAP372      0.0000 
     52 H          38.4621  -10.0869   75.0717 H         1 NAP372      0.0000 
     53 H          38.1890   -9.2375   77.1774 H         1 NAP372      0.0000 
     54 H          38.3348  -11.6843   78.5878 H         1 NAP372      0.0000 
     55 H          41.2306  -10.0517   76.7608 H         1 NAP372      0.0000 
     56 H          43.5611   -8.8841   82.2689 H         1 NAP372      0.0000 
     57 H          43.7717   -8.7922   80.4877 H         1 NAP372      0.0000 
     58 H          39.4462  -10.6310   82.9263 H         1 NAP372      0.0000 
     59 H          41.5266  -17.6882   76.0417 H         1 NAP372      0.0000 
     60 H          41.9931  -16.0244   75.6494 H         1 NAP372      0.0000 
     61 H          43.7686  -16.9086   76.8890 H         1 NAP372      0.0000 
     62 H          44.2532  -16.1192   74.3427 H         1 NAP372      0.0000 
     63 H          44.4460  -18.1965   73.4172 H         1 NAP372      0.0000 
     64 H          45.8147  -19.2168   75.8238 H         1 NAP372      0.0000 
     65 H          46.5301  -21.1750   74.9415 H         1 NAP372      0.0000 
     66 H          47.2989  -22.8752   75.5323 H         1 NAP372      0.0000 
     67 H          48.0347  -24.3360   74.7905 H         1 NAP372      0.0000 
     68 H          43.9554  -23.6412   72.7452 H         1 NAP372      0.0000 
     69 H          42.2361  -21.9225   72.8412 H         1 NAP372      0.0000 
     70 H          42.6973  -19.8471   73.9902 H         1 NAP372      0.0000 
     71 H          36.0120  -11.0731   76.0571 H         1 NAP372      0.0000 
     72 H          45.5283  -15.4165   75.9969 H         1 NAP372      0.0000 
     73 H          46.6240  -18.5929   73.1113 H         1 NAP372      0.0000 
@<TRIPOS>BOND
     1    2    1 ar   
     2    3    1 ar   
     3    4    1 1    
     4   23    1 1    
     5    5    4 1    
     6    6    5 1    
     7   49    5 1    
     8   50    5 1    
     9    7    6 1    
    10    8    6 1    
    11   51    6 1    
    12   12    7 1    
    13    9    8 1    
    14   10    8 1    
    15   52    8 1    
    16   71    9 1    
    17   11   10 1    
    18   12   10 1    
    19   53   10 1    
    20   45   11 1    
    21   13   12 1    
    22   54   12 1    
    23   14   13 1    
    24   22   13 1    
    25   15   14 2    
    26   55   14 1    
    27   16   15 1    
    28   17   16 ar   
    29   22   16 ar   
    30   18   17 1    
    31   19   17 ar   
    32   56   18 1    
    33   57   18 1    
    34   20   19 ar   
    35   21   20 ar   
    36   58   20 1    
    37   22   21 ar   
    38   24   23 1    
    39   25   24 ar   
    40   26   24 ar   
    41   27   24 1    
    42   28   27 1    
    43   29   28 1    
    44   59   28 1    
    45   60   28 1    
    46   30   29 1    
    47   31   29 1    
    48   61   29 1    
    49   35   30 1    
    50   32   31 1    
    51   33   31 1    
    52   62   31 1    
    53   72   32 1    
    54   34   33 1    
    55   35   33 1    
    56   63   33 1    
    57   73   34 1    
    58   36   35 1    
    59   64   35 1    
    60   37   36 ar   
    61   44   36 ar   
    62   38   37 ar   
    63   65   37 1    
    64   39   38 1    
    65   42   38 ar   
    66   40   39 2    
    67   41   39 am   
    68   66   41 1    
    69   67   41 1    
    70   43   42 ar   
    71   68   42 1    
    72   44   43 ar   
    73   69   43 1    
    74   70   44 1    
    75   46   45 ar   
    76   47   45 ar   
    77   48   45 ar   
@<TRIPOS>SUBSTRUCTURE
     1 NAP372      1 GROUP   
@<TRIPOS>SET

