#    Name: 3a8i_C2F_1_INTS_M
#    Modification time : Tue Mar 25 11:38:04 2014

@<TRIPOS>MOLECULE
3a8i_C2F_1_INTS_M
   50     0     6     0     0
SMALL
NO_CHARGES


@<TRIPOS>ATOM
      1 O           7.9185   17.8565   36.5195 O.2       1 ALC1        0.0000 
      2 O           7.4700   16.7730   35.9310 O.2       5 ALL1        0.0000 
      3 O           8.3670   18.9400   37.1080 O.2       3 ALP1        0.0000 
      4 O           8.7940   17.4695   37.1265 O.2       1 ALC1        0.0000 
      5 O           9.2210   15.9990   37.1450 O.2       5 ALL1        0.0000 
      6 O           9.8500   17.2680   37.1155 O.2       1 ALC1        0.0000 
      7 O          10.4790   18.5370   37.0860 O.2       3 ALP1        0.0000 
      8 CA          6.9500   10.4120   36.2845 C.3       2 GLC5        0.0000 
      9 CA          8.8740   10.9850   36.3840 C.3       6 GLL5        0.0000 
     10 CA          5.0260    9.8390   36.1850 C.3       4 GLP5        0.0000 
     11 CA          8.3270   10.6830   34.3105 C.3       2 GLC5        0.0000 
     12 CA          7.7800   10.3810   32.2370 C.3       4 GLP5        0.0000 
     13 O           7.1180   12.1110   34.8645 O.2       1 ALC1        0.0000 
     14 O           8.1340   12.2070   35.9590 O.2       5 ALL1        0.0000 
     15 O           6.1020   12.0150   33.7700 O.2       3 ALP1        0.0000 
     16 CA          8.1155   14.2720   34.4660 C.3       2 GLC5        0.0000 
     17 CA          8.5110   13.4550   36.3480 C.3       6 GLL5        0.0000 
     18 CA          7.7200   15.0890   32.5840 C.3       4 GLP5        0.0000 
     19 CA          7.3340   10.5020   39.9440 C.3       2 GLC5        0.0000 
     20 CA          8.6660   11.3790   38.7860 C.3       6 GLL5        0.0000 
     21 CA          6.0020    9.6250   41.1020 C.3       4 GLP5        0.0000 
     22 O           8.8680    9.3850   40.1500 O.2       1 ALC1        0.0000 
     23 O           9.0560   10.8800   40.1090 O.2       5 ALL1        0.0000 
     24 O           8.6800    7.8900   40.1910 O.2       3 ALP1        0.0000 
     25 CA         11.7565   13.3815   35.8465 C.3       2 GLC5        0.0000 
     26 CA         11.6870   12.4760   37.4940 C.3       6 GLL5        0.0000 
     27 CA         11.8260   14.2870   34.1990 C.3       4 GLP5        0.0000 
     28 CA         12.1030   12.1770   39.4990 C.3       2 GLC5        0.0000 
     29 CA         12.5190   11.8780   41.5040 C.3       4 GLP5        0.0000 
     30 CA          9.3715   13.7960   44.1320 C.3       2 GLC5        0.0000 
     31 CA          7.5960   13.3120   43.1290 C.3       6 GLL5        0.0000 
     32 CA         11.1470   14.2800   45.1350 C.3       4 GLP5        0.0000 
     33 CA          8.1725   14.7280   46.3770 C.3       2 GLC5        0.0000 
     34 CA          6.1140   14.0000   46.6290 C.3       6 GLL5        0.0000 
     35 CA         10.2310   15.4560   46.1250 C.3       4 GLP5        0.0000 
     36 CA          4.2575   15.1125   44.6465 C.3       2 GLC5        0.0000 
     37 CA          4.5800   13.9720   46.4400 C.3       6 GLL5        0.0000 
     38 CA          3.9350   16.2530   42.8530 C.3       4 GLP5        0.0000 
     39 CA         10.4350   13.9200   35.4890 C.3       2 GLC5        0.0000 
     40 CA          9.5770   13.6510   37.2100 C.3       6 GLL5        0.0000 
     41 CA          7.1575   13.9630   37.3455 C.3       2 GLC5        0.0000 
     42 CA          5.2710   14.3730   37.9120 C.3       4 GLP5        0.0000 
     43 CA          9.9462   11.6310   44.1142 C.3       2 GLC5        0.0000 
     44 CA          8.7560   11.2610   42.4510 C.3       6 GLL5        0.0000 
     45 CA         11.3950   11.5810   45.2780 C.3       4 GLP5        0.0000 
     46 CA          6.2065   13.6182   40.2715 C.3       2 GLC5        0.0000 
     47 CA          7.4350   13.6900   41.8030 C.3       6 GLL5        0.0000 
     48 CA          4.7250   13.9700   39.2400 C.3       4 GLP5        0.0000 
     49 CA          3.3905   12.7175   46.6640 C.3       2 GLC5        0.0000 
     50 CA          2.6220   11.0770   46.3740 C.3       4 GLP5        0.0000 
@<TRIPOS>BOND
@<TRIPOS>SUBSTRUCTURE
     1 ALC1        1 GROUP        1 X    ALC  0     ROOT ALC X 1
     2 GLC5        8 GROUP        1 X    GLC  0     **** GLC X 6
     3 ALP1        3 GROUP        1 Y    ALP  0     ROOT ALP Y 8
     4 GLP5       10 GROUP        1 Y    GLP  0     **** GLP Y 13
     5 ALL1        2 GROUP        1 Z    ALL  0     ROOT ALL Z 15
     6 GLL5        9 GROUP        1 Z    GLL  0     **** GLL Z 20
@<TRIPOS>SET

