#    Name: 3a8i_C2F_1_ligand
#    Modification time : Tue Mar 25 11:38:05 2014

@<TRIPOS>MOLECULE
3a8i_C2F_1_ligand
   56    58     1     0     0
SMALL
NO_CHARGES


@<TRIPOS>ATOM
      1 N1          7.7960   14.5120   35.9370 N.2       1 C2F401      0.0000 
      2 C2          8.1880   15.7560   36.3260 C.2       1 C2F401      0.0000 
      3 NA2         7.4700   16.7730   35.9310 N.pl3     1 C2F401      0.0000 
      4 N3          9.2210   15.9990   37.1450 N.am      1 C2F401      0.0000 
      5 C4          9.9230   14.9710   37.6030 C.2       1 C2F401      0.0000 
      6 O4         10.9980   15.2670   38.3670 O.2       1 C2F401      0.0000 
      7 C4A         9.5770   13.6510   37.2100 C.2       1 C2F401      0.0000 
      8 N5         10.2780   12.4910   37.5430 N.pl3     1 C2F401      0.0000 
      9 C6          9.6510   11.1440   37.6930 C.3       1 C2F401      0.0000 
     10 C7          8.8740   10.9850   36.3840 C.3       1 C2F401      0.0000 
     11 N8          8.1340   12.2070   35.9590 N.pl3     1 C2F401      0.0000 
     12 C8A         8.5110   13.4550   36.3480 C.2       1 C2F401      0.0000 
     13 C9          8.6660   11.3790   38.7860 C.3       1 C2F401      0.0000 
     14 N10         9.0560   10.8800   40.1090 N.pl3     1 C2F401      0.0000 
     15 C11        11.6870   12.4760   37.4940 C.3       1 C2F401      0.0000 
     16 C12         7.5960   13.3120   43.1290 C.ar      1 C2F401      0.0000 
     17 C13         8.2390   12.1010   43.4500 C.ar      1 C2F401      0.0000 
     18 C14         8.7560   11.2610   42.4510 C.ar      1 C2F401      0.0000 
     19 C15         8.5990   11.6470   41.1230 C.ar      1 C2F401      0.0000 
     20 C16         7.9410   12.8430   40.8030 C.ar      1 C2F401      0.0000 
     21 C17         7.4350   13.6900   41.8030 C.ar      1 C2F401      0.0000 
     22 C           7.0520   14.1700   44.2350 C.2       1 C2F401      0.0000 
     23 O           6.9160   15.3700   44.0380 O.2       1 C2F401      0.0000 
     24 N           6.6690   13.5000   45.3620 N.am      1 C2F401      0.0000 
     25 CA          6.1140   14.0000   46.6290 C.3       1 C2F401      0.0000 
     26 CB          4.5800   13.9720   46.4400 C.3       1 C2F401      0.0000 
     27 CG          3.7380   14.7440   47.4680 C.3       1 C2F401      0.0000 
     28 CD          2.4110   15.2220   46.8940 C.2       1 C2F401      0.0000 
     29 OE1         2.0430   16.3460   47.2870 O.co2     1 C2F401      0.0000 
     30 OE2         1.7130   14.5460   46.0800 O.co2     1 C2F401      0.0000 
     31 CT          6.5390   13.0440   47.7240 C.2       1 C2F401      0.0000 
     32 O1          7.7540   12.7950   47.8620 O.co2     1 C2F401      0.0000 
     33 O2          5.6870   12.4650   48.4480 O.co2     1 C2F401      0.0000 
     34 H           7.4745   17.5739   36.5298 H         1 C2F401      0.0000 
     35 H           6.9816   16.6574   35.0661 H         1 C2F401      0.0000 
     36 H           9.4610   16.9730   37.4111 H         1 C2F401      0.0000 
     37 H          10.3008   10.4257   37.8603 H         1 C2F401      0.0000 
     38 H           8.1672   10.1404   36.5014 H         1 C2F401      0.0000 
     39 H           9.5876   10.6844   35.5922 H         1 C2F401      0.0000 
     40 H           7.3151   12.0434   35.3489 H         1 C2F401      0.0000 
     41 H           7.6868   10.9230   38.4882 H         1 C2F401      0.0000 
     42 H           8.4567   12.4780   38.8478 H         1 C2F401      0.0000 
     43 H           9.5932   10.0686   40.1861 H         1 C2F401      0.0000 
     44 H           8.3312   11.8267   44.4415 H         1 C2F401      0.0000 
     45 H           9.2290   10.3995   42.6955 H         1 C2F401      0.0000 
     46 H           7.8251   13.1082   39.8105 H         1 C2F401      0.0000 
     47 H           6.9652   14.5540   41.5546 H         1 C2F401      0.0000 
     48 H           6.7795   12.4086   45.3565 H         1 C2F401      0.0000 
     49 H           6.4285   14.9724   46.8252 H         1 C2F401      0.0000 
     50 H           4.2483   12.9097   46.4347 H         1 C2F401      0.0000 
     51 H           4.3463   14.3621   45.4242 H         1 C2F401      0.0000 
     52 H           4.3138   15.6075   47.8188 H         1 C2F401      0.0000 
     53 H           3.5478   14.0932   48.3286 H         1 C2F401      0.0000 
     54 H          12.0872   13.1557   38.1087 H         1 C2F401      0.0000 
     55 H          12.0584   11.5862   37.7593 H         1 C2F401      0.0000 
     56 H          12.0288   12.6742   36.5754 H         1 C2F401      0.0000 
@<TRIPOS>BOND
     1    2    1 2    
     2   12    1 1    
     3    3    2 1    
     4    4    2 1    
     5   34    3 1    
     6   35    3 1    
     7    5    4 am   
     8   36    4 1    
     9    6    5 2    
    10    7    5 1    
    11    8    7 1    
    12   12    7 2    
    13    9    8 1    
    14   15    8 1    
    15   10    9 1    
    16   13    9 1    
    17   37    9 1    
    18   11   10 1    
    19   38   10 1    
    20   39   10 1    
    21   12   11 1    
    22   40   11 1    
    23   14   13 1    
    24   41   13 1    
    25   42   13 1    
    26   19   14 1    
    27   43   14 1    
    28   54   15 1    
    29   55   15 1    
    30   56   15 1    
    31   17   16 ar   
    32   21   16 ar   
    33   22   16 1    
    34   18   17 ar   
    35   44   17 1    
    36   19   18 ar   
    37   45   18 1    
    38   20   19 ar   
    39   21   20 ar   
    40   46   20 1    
    41   47   21 1    
    42   23   22 2    
    43   24   22 am   
    44   25   24 1    
    45   48   24 1    
    46   26   25 1    
    47   31   25 1    
    48   49   25 1    
    49   27   26 1    
    50   50   26 1    
    51   51   26 1    
    52   28   27 1    
    53   52   27 1    
    54   53   27 1    
    55   29   28 ar   
    56   30   28 ar   
    57   32   31 ar   
    58   33   31 ar   
@<TRIPOS>SUBSTRUCTURE
     1 C2F401      1 GROUP   
@<TRIPOS>SET

