#    Name: 4cjw_CBJ_2_INTS_M
#    Modification time : Mon Apr  7 22:23:35 2014

@<TRIPOS>MOLECULE
4cjw_CBJ_2_INTS_M
   45     0     3     0     0
SMALL
NO_CHARGES


@<TRIPOS>ATOM
      1 CA         15.1345  -27.8385  -12.7655 C.3       1 GLC5        0.0000 
      2 CA         14.0960  -27.3930  -11.2720 C.3       3 GLL5        0.0000 
      3 CA         16.1730  -28.2840  -14.2590 C.3       2 GLP5        0.0000 
      4 CA         16.2415  -28.6465   -7.7700 C.3       1 GLC5        0.0000 
      5 CA         16.4220  -28.1680   -9.9590 C.3       3 GLL5        0.0000 
      6 CA         16.0610  -29.1250   -5.5810 C.3       2 GLP5        0.0000 
      7 CA         16.6340  -27.5560  -11.9625 C.3       1 GLC5        0.0000 
      8 CA         16.8460  -26.9440  -13.9660 C.3       2 GLP5        0.0000 
      9 CA         18.2250  -27.3820  -10.5085 C.3       1 GLC5        0.0000 
     10 CA         20.0280  -26.5960  -11.0580 C.3       2 GLP5        0.0000 
     11 CA         11.9570  -28.8960   -8.8825 C.3       1 GLC5        0.0000 
     12 CA         12.4680  -27.3250   -8.9790 C.3       3 GLL5        0.0000 
     13 CA         11.4460  -30.4670   -8.7860 C.3       2 GLP5        0.0000 
     14 CA          9.0875  -27.7490   -7.8835 C.3       1 GLC5        0.0000 
     15 CA          9.5290  -27.0360   -9.8320 C.3       3 GLL5        0.0000 
     16 CA          8.6460  -28.4620   -5.9350 C.3       2 GLP5        0.0000 
     17 CA         10.4875  -28.7515   -9.3090 C.3       1 GLC5        0.0000 
     18 CA          7.9470  -27.3725   -7.6555 C.3       1 GLC5        0.0000 
     19 CA          7.2480  -26.2830   -9.3760 C.3       3 GLL5        0.0000 
     20 CA          6.9365  -21.8425   -6.5625 C.3       1 GLC5        0.0000 
     21 CA          6.3040  -22.0020   -8.4670 C.3       3 GLL5        0.0000 
     22 CA          7.5690  -21.6830   -4.6580 C.3       2 GLP5        0.0000 
     23 CA         13.3543  -29.0622   -9.8468 C.3       1 GLC5        0.0000 
     24 CA         14.5970  -27.7010  -10.0320 C.3       3 GLL5        0.0000 
     25 CA         12.5070  -30.4390  -10.2290 C.3       2 GLP5        0.0000 
     26 CA         16.3048  -29.5678   -9.5958 C.3       1 GLC5        0.0000 
     27 CA         17.1000  -31.2010   -9.1960 C.3       2 GLP5        0.0000 
     28 CA         15.8172  -26.6222   -8.8257 C.3       1 GLC5        0.0000 
     29 CA         16.1250  -25.3100   -7.6560 C.3       2 GLP5        0.0000 
     30 CA         13.0505  -28.0127   -7.1610 C.3       1 GLC5        0.0000 
     31 CA         13.8060  -27.6700   -8.8970 C.3       3 GLL5        0.0000 
     32 CA         12.9640  -28.5280   -5.3840 C.3       2 GLP5        0.0000 
     33 CA         14.1280  -26.3753   -7.8460 C.3       1 GLC5        0.0000 
     34 CA         15.1190  -25.2530   -6.7540 C.3       2 GLP5        0.0000 
     35 CA         12.6029  -28.7808  -10.4939 C.3       1 GLC5        0.0000 
     36 CA         11.9620  -27.0200  -10.2240 C.3       3 GLL5        0.0000 
     37 CA          8.1825  -25.0673   -7.8790 C.3       1 GLC5        0.0000 
     38 CA          9.6000  -24.3350   -6.4620 C.3       2 GLP5        0.0000 
     39 CA          7.2880  -27.5440  -10.9857 C.3       1 GLC5        0.0000 
     40 CA          8.5470  -25.9300   -9.6740 C.3       3 GLL5        0.0000 
     41 CA          6.4330  -28.7050  -12.4070 C.3       2 GLP5        0.0000 
     42 CA          8.4370  -24.0718   -7.9817 C.3       1 GLC5        0.0000 
     43 CA          6.6270  -23.9910   -9.3550 C.3       3 GLL5        0.0000 
     44 CA          9.2800  -24.9365   -8.1212 C.3       1 GLC5        0.0000 
     45 CA          8.8820  -24.5930   -9.8080 C.3       3 GLL5        0.0000 
@<TRIPOS>BOND
@<TRIPOS>SUBSTRUCTURE
     1 GLC5        1 GROUP        1 X    GLC  0     ROOT GLC X 6
     2 GLP5        3 GROUP        1 Y    GLP  0     ROOT GLP Y 13
     3 GLL5        2 GROUP        1 Z    GLL  0     ROOT GLL Z 20
@<TRIPOS>SET

