#    Name: 4cjw_CBJ_2_ligand
#    Modification time : Mon Apr  7 22:23:35 2014

@<TRIPOS>MOLECULE
4cjw_CBJ_2_ligand
   37    40     1     0     0
SMALL
NO_CHARGES


@<TRIPOS>ATOM
      1 O1          9.6510  -26.6060  -12.7810 O.2       1 CBJ1216     0.0000 
      2 C2         10.5950  -26.6330  -12.0050 C.2       1 CBJ1216     0.0000 
      3 C3         12.0050  -26.7040  -12.4770 C.2       1 CBJ1216     0.0000 
      4 O4         12.4120  -26.5040  -13.6100 O.2       1 CBJ1216     0.0000 
      5 C5         12.7750  -27.0570  -11.3150 C.ar      1 CBJ1216     0.0000 
      6 C6         14.0960  -27.3930  -11.2720 C.ar      1 CBJ1216     0.0000 
      7 C7         14.5970  -27.7010  -10.0320 C.ar      1 CBJ1216     0.0000 
      8 BR8        16.4220  -28.1680   -9.9590 Br        1 CBJ1216     0.0000 
      9 C9         13.8060  -27.6700   -8.8970 C.ar      1 CBJ1216     0.0000 
     10 C10        12.4680  -27.3250   -8.9790 C.ar      1 CBJ1216     0.0000 
     11 C11        11.9620  -27.0200  -10.2240 C.ar      1 CBJ1216     0.0000 
     12 N12        10.6690  -26.6470  -10.6190 N.am      1 CBJ1216     0.0000 
     13 C13         9.5290  -27.0360   -9.8320 C.3       1 CBJ1216     0.0000 
     14 C14         8.5470  -25.9300   -9.6740 C.ar      1 CBJ1216     0.0000 
     15 C15         7.2480  -26.2830   -9.3760 C.ar      1 CBJ1216     0.0000 
     16 C16         6.2820  -25.3160   -9.2160 C.ar      1 CBJ1216     0.0000 
     17 C17         6.6270  -23.9910   -9.3550 C.ar      1 CBJ1216     0.0000 
     18 O18         5.6560  -23.0310   -9.1920 O.3       1 CBJ1216     0.0000 
     19 C19         6.3040  -22.0020   -8.4670 C.3       1 CBJ1216     0.0000 
     20 C20         7.3340  -21.3770   -9.3730 C.3       1 CBJ1216     0.0000 
     21 O21         8.3260  -22.3070   -9.7970 O.3       1 CBJ1216     0.0000 
     22 C22         7.9210  -23.6260   -9.6480 C.ar      1 CBJ1216     0.0000 
     23 C23         8.8820  -24.5930   -9.8080 C.ar      1 CBJ1216     0.0000 
     24 C24        10.2430  -24.1300  -10.1240 C.2       1 CBJ1216     0.0000 
     25 O25        10.3950  -23.5830  -11.2520 O.co2     1 CBJ1216     0.0000 
     26 O26        11.1230  -24.3140   -9.2410 O.co2     1 CBJ1216     0.0000 
     27 H          14.6730  -27.4151  -12.0983 H         1 CBJ1216     0.0000 
     28 H          14.2186  -27.9070   -7.9780 H         1 CBJ1216     0.0000 
     29 H          11.8829  -27.2985   -8.1501 H         1 CBJ1216     0.0000 
     30 H           9.8482  -27.3728   -8.8239 H         1 CBJ1216     0.0000 
     31 H           9.0140  -27.9034  -10.2945 H         1 CBJ1216     0.0000 
     32 H           6.9986  -27.2828   -9.2721 H         1 CBJ1216     0.0000 
     33 H           5.3135  -25.5804   -8.9951 H         1 CBJ1216     0.0000 
     34 H           6.8154  -22.3857   -7.5817 H         1 CBJ1216     0.0000 
     35 H           5.6070  -21.2223   -8.1529 H         1 CBJ1216     0.0000 
     36 H           7.7909  -20.5223   -8.8309 H         1 CBJ1216     0.0000 
     37 H           6.8009  -20.9353  -10.2413 H         1 CBJ1216     0.0000 
@<TRIPOS>BOND
     1    2    1 2    
     2    3    2 1    
     3   12    2 am   
     4    4    3 2    
     5    5    3 1    
     6    6    5 ar   
     7   11    5 ar   
     8    7    6 ar   
     9   27    6 1    
    10    8    7 1    
    11    9    7 ar   
    12   10    9 ar   
    13   28    9 1    
    14   11   10 ar   
    15   29   10 1    
    16   12   11 1    
    17   13   12 1    
    18   14   13 1    
    19   30   13 1    
    20   31   13 1    
    21   15   14 ar   
    22   23   14 ar   
    23   16   15 ar   
    24   32   15 1    
    25   17   16 ar   
    26   33   16 1    
    27   18   17 1    
    28   22   17 ar   
    29   19   18 1    
    30   20   19 1    
    31   34   19 1    
    32   35   19 1    
    33   21   20 1    
    34   36   20 1    
    35   37   20 1    
    36   22   21 1    
    37   23   22 ar   
    38   24   23 1    
    39   25   24 ar   
    40   26   24 ar   
@<TRIPOS>SUBSTRUCTURE
     1 CBJ1216     1 GROUP   
@<TRIPOS>SET

