#    Name: 3c5u_P41_1_INTS_M
#    Modification time : Mon Mar 24 20:32:42 2014

@<TRIPOS>MOLECULE
3c5u_P41_1_INTS_M
   59     0     3     0     0
SMALL
NO_CHARGES


@<TRIPOS>ATOM
      1 CA         -9.4830   30.2695   40.7890 C.3       1 GLC5        0.0000 
      2 CA         -8.0580   30.8800   39.4460 C.3       3 GLL5        0.0000 
      3 CA        -10.9080   29.6590   42.1320 C.3       2 GLP5        0.0000 
      4 CA         -6.9300   29.2365   38.5770 C.3       1 GLC5        0.0000 
      5 CA         -5.8020   27.5930   37.7080 C.3       2 GLP5        0.0000 
      6 CA         -4.6035   32.9020   37.6350 C.3       1 GLC5        0.0000 
      7 CA         -5.7630   31.9330   38.6910 C.3       3 GLL5        0.0000 
      8 CA         -3.4440   33.8710   36.5790 C.3       2 GLP5        0.0000 
      9 CA         -5.2940   30.2245   37.8465 C.3       1 GLC5        0.0000 
     10 CA         -4.8250   28.5160   37.0020 C.3       2 GLP5        0.0000 
     11 CA         -7.1665   32.7230   37.7255 C.3       1 GLC5        0.0000 
     12 CA         -8.5700   33.5130   36.7600 C.3       2 GLP5        0.0000 
     13 CA         -8.6880   38.0040   43.8140 C.3       1 GLC5        0.0000 
     14 CA         -7.7380   37.5170   41.9880 C.3       3 GLL5        0.0000 
     15 CA         -9.6380   38.4910   45.6400 C.3       2 GLP5        0.0000 
     16 CA         -7.0675   40.4380   40.7790 C.3       1 GLC5        0.0000 
     17 CA         -9.0230   41.0370   41.2050 C.3       3 GLL5        0.0000 
     18 CA         -5.1120   39.8390   40.3530 C.3       2 GLP5        0.0000 
     19 CA        -11.3105   38.2255   41.5485 C.3       1 GLC5        0.0000 
     20 CA        -11.6780   39.9970   41.4060 C.3       3 GLL5        0.0000 
     21 CA        -10.9430   36.4540   41.6910 C.3       2 GLP5        0.0000 
     22 CA         -5.7940   34.7780   43.8465 C.3       1 GLC5        0.0000 
     23 CA         -7.0740   34.8040   42.3810 C.3       3 GLL5        0.0000 
     24 CA         -4.5140   34.7520   45.3120 C.3       2 GLP5        0.0000 
     25 CA         -7.8925   34.0515   43.7720 C.3       1 GLC5        0.0000 
     26 CA         -8.7110   33.2990   45.1630 C.3       2 GLP5        0.0000 
     27 CA         -9.1215   34.9000   42.2340 C.3       1 GLC5        0.0000 
     28 CA        -11.1690   34.9960   42.0870 C.3       2 GLP5        0.0000 
     29 CA         -5.7993   37.4495   41.7018 C.3       1 GLC5        0.0000 
     30 CA         -7.5490   36.2130   41.5110 C.3       3 GLL5        0.0000 
     31 CA         -3.9550   38.0340   41.6540 C.3       2 GLP5        0.0000 
     32 CA         -8.4927   31.8240   38.3513 C.3       1 GLC5        0.0000 
     33 CA         -6.7710   31.5920   39.8050 C.3       3 GLL5        0.0000 
     34 CA         -9.5710   32.4120   37.0770 C.3       2 GLP5        0.0000 
     35 CA         -4.5210   32.0228   39.4200 C.3       1 GLC5        0.0000 
     36 CA         -2.7750   32.2830   39.5920 C.3       2 GLP5        0.0000 
     37 CA         -9.6005   37.8225   41.4910 C.3       1 GLC5        0.0000 
     38 CA         -8.1740   38.5020   41.0800 C.3       3 GLL5        0.0000 
     39 CA         -6.6850   39.5150   40.8220 C.3       1 GLC5        0.0000 
     40 CA         -8.2400   34.9312   38.2300 C.3       1 GLC5        0.0000 
     41 CA         -8.0990   36.8530   39.2400 C.3       3 GLL5        0.0000 
     42 CA        -10.0212   41.8852   37.1615 C.3       1 GLC5        0.0000 
     43 CA        -10.6740   42.4640   38.2920 C.3       3 GLL5        0.0000 
     44 CA         -8.7240   41.5630   35.9640 C.3       2 GLP5        0.0000 
     45 CA        -13.4645   41.2535   37.3685 C.3       1 GLC5        0.0000 
     46 CA        -11.9630   41.9510   38.4260 C.3       3 GLL5        0.0000 
     47 CA        -14.7980   40.9680   35.7930 C.3       2 GLP5        0.0000 
     48 CA        -11.7575   39.9180   37.7945 C.3       1 GLC5        0.0000 
     49 CA        -11.3840   38.2970   36.6450 C.3       2 GLP5        0.0000 
     50 CA         -9.2918   41.6433   37.8432 C.3       1 GLC5        0.0000 
     51 CA        -10.0270   41.2980   40.2410 C.3       3 GLL5        0.0000 
     52 CA         -9.5775   36.9830   40.5880 C.3       1 GLC5        0.0000 
     53 CA         -8.3250   38.1710   39.7300 C.3       3 GLL5        0.0000 
     54 CA         -6.6620   38.6755   39.9190 C.3       1 GLC5        0.0000 
     55 CA         -9.9345   37.3595   38.5660 C.3       1 GLC5        0.0000 
     56 CA        -11.6570   37.2070   37.6470 C.3       2 GLP5        0.0000 
     57 CA         -7.4078   36.5731   38.1895 C.3       1 GLC5        0.0000 
     58 CA         -6.6980   35.8860   36.6640 C.3       2 GLP5        0.0000 
     59 CA         -9.3148   36.6136   41.5514 C.3       1 GLC5        0.0000 
@<TRIPOS>BOND
@<TRIPOS>SUBSTRUCTURE
     1 GLC5        1 GROUP        1 X    GLC  0     ROOT GLC X 6
     2 GLP5        3 GROUP        1 Y    GLP  0     ROOT GLP Y 13
     3 GLL5        2 GROUP        1 Z    GLL  0     ROOT GLL Z 20
@<TRIPOS>SET

