#    Name: 3c5u_P41_1_ligand
#    Modification time : Mon Mar 24 20:32:42 2014

@<TRIPOS>MOLECULE
3c5u_P41_1_ligand
   41    44     1     0     0
SMALL
NO_CHARGES


@<TRIPOS>ATOM
      1 C13        -7.5490   36.2130   41.5110 C.ar      1 P41361      0.0000 
      2 C18        -8.0580   30.8800   39.4460 C.3       1 P41361      0.0000 
      3 C17        -5.7630   31.9330   38.6910 C.3       1 P41361      0.0000 
      4 C16        -7.1170   33.8460   40.9230 C.2       1 P41361      0.0000 
      5 C15        -8.3420   39.8800   41.5020 C.2       1 P41361      0.0000 
      6 C19        -6.7710   31.5920   39.8050 C.3       1 P41361      0.0000 
      7 C11        -7.7210   35.8460   40.1600 C.ar      1 P41361      0.0000 
      8 C12       -11.3310   40.8130   40.3850 C.ar      1 P41361      0.0000 
      9 C1        -10.6740   42.4640   38.2920 C.ar      1 P41361      0.0000 
     10 C2        -11.9630   41.9510   38.4260 C.ar      1 P41361      0.0000 
     11 C3         -9.6920   42.1490   39.2040 C.ar      1 P41361      0.0000 
     12 C4         -8.3250   38.1710   39.7300 C.ar      1 P41361      0.0000 
     13 C5         -8.0990   36.8530   39.2400 C.ar      1 P41361      0.0000 
     14 C6        -12.2990   41.1270   39.4620 C.ar      1 P41361      0.0000 
     15 C7         -7.7380   37.5170   41.9880 C.ar      1 P41361      0.0000 
     16 C8         -7.7640   41.5640   42.8160 C.2       1 P41361      0.0000 
     17 C9         -8.1740   38.5020   41.0800 C.ar      1 P41361      0.0000 
     18 C10       -10.0270   41.2980   40.2410 C.ar      1 P41361      0.0000 
     19 C14        -9.0230   41.0370   41.2050 C.2       1 P41361      0.0000 
     20 N20        -8.6610   42.0900   42.0510 N.2       1 P41361      0.0000 
     21 N21        -7.4690   34.5040   39.8470 N.2       1 P41361      0.0000 
     22 N22        -6.8400   32.5290   40.9320 N.pl3     1 P41361      0.0000 
     23 O23        -7.5150   40.2530   42.5440 O.3       1 P41361      0.0000 
     24 F24       -11.6780   39.9970   41.4060 F         1 P41361      0.0000 
     25 S25        -7.0740   34.8040   42.3810 S.3       1 P41361      0.0000 
     26 H          -6.1504   30.6416   40.3504 H         1 P41361      0.0000 
     27 H         -10.4599   43.0888   37.4944 H         1 P41361      0.0000 
     28 H         -12.6782   42.2093   37.7129 H         1 P41361      0.0000 
     29 H          -8.7527   42.5273   39.1204 H         1 P41361      0.0000 
     30 H          -8.6114   38.9035   39.0528 H         1 P41361      0.0000 
     31 H          -8.2069   36.6461   38.2595 H         1 P41361      0.0000 
     32 H         -13.2468   40.7510   39.5519 H         1 P41361      0.0000 
     33 H          -7.5670   37.7483   42.9572 H         1 P41361      0.0000 
     34 H          -7.2737   42.0455   43.5539 H         1 P41361      0.0000 
     35 H          -6.6318   32.0515   41.8888 H         1 P41361      0.0000 
     36 H          -7.8848   29.9927   39.0186 H         1 P41361      0.0000 
     37 H          -8.6263   30.7114   40.2514 H         1 P41361      0.0000 
     38 H          -8.6100   31.4119   38.8039 H         1 P41361      0.0000 
     39 H          -4.9571   32.4034   39.0506 H         1 P41361      0.0000 
     40 H          -5.4379   31.1127   38.2205 H         1 P41361      0.0000 
     41 H          -6.1649   32.5295   37.9963 H         1 P41361      0.0000 
@<TRIPOS>BOND
     1    7    1 ar   
     2   15    1 ar   
     3   25    1 1    
     4    6    2 1    
     5   36    2 1    
     6   37    2 1    
     7   38    2 1    
     8    6    3 1    
     9   39    3 1    
    10   40    3 1    
    11   41    3 1    
    12   21    4 2    
    13   22    4 1    
    14   25    4 1    
    15   17    5 1    
    16   19    5 2    
    17   23    5 1    
    18   22    6 1    
    19   26    6 1    
    20   13    7 ar   
    21   21    7 1    
    22   14    8 ar   
    23   18    8 ar   
    24   24    8 1    
    25   10    9 ar   
    26   11    9 ar   
    27   27    9 1    
    28   14   10 ar   
    29   28   10 1    
    30   18   11 ar   
    31   29   11 1    
    32   13   12 ar   
    33   17   12 ar   
    34   30   12 1    
    35   31   13 1    
    36   32   14 1    
    37   17   15 ar   
    38   33   15 1    
    39   20   16 2    
    40   23   16 1    
    41   34   16 1    
    42   19   18 1    
    43   20   19 1    
    44   35   22 1    
@<TRIPOS>SUBSTRUCTURE
     1 P41361      1 GROUP   
@<TRIPOS>SET

