#    Name: 3rgz_BLD_1_INTS_M
#    Modification time : Tue Mar 25 11:24:56 2014

@<TRIPOS>MOLECULE
3rgz_BLD_1_INTS_M
   67     0     6     0     0
SMALL
NO_CHARGES


@<TRIPOS>ATOM
      1 CA         20.7485  -13.1085   31.4000 C.3       2 GLC5        0.0000 
      2 CA         21.6370  -11.2360   31.4280 C.3       6 GLL5        0.0000 
      3 CA         19.8600  -14.9810   31.3720 C.3       4 GLP5        0.0000 
      4 CA         18.2910  -12.2205   28.6240 C.3       2 GLC5        0.0000 
      5 CA         19.1070  -11.6940   30.2240 C.3       6 GLL5        0.0000 
      6 CA         17.4750  -12.7470   27.0240 C.3       4 GLP5        0.0000 
      7 CA         19.4835  -13.3375   30.7980 C.3       2 GLC5        0.0000 
      8 CA         18.7525  -11.1905   28.4195 C.3       2 GLC5        0.0000 
      9 CA         18.8600  -10.2040   30.3020 C.3       6 GLL5        0.0000 
     10 CA         18.6450  -12.1770   26.5370 C.3       4 GLP5        0.0000 
     11 CA         16.9160  -11.7035   28.3840 C.3       2 GLC5        0.0000 
     12 CA         16.3570  -10.6600   29.7440 C.3       6 GLL5        0.0000 
     13 CA         15.9885  -12.7935   30.1725 C.3       2 GLC5        0.0000 
     14 CA         15.6200  -14.9270   30.6010 C.3       4 GLP5        0.0000 
     15 CA         13.2725  -11.0020   29.7910 C.3       2 GLC5        0.0000 
     16 CA         15.0810   -9.8810   30.0680 C.3       6 GLL5        0.0000 
     17 CA         11.4640  -12.1230   29.5140 C.3       4 GLP5        0.0000 
     18 CA         15.0230  -11.4840   28.5185 C.3       2 GLC5        0.0000 
     19 CA         14.9650  -13.0870   26.9690 C.3       4 GLP5        0.0000 
     20 CA         16.3035   -7.8355   27.4700 C.3       2 GLC5        0.0000 
     21 CA         17.1440   -7.8520   29.2170 C.3       6 GLL5        0.0000 
     22 CA         15.4630   -7.8190   25.7230 C.3       4 GLP5        0.0000 
     23 CA         21.3460   -8.3680   28.4105 C.3       2 GLC5        0.0000 
     24 CA         21.8250   -9.0020   30.3140 C.3       6 GLL5        0.0000 
     25 CA         20.8670   -7.7340   26.5070 C.3       4 GLP5        0.0000 
     26 CA         23.1065   -7.5630   30.8455 C.3       2 GLC5        0.0000 
     27 CA         24.3880   -6.1240   31.3770 C.3       4 GLP5        0.0000 
     28 CA         23.1795   -9.1505   28.7985 C.3       2 GLC5        0.0000 
     29 CA         24.5340   -9.2990   27.2830 C.3       4 GLP5        0.0000 
     30 CA         15.9115   -4.5570   31.5795 C.3       2 GLC5        0.0000 
     31 CA         14.8020   -6.2770   31.5760 C.3       6 GLL5        0.0000 
     32 CA         17.0210   -2.8370   31.5830 C.3       4 GLP5        0.0000 
     33 N           9.5790   -7.0695   32.0430 N.am      1 SEC2        0.0000 
     34 N          10.8250   -7.7500   31.4920 N.am      5 SEL2        0.0000 
     35 N           8.3330   -6.3890   32.5940 N.am      3 SEP2        0.0000 
     36 CA          9.6430   -5.7975   25.7085 C.3       2 GLC5        0.0000 
     37 CA         10.9050   -5.6500   27.5590 C.3       6 GLL5        0.0000 
     38 CA          8.3810   -5.9450   23.8580 C.3       4 GLP5        0.0000 
     39 CA         10.5235   -3.5770   27.3415 C.3       2 GLC5        0.0000 
     40 CA         10.1420   -1.5040   27.1240 C.3       4 GLP5        0.0000 
     41 CA         12.5580   -5.6920   26.5335 C.3       2 GLC5        0.0000 
     42 CA         14.2110   -5.7340   25.5080 C.3       4 GLP5        0.0000 
     43 CA         11.1960   -6.9460   25.9265 C.3       2 GLC5        0.0000 
     44 CA         11.4870   -8.2420   24.2940 C.3       4 GLP5        0.0000 
     45 CA         10.7465   -3.0195   28.4650 C.3       2 GLC5        0.0000 
     46 CA         11.3510   -4.5350   29.8060 C.3       6 GLL5        0.0000 
     47 CA         10.7600   -3.4085   31.2355 C.3       2 GLC5        0.0000 
     48 CA         10.1690   -2.2820   32.6650 C.3       4 GLP5        0.0000 
     49 CA         12.4945   -3.0800   29.7955 C.3       2 GLC5        0.0000 
     50 CA         13.6380   -1.6250   29.7850 C.3       4 GLP5        0.0000 
     51 CA         11.2160   -9.8495   29.6685 C.3       2 GLC5        0.0000 
     52 CA         11.5130   -8.2270   28.7340 C.3       6 GLL5        0.0000 
     53 CA         10.9190  -11.4720   30.6030 C.3       4 GLP5        0.0000 
     54 CA         11.5080   -9.3530   27.0605 C.3       2 GLC5        0.0000 
     55 CA         11.5030  -10.4790   25.3870 C.3       4 GLP5        0.0000 
     56 CA          9.4515   -8.0490   28.5560 C.3       2 GLC5        0.0000 
     57 CA          7.3900   -7.8710   28.3780 C.3       4 GLP5        0.0000 
     58 CA         23.3600   -7.6940   32.2108 C.3       2 GLC5        0.0000 
     59 CA         21.6440   -9.0840   32.7630 C.3       6 GLL5        0.0000 
     60 CA         25.0877   -9.6348   33.6045 C.3       2 GLC5        0.0000 
     61 CA         23.0200   -9.4440   33.3260 C.3       6 GLL5        0.0000 
     62 CA         26.9940   -9.0800   33.9110 C.3       4 GLP5        0.0000 
     63 CA         11.7458   -9.5362   30.8590 C.3       2 GLC5        0.0000 
     64 CA         13.1450   -8.0750   31.2640 C.3       6 GLL5        0.0000 
     65 CA         13.2873   -7.1325   27.6965 C.3       2 GLC5        0.0000 
     66 CA         14.8690   -6.6830   26.2990 C.3       4 GLP5        0.0000 
     67 CA          9.1580   -6.8020   28.3490 C.3       2 GLC5        0.0000 
@<TRIPOS>BOND
@<TRIPOS>SUBSTRUCTURE
     1 SEC2       33 GROUP        1 X    SEC  0     ROOT SEC X 2
     2 GLC5        1 GROUP        1 X    GLC  0     **** GLC X 6
     3 SEP2       35 GROUP        1 Y    SEP  0     ROOT SEP Y 9
     4 GLP5        3 GROUP        1 Y    GLP  0     **** GLP Y 13
     5 SEL2       34 GROUP        1 Z    SEL  0     ROOT SEL Z 16
     6 GLL5        2 GROUP        1 Z    GLL  0     **** GLL Z 20
@<TRIPOS>SET

