#    Name: 3rgz_BLD_1_ligand
#    Modification time : Tue Mar 25 11:24:57 2014

@<TRIPOS>MOLECULE
3rgz_BLD_1_ligand
   82    85     1     0     0
SMALL
NO_CHARGES


@<TRIPOS>ATOM
      1 C01        21.6440   -9.0840   32.7630 C.3       1 BLD800      0.0000 
      2 C02        23.0200   -9.4440   33.3260 C.3       1 BLD800      0.0000 
      3 O02        23.0360   -8.9980   34.6930 O.3       1 BLD800      0.0000 
      4 C03        23.3430  -10.9350   33.2700 C.3       1 BLD800      0.0000 
      5 O03        22.5170  -11.6570   34.1920 O.3       1 BLD800      0.0000 
      6 C04        23.0840  -11.4760   31.8770 C.3       1 BLD800      0.0000 
      7 C05        21.6370  -11.2360   31.4280 C.3       1 BLD800      0.0000 
      8 C06        21.5630  -11.7790   30.0380 C.2       1 BLD800      0.0000 
      9 O06        22.5260  -11.6450   29.3040 O.2       1 BLD800      0.0000 
     10 C07        19.1070  -11.6940   30.2240 C.3       1 BLD800      0.0000 
     11 O07        20.2600  -11.8620   29.4180 O.3       1 BLD800      0.0000 
     12 C08        18.8600  -10.2040   30.3020 C.3       1 BLD800      0.0000 
     13 C09        19.6530   -9.5560   31.4320 C.3       1 BLD800      0.0000 
     14 C10        21.1880   -9.7640   31.4720 C.3       1 BLD800      0.0000 
     15 C11        19.3190   -8.0630   31.4150 C.3       1 BLD800      0.0000 
     16 C12        17.8360   -7.7450   31.6290 C.3       1 BLD800      0.0000 
     17 C13        16.9740   -8.4730   30.6020 C.3       1 BLD800      0.0000 
     18 C14        17.3920   -9.9400   30.5990 C.3       1 BLD800      0.0000 
     19 C15        16.3570  -10.6600   29.7440 C.3       1 BLD800      0.0000 
     20 C16        15.0810   -9.8810   30.0680 C.3       1 BLD800      0.0000 
     21 C17        15.4960   -8.6800   30.9300 C.3       1 BLD800      0.0000 
     22 C18        17.1440   -7.8520   29.2170 C.3       1 BLD800      0.0000 
     23 C19        21.8250   -9.0020   30.3140 C.3       1 BLD800      0.0000 
     24 C20        14.4870   -7.5380   30.7800 C.3       1 BLD800      0.0000 
     25 C21        14.8020   -6.2770   31.5760 C.3       1 BLD800      0.0000 
     26 C22        13.1450   -8.0750   31.2640 C.3       1 BLD800      0.0000 
     27 O22        13.1820   -8.3620   32.6690 O.3       1 BLD800      0.0000 
     28 C23        12.0000   -7.1260   30.9660 C.3       1 BLD800      0.0000 
     29 O23        10.8250   -7.7500   31.4920 O.3       1 BLD800      0.0000 
     30 C24        11.8980   -6.9370   29.4540 C.3       1 BLD800      0.0000 
     31 C25        10.9470   -5.8160   29.0810 C.3       1 BLD800      0.0000 
     32 C26        10.9050   -5.6500   27.5590 C.3       1 BLD800      0.0000 
     33 C27        11.3510   -4.5350   29.8060 C.3       1 BLD800      0.0000 
     34 C28        11.5130   -8.2270   28.7340 C.3       1 BLD800      0.0000 
     35 H          21.6054   -7.9732   32.6098 H         1 BLD800      0.0000 
     36 H          20.8758   -9.2814   33.5565 H         1 BLD800      0.0000 
     37 H          23.7667   -8.9019   32.7572 H         1 BLD800      0.0000 
     38 H          24.3859  -11.0691   33.4976 H         1 BLD800      0.0000 
     39 H          23.2853  -12.5514   31.8594 H         1 BLD800      0.0000 
     40 H          23.7593  -10.9914   31.1654 H         1 BLD800      0.0000 
     41 H          20.9883  -11.8300   32.0588 H         1 BLD800      0.0000 
     42 H          19.2536  -12.0678   31.2318 H         1 BLD800      0.0000 
     43 H          18.2306  -12.1618   29.7880 H         1 BLD800      0.0000 
     44 H          19.1137   -9.7333   29.3809 H         1 BLD800      0.0000 
     45 H          19.2363   -9.9367   32.3928 H         1 BLD800      0.0000 
     46 H          19.6386   -7.6365   30.4488 H         1 BLD800      0.0000 
     47 H          19.9083   -7.5563   32.1983 H         1 BLD800      0.0000 
     48 H          17.6836   -6.6719   31.5328 H         1 BLD800      0.0000 
     49 H          17.5452   -8.0562   32.6303 H         1 BLD800      0.0000 
     50 H          17.1881  -10.2926   31.6626 H         1 BLD800      0.0000 
     51 H          16.2560  -11.6588   30.0637 H         1 BLD800      0.0000 
     52 H          16.5924  -10.5502   28.7229 H         1 BLD800      0.0000 
     53 H          14.4092  -10.5040   30.6240 H         1 BLD800      0.0000 
     54 H          14.6320   -9.5304   29.1603 H         1 BLD800      0.0000 
     55 H          15.4454   -9.0654   31.9769 H         1 BLD800      0.0000 
     56 H          14.3791   -7.2946   29.7374 H         1 BLD800      0.0000 
     57 H          12.9467   -9.0079   30.7079 H         1 BLD800      0.0000 
     58 H          12.2017   -6.1947   31.4307 H         1 BLD800      0.0000 
     59 H          12.9040   -6.6497   29.0874 H         1 BLD800      0.0000 
     60 H           9.9484   -6.1001   29.4198 H         1 BLD800      0.0000 
     61 H          18.0933   -7.8936   28.9053 H         1 BLD800      0.0000 
     62 H          16.5889   -8.3201   28.5294 H         1 BLD800      0.0000 
     63 H          16.8738   -6.8893   29.2059 H         1 BLD800      0.0000 
     64 H          22.8236   -9.0134   30.3665 H         1 BLD800      0.0000 
     65 H          21.5735   -9.3934   29.4288 H         1 BLD800      0.0000 
     66 H          21.5431   -8.0426   30.3010 H         1 BLD800      0.0000 
     67 H          15.6806   -5.8801   31.3106 H         1 BLD800      0.0000 
     68 H          14.1081   -5.5697   31.4411 H         1 BLD800      0.0000 
     69 H          14.8475   -6.4595   32.5582 H         1 BLD800      0.0000 
     70 H          11.8061   -5.4320   27.1842 H         1 BLD800      0.0000 
     71 H          10.5916   -6.4830   27.1031 H         1 BLD800      0.0000 
     72 H          10.2867   -4.9142   27.2826 H         1 BLD800      0.0000 
     73 H          12.2777   -4.2477   29.5638 H         1 BLD800      0.0000 
     74 H          10.7409   -3.7744   29.5840 H         1 BLD800      0.0000 
     75 H          11.3293   -4.6479   30.7994 H         1 BLD800      0.0000 
     76 H          11.4463   -8.0946   27.7450 H         1 BLD800      0.0000 
     77 H          12.1836   -8.9526   28.8880 H         1 BLD800      0.0000 
     78 H          10.6281   -8.5752   29.0435 H         1 BLD800      0.0000 
     79 H          22.7805   -9.8018   35.2303 H         1 BLD800      0.0000 
     80 H          22.9470  -12.5560   34.2753 H         1 BLD800      0.0000 
     81 H          13.8108   -9.1344   32.7588 H         1 BLD800      0.0000 
     82 H          11.1590   -8.3842   32.1893 H         1 BLD800      0.0000 
@<TRIPOS>BOND
     1    2    1 1    
     2   14    1 1    
     3   35    1 1    
     4   36    1 1    
     5    3    2 1    
     6    4    2 1    
     7   37    2 1    
     8   79    3 1    
     9    5    4 1    
    10    6    4 1    
    11   38    4 1    
    12   80    5 1    
    13    7    6 1    
    14   39    6 1    
    15   40    6 1    
    16    8    7 1    
    17   14    7 1    
    18   41    7 1    
    19    9    8 2    
    20   11    8 1    
    21   11   10 1    
    22   12   10 1    
    23   42   10 1    
    24   43   10 1    
    25   13   12 1    
    26   18   12 1    
    27   44   12 1    
    28   14   13 1    
    29   15   13 1    
    30   45   13 1    
    31   23   14 1    
    32   16   15 1    
    33   46   15 1    
    34   47   15 1    
    35   17   16 1    
    36   48   16 1    
    37   49   16 1    
    38   18   17 1    
    39   21   17 1    
    40   22   17 1    
    41   19   18 1    
    42   50   18 1    
    43   20   19 1    
    44   51   19 1    
    45   52   19 1    
    46   21   20 1    
    47   53   20 1    
    48   54   20 1    
    49   24   21 1    
    50   55   21 1    
    51   61   22 1    
    52   62   22 1    
    53   63   22 1    
    54   64   23 1    
    55   65   23 1    
    56   66   23 1    
    57   25   24 1    
    58   26   24 1    
    59   56   24 1    
    60   67   25 1    
    61   68   25 1    
    62   69   25 1    
    63   27   26 1    
    64   28   26 1    
    65   57   26 1    
    66   81   27 1    
    67   29   28 1    
    68   30   28 1    
    69   58   28 1    
    70   82   29 1    
    71   31   30 1    
    72   34   30 1    
    73   59   30 1    
    74   32   31 1    
    75   33   31 1    
    76   60   31 1    
    77   70   32 1    
    78   71   32 1    
    79   72   32 1    
    80   73   33 1    
    81   74   33 1    
    82   75   33 1    
    83   76   34 1    
    84   77   34 1    
    85   78   34 1    
@<TRIPOS>SUBSTRUCTURE
     1 BLD800      1 GROUP   
@<TRIPOS>SET

