#    Name: 1y6f_UPG_1_INTS_M
#    Modification time : Tue Mar 25 10:51:34 2014

@<TRIPOS>MOLECULE
1y6f_UPG_1_INTS_M
   97     0    12     0     0
SMALL
NO_CHARGES


@<TRIPOS>ATOM
      1 O          28.9035  -12.2675   53.5830 O.2       1 ALC1        0.0000 
      2 O          27.5830  -12.3600   53.1340 O.2       9 ALL1        0.0000 
      3 O          30.2240  -12.1750   54.0320 O.2       5 ALP1        0.0000 
      4 CA         25.7655  -13.7460   54.3460 C.3       4 GLC5        0.0000 
      5 CA         25.2750  -12.2190   53.6170 C.3      12 GLL5        0.0000 
      6 CA         26.2560  -15.2730   55.0750 C.3       8 GLP5        0.0000 
      7 CA         25.7400  -14.1455   53.0730 C.3       4 GLC5        0.0000 
      8 CA         25.0460  -12.7200   52.4020 C.3      12 GLL5        0.0000 
      9 CA         26.4340  -15.5710   53.7440 C.3       8 GLP5        0.0000 
     10 N          28.2225  -14.5280   50.0410 N.am      2 SEC2        0.0000 
     11 N          28.3020  -13.1840   51.1450 N.am     10 SEL2        0.0000 
     12 N          28.1430  -15.8720   48.9370 N.am      6 SEP2        0.0000 
     13 N          26.2465  -10.1180   55.2515 N.am      2 SEC2        0.0000 
     14 N          26.9590  -11.4840   55.1080 N.am     10 SEL2        0.0000 
     15 N          25.5340   -8.7520   55.3950 N.am      6 SEP2        0.0000 
     16 N          25.9890  -11.0575   55.8595 N.am      2 SEC2        0.0000 
     17 N          25.0190  -10.6310   56.6110 N.am      6 SEP2        0.0000 
     18 N          28.1070  -11.9115   55.8845 N.am      2 SEC2        0.0000 
     19 N          29.2550  -12.3390   56.6610 N.am      6 SEP2        0.0000 
     20 CA         26.7330  -14.5390   51.6790 C.3       4 GLC5        0.0000 
     21 CA         25.7660  -13.5100   50.1720 C.3      12 GLL5        0.0000 
     22 CA         27.7000  -15.5680   53.1860 C.3       8 GLP5        0.0000 
     23 CA         25.7130  -15.1960   51.9065 C.3       4 GLC5        0.0000 
     24 CA         24.9920  -14.8210   50.0690 C.3      12 GLL5        0.0000 
     25 N          25.6150  -15.9040   51.5370 N.am      2 SEC2        0.0000 
     26 N          25.8880  -15.9090   50.0890 N.am     10 SEL2        0.0000 
     27 N          25.3420  -15.8990   52.9850 N.am      6 SEP2        0.0000 
     28 O          25.4890  -17.0580   49.5830 O.2       1 ALC1        0.0000 
     29 O          25.8880  -15.9090   50.0890 O.2       9 ALL1        0.0000 
     30 O          25.0900  -18.2070   49.0770 O.2       5 ALP1        0.0000 
     31 CA         24.5670  -12.6615   46.6465 C.3       4 GLC5        0.0000 
     32 CA         23.9730  -13.1720   48.7010 C.3      12 GLL5        0.0000 
     33 CA         25.1610  -12.1510   44.5920 C.3       8 GLP5        0.0000 
     34 O          25.7950  -16.0785   47.6110 O.2       1 ALC1        0.0000 
     35 O          25.2690  -14.9140   47.6680 O.2       9 ALL1        0.0000 
     36 O          26.3210  -17.2430   47.5540 O.2       5 ALP1        0.0000 
     37 N          19.7535  -15.1990   46.5960 N.am      2 SEC2        0.0000 
     38 N          19.4590  -13.6930   47.2300 N.am     10 SEL2        0.0000 
     39 N          20.0480  -16.7050   45.9620 N.am      6 SEP2        0.0000 
     40 N          20.8855  -16.4395   48.6840 N.am      2 SEC2        0.0000 
     41 N          20.4720  -15.1140   49.0990 N.am     10 SEL2        0.0000 
     42 N          21.2990  -17.7650   48.2690 N.am      6 SEP2        0.0000 
     43 N          20.1395  -16.2190   49.8100 N.am      2 SEC2        0.0000 
     44 N          19.8070  -17.3240   50.5210 N.am      6 SEP2        0.0000 
     45 NZ         17.4735  -10.1220   51.3915 N.4       3 LYC4        0.0000 
     46 NZ         17.8260  -11.1280   50.2530 N.4      11 LYL4        0.0000 
     47 NZ         18.2070   -8.8960   53.2660 N.4       7 LYP4        0.0000 
     48 NZ         17.2485  -12.1085   50.9335 N.4       3 LYC4        0.0000 
     49 NZ         16.6710  -13.0890   51.6140 N.4       7 LYP4        0.0000 
     50 N          17.4735  -10.1220   51.3915 N.am      2 SEC2        0.0000 
     51 N          17.8260  -11.1280   50.2530 N.am     10 SEL2        0.0000 
     52 N          17.1210   -9.1160   52.5300 N.am      6 SEP2        0.0000 
     53 N          17.2485  -12.1085   50.9335 N.am      2 SEC2        0.0000 
     54 N          16.6710  -13.0890   51.6140 N.am      6 SEP2        0.0000 
     55 N          21.2240  -10.1795   48.8610 N.am      2 SEC2        0.0000 
     56 N          20.2880  -10.4880   50.1140 N.am     10 SEL2        0.0000 
     57 N          22.1600   -9.8710   47.6080 N.am      6 SEP2        0.0000 
     58 N          19.7670  -10.1065   51.6590 N.am      2 SEC2        0.0000 
     59 N          19.2460   -9.7250   53.2040 N.am      6 SEP2        0.0000 
     60 CA         19.7820  -10.2145   46.8755 C.3       4 GLC5        0.0000 
     61 CA         17.9730  -10.0750   47.3990 C.3      12 GLL5        0.0000 
     62 CA         21.5910  -10.3540   46.3520 C.3       8 GLP5        0.0000 
     63 CA         15.2240  -11.1215   49.2575 C.3       4 GLC5        0.0000 
     64 CA         16.5170  -10.5310   47.5150 C.3      12 GLL5        0.0000 
     65 CA         13.9310  -11.7120   51.0000 C.3       8 GLP5        0.0000 
     66 CA         17.7050   -9.1110   43.3840 C.3       4 GLC5        0.0000 
     67 CA         18.6170  -10.9900   43.8490 C.3      12 GLL5        0.0000 
     68 CA         16.7930   -7.2320   42.9190 C.3       8 GLP5        0.0000 
     69 CA         18.5740  -12.5275   42.4735 C.3       4 GLC5        0.0000 
     70 CA         18.5310  -14.0650   41.0980 C.3       8 GLP5        0.0000 
     71 CA         20.1595  -12.3115   43.3830 C.3       4 GLC5        0.0000 
     72 CA         21.7020  -13.6330   42.9170 C.3       8 GLP5        0.0000 
     73 N          13.9235  -12.0245   46.8985 N.am      2 SEC2        0.0000 
     74 N          15.1090  -12.4550   47.0460 N.am     10 SEL2        0.0000 
     75 N          12.7380  -11.5940   46.7510 N.am      6 SEP2        0.0000 
     76 N          16.0230  -11.0495   42.7445 N.am      2 SEC2        0.0000 
     77 N          17.4740  -11.0610   43.0000 N.am     10 SEL2        0.0000 
     78 N          14.5720  -11.0380   42.4890 N.am      6 SEP2        0.0000 
     79 O          17.6410   -9.8135   42.0205 O.2       1 ALC1        0.0000 
     80 O          17.4740  -11.0610   43.0000 O.2       9 ALL1        0.0000 
     81 O          17.8080   -8.5660   41.0410 O.2       5 ALP1        0.0000 
     82 CA         23.3468  -15.8963   50.3828 C.3       4 GLC5        0.0000 
     83 CA         24.3290  -14.6520   48.7040 C.3      12 GLL5        0.0000 
     84 CA         22.0330  -17.0560   51.3790 C.3       8 GLP5        0.0000 
     85 CA         23.2820  -14.9555   47.2572 C.3       4 GLC5        0.0000 
     86 CA         22.4130  -15.9990   45.8120 C.3       8 GLP5        0.0000 
     87 CA         23.6118  -11.0535   49.0130 C.3       4 GLC5        0.0000 
     88 CA         23.9440   -9.0990   49.0740 C.3       8 GLP5        0.0000 
     89 CA         22.4352  -11.6810   47.6520 C.3       4 GLC5        0.0000 
     90 CA         22.5860  -12.8440   49.2030 C.3      12 GLL5        0.0000 
     91 CA         14.3383  -10.9748   47.4415 C.3       4 GLC5        0.0000 
     92 CA         12.2010  -10.7090   47.6550 C.3       8 GLP5        0.0000 
     93 CA         16.4353  -13.7565   46.9023 C.3       4 GLC5        0.0000 
     94 CA         16.4340  -11.9500   46.9410 C.3      12 GLL5        0.0000 
     95 CA         16.2100  -15.5660   47.6000 C.3       8 GLP5        0.0000 
     96 CA         20.0150  -10.7387   45.4640 C.3       4 GLC5        0.0000 
     97 CA         18.2610  -11.2570   45.3030 C.3      12 GLL5        0.0000 
@<TRIPOS>BOND
@<TRIPOS>SUBSTRUCTURE
     1 ALC1        1 GROUP        1 X    ALC  0     ROOT ALC X 1
     2 SEC2       10 GROUP        1 X    SEC  0     **** SEC X 2
     3 LYC4       45 GROUP        1 X    LYC  0     **** LYC X 4
     4 GLC5        4 GROUP        1 X    GLC  0     **** GLC X 6
     5 ALP1        3 GROUP        1 Y    ALP  0     ROOT ALP Y 8
     6 SEP2       12 GROUP        1 Y    SEP  0     **** SEP Y 9
     7 LYP4       47 GROUP        1 Y    LYP  0     **** LYP Y 11
     8 GLP5        6 GROUP        1 Y    GLP  0     **** GLP Y 13
     9 ALL1        2 GROUP        1 Z    ALL  0     ROOT ALL Z 15
    10 SEL2       11 GROUP        1 Z    SEL  0     **** SEL Z 16
    11 LYL4       46 GROUP        1 Z    LYL  0     **** LYL Z 18
    12 GLL5        5 GROUP        1 Z    GLL  0     **** GLL Z 20
@<TRIPOS>SET

