#    Name: 1y6f_UPG_1_ligand
#    Modification time : Tue Mar 25 10:51:34 2014

@<TRIPOS>MOLECULE
1y6f_UPG_1_ligand
   58    60     1     0     0
SMALL
NO_CHARGES


@<TRIPOS>ATOM
      1 N1         26.0560  -13.0340   51.5280 N.am      1 UPG501      0.0000 
      2 C2         27.3790  -12.8790   51.8820 C.2       1 UPG501      0.0000 
      3 N3         27.5830  -12.3600   53.1340 N.am      1 UPG501      0.0000 
      4 C4         26.6190  -11.9990   54.0480 C.2       1 UPG501      0.0000 
      5 C5         25.2750  -12.2190   53.6170 C.2       1 UPG501      0.0000 
      6 C6         25.0460  -12.7200   52.4020 C.2       1 UPG501      0.0000 
      7 O2         28.3020  -13.1840   51.1450 O.2       1 UPG501      0.0000 
      8 O4         26.9590  -11.4840   55.1080 O.2       1 UPG501      0.0000 
      9 C1C        25.7660  -13.5100   50.1720 C.3       1 UPG501      0.0000 
     10 C2C        24.9920  -14.8210   50.0690 C.3       1 UPG501      0.0000 
     11 O2C        25.8880  -15.9090   50.0890 O.3       1 UPG501      0.0000 
     12 C3C        24.3290  -14.6520   48.7040 C.3       1 UPG501      0.0000 
     13 C4C        23.9730  -13.1720   48.7010 C.3       1 UPG501      0.0000 
     14 O4C        24.9560  -12.5330   49.5550 O.3       1 UPG501      0.0000 
     15 O3C        25.2690  -14.9140   47.6680 O.3       1 UPG501      0.0000 
     16 C5C        22.5860  -12.8440   49.2030 C.3       1 UPG501      0.0000 
     17 O5C        21.6370  -13.1120   48.1820 O.3       1 UPG501      0.0000 
     18 PA         20.2290  -13.7820   48.4870 P.3       1 UPG501      0.0000 
     19 O1A        19.4590  -13.6930   47.2300 O.co2     1 UPG501      0.0000 
     20 O2A        20.4720  -15.1140   49.0990 O.co2     1 UPG501      0.0000 
     21 O3A        19.5670  -12.8250   49.6310 O.3       1 UPG501      0.0000 
     22 PB         19.1400  -11.2510   49.5860 P.3       1 UPG501      0.0000 
     23 O1B        17.8260  -11.1280   50.2530 O.co2     1 UPG501      0.0000 
     24 O2B        20.2880  -10.4880   50.1140 O.co2     1 UPG501      0.0000 
     25 O3B        18.9620  -10.9620   48.0250 O.3       1 UPG501      0.0000 
     26 C1'        17.9730  -10.0750   47.3990 C.3       1 UPG501      0.0000 
     27 C2'        16.5170  -10.5310   47.5150 C.3       1 UPG501      0.0000 
     28 C3'        16.4340  -11.9500   46.9410 C.3       1 UPG501      0.0000 
     29 C4'        16.8870  -11.9440   45.4680 C.3       1 UPG501      0.0000 
     30 C5'        18.2610  -11.2570   45.3030 C.3       1 UPG501      0.0000 
     31 C6'        18.6170  -10.9900   43.8490 C.3       1 UPG501      0.0000 
     32 O2'        16.0810  -10.4930   48.8650 O.3       1 UPG501      0.0000 
     33 O3'        15.1090  -12.4550   47.0460 O.3       1 UPG501      0.0000 
     34 O4'        16.9760  -13.2850   45.0030 O.3       1 UPG501      0.0000 
     35 O5'        18.3030   -9.9740   45.9970 O.3       1 UPG501      0.0000 
     36 O6'        17.4740  -11.0610   43.0000 O.3       1 UPG501      0.0000 
     37 H          28.6124  -12.2177   53.4392 H         1 UPG501      0.0000 
     38 H          24.5174  -11.9787   54.2714 H         1 UPG501      0.0000 
     39 H          24.0497  -12.8881   52.0841 H         1 UPG501      0.0000 
     40 H          26.6865  -13.6188   49.6073 H         1 UPG501      0.0000 
     41 H          24.2517  -14.8250   50.8061 H         1 UPG501      0.0000 
     42 H          23.4594  -15.2162   48.6698 H         1 UPG501      0.0000 
     43 H          24.0911  -12.7977   47.6907 H         1 UPG501      0.0000 
     44 H          22.5737  -11.7879   49.5027 H         1 UPG501      0.0000 
     45 H          22.3981  -13.4465   50.1013 H         1 UPG501      0.0000 
     46 H          18.0454   -9.0774   47.8419 H         1 UPG501      0.0000 
     47 H          15.9247   -9.8880   46.8772 H         1 UPG501      0.0000 
     48 H          17.1365  -12.5689   47.4920 H         1 UPG501      0.0000 
     49 H          16.1634  -11.3806   44.8985 H         1 UPG501      0.0000 
     50 H          19.0227  -11.9153   45.7170 H         1 UPG501      0.0000 
     51 H          19.3880  -11.7254   43.5518 H         1 UPG501      0.0000 
     52 H          19.0974   -9.9949   43.7984 H         1 UPG501      0.0000 
     53 H          25.3936  -16.6593   49.6501 H         1 UPG501      0.0000 
     54 H          25.8875  -15.6020   48.0478 H         1 UPG501      0.0000 
     55 H          16.8916  -10.2364   49.3915 H         1 UPG501      0.0000 
     56 H          15.1512  -13.1437   47.7698 H         1 UPG501      0.0000 
     57 H          17.1890  -13.2075   44.0290 H         1 UPG501      0.0000 
     58 H          17.6198  -10.3520   42.3101 H         1 UPG501      0.0000 
@<TRIPOS>BOND
     1    2    1 1    
     2    6    1 1    
     3    9    1 1    
     4    3    2 1    
     5    7    2 2    
     6    4    3 1    
     7   37    3 1    
     8    5    4 1    
     9    8    4 2    
    10    6    5 2    
    11   38    5 1    
    12   39    6 1    
    13   10    9 1    
    14   14    9 1    
    15   40    9 1    
    16   11   10 1    
    17   12   10 1    
    18   41   10 1    
    19   53   11 1    
    20   13   12 1    
    21   15   12 1    
    22   42   12 1    
    23   14   13 1    
    24   16   13 1    
    25   43   13 1    
    26   54   15 1    
    27   17   16 1    
    28   44   16 1    
    29   45   16 1    
    30   18   17 1    
    31   19   18 ar   
    32   20   18 ar   
    33   21   18 1    
    34   22   21 1    
    35   23   22 ar   
    36   24   22 ar   
    37   25   22 1    
    38   26   25 1    
    39   27   26 1    
    40   35   26 1    
    41   46   26 1    
    42   28   27 1    
    43   32   27 1    
    44   47   27 1    
    45   29   28 1    
    46   33   28 1    
    47   48   28 1    
    48   30   29 1    
    49   34   29 1    
    50   49   29 1    
    51   31   30 1    
    52   35   30 1    
    53   50   30 1    
    54   36   31 1    
    55   51   31 1    
    56   52   31 1    
    57   55   32 1    
    58   56   33 1    
    59   57   34 1    
    60   58   36 1    
@<TRIPOS>SUBSTRUCTURE
     1 UPG501      1 GROUP   
@<TRIPOS>SET

