#    Name: 2vrx_447_1_INTS_M
#    Modification time : Tue Mar 25 02:50:02 2014

@<TRIPOS>MOLECULE
2vrx_447_1_INTS_M
   76     0     9     0     0
SMALL
NO_CHARGES


@<TRIPOS>ATOM
      1 CA         15.8465   -3.6585    5.9325 C.3       3 GLC5        0.0000 
      2 CA         15.3820   -3.5720    3.9270 C.3       9 GLL5        0.0000 
      3 CA         16.3110   -3.7450    7.9380 C.3       6 GLP5        0.0000 
      4 CA         14.2245   -0.0270    2.0335 C.3       3 GLC5        0.0000 
      5 CA         14.4450   -1.2650    3.6960 C.3       9 GLL5        0.0000 
      6 CA         14.0040    1.2110    0.3710 C.3       6 GLP5        0.0000 
      7 CA         15.1790    0.5555    3.7150 C.3       3 GLC5        0.0000 
      8 CA         15.9130    2.3760    3.7340 C.3       6 GLP5        0.0000 
      9 CA         13.1210    0.4640    2.1825 C.3       3 GLC5        0.0000 
     10 CA         12.2380   -0.2830    3.9940 C.3       9 GLL5        0.0000 
     11 CA         11.2665    0.0445    0.8740 C.3       3 GLC5        0.0000 
     12 CA         10.9840   -1.6140    1.6320 C.3       9 GLL5        0.0000 
     13 CA         11.5490    1.7030    0.1160 C.3       6 GLP5        0.0000 
     14 CA          9.5145   -0.0365    5.8990 C.3       3 GLC5        0.0000 
     15 CA         10.0240    0.7310    4.0110 C.3       9 GLL5        0.0000 
     16 CA          9.0050   -0.8040    7.7870 C.3       6 GLP5        0.0000 
     17 N          13.5070    2.8965    6.7960 N.am      2 SEC2        0.0000 
     18 N          12.3590    2.8570    5.8350 N.am      8 SEL2        0.0000 
     19 N          14.6550    2.9360    7.7570 N.am      5 SEP2        0.0000 
     20 CA         11.8250    5.2465    5.1215 C.3       3 GLC5        0.0000 
     21 CA         11.5260    3.9110    6.2290 C.3       9 GLL5        0.0000 
     22 CA         12.1240    6.5820    4.0140 C.3       6 GLP5        0.0000 
     23 CA         10.3780    4.6060    7.8770 C.3       3 GLC5        0.0000 
     24 CA          9.2300    5.3010    9.5250 C.3       6 GLP5        0.0000 
     25 CA         13.3145    4.5620    6.6270 C.3       3 GLC5        0.0000 
     26 CA         15.1030    5.2130    7.0250 C.3       6 GLP5        0.0000 
     27 CA         12.4840    2.5950    7.6675 C.3       3 GLC5        0.0000 
     28 CA         13.4420    1.2790    9.1060 C.3       6 GLP5        0.0000 
     29 CA         10.5150    2.7445    7.2975 C.3       3 GLC5        0.0000 
     30 CA          9.5040    1.5780    8.3660 C.3       6 GLP5        0.0000 
     31 CA          9.3610    4.1355    3.5030 C.3       3 GLC5        0.0000 
     32 CA          9.6760    2.8680    5.1470 C.3       9 GLL5        0.0000 
     33 CA          9.0460    5.4030    1.8590 C.3       6 GLP5        0.0000 
     34 O           4.8885    6.6085    7.9720 O.2       1 ALC1        0.0000 
     35 O           4.6720    6.5130    6.5840 O.2       7 ALL1        0.0000 
     36 O           5.1050    6.7040    9.3600 O.2       4 ALP1        0.0000 
     37 CA          1.1560   11.8490    7.8505 C.3       3 GLC5        0.0000 
     38 CA          1.1690    9.7650    7.7290 C.3       9 GLL5        0.0000 
     39 CA          1.1430   13.9330    7.9720 C.3       6 GLP5        0.0000 
     40 CA         13.8469   -2.5970    5.0344 C.3       3 GLC5        0.0000 
     41 CA         12.8560   -3.0580    6.5060 C.3       6 GLP5        0.0000 
     42 CA         12.8715    1.2955    7.0183 C.3       3 GLC5        0.0000 
     43 CA         11.8710    1.8320    5.1180 C.3       9 GLL5        0.0000 
     44 CA         11.0000    0.9587    1.9672 C.3       3 GLC5        0.0000 
     45 CA         12.2686   -1.5409    5.2516 C.3       3 GLC5        0.0000 
     46 CA         10.8780   -0.3020    3.6260 C.3       9 GLL5        0.0000 
     47 CA         12.1940    2.4002    3.1631 C.3       3 GLC5        0.0000 
     48 CA         12.7310    0.7920    4.7430 C.3       9 GLL5        0.0000 
     49 CA         12.9810    3.2400    1.4830 C.3       6 GLP5        0.0000 
     50 CA          9.9690    1.9611    6.7040 C.3       3 GLC5        0.0000 
     51 CA          8.0240    4.6932    3.3235 C.3       3 GLC5        0.0000 
     52 CA          7.4690    3.7150    5.2320 C.3       9 GLL5        0.0000 
     53 CA          8.4755    2.7488    7.1332 C.3       3 GLC5        0.0000 
     54 CA          5.3160    5.9260    3.1040 C.3       3 GLC5        0.0000 
     55 CA          6.5350    4.2520    4.3440 C.3       9 GLL5        0.0000 
     56 CA          4.5690    7.1320    1.6480 C.3       6 GLP5        0.0000 
     57 CA          6.7110    6.8280    5.6812 C.3       3 GLC5        0.0000 
     58 CA          5.5910    5.1880    4.7760 C.3       9 GLL5        0.0000 
     59 CA          7.8520    8.2670    5.9150 C.3       6 GLP5        0.0000 
     60 CA          8.0920    4.9458    8.1562 C.3       3 GLC5        0.0000 
     61 CA          6.4830    5.0570    7.0060 C.3       9 GLL5        0.0000 
     62 CA          7.4030    6.4287    6.3513 C.3       3 GLC5        0.0000 
     63 CA          7.4250    4.1240    6.5690 C.3       9 GLL5        0.0000 
     64 CA          2.9330    9.5950    5.8197 C.3       3 GLC5        0.0000 
     65 CA          2.7220    7.7630    6.5530 C.3       9 GLL5        0.0000 
     66 CA          3.7910   11.3030    5.3180 C.3       6 GLP5        0.0000 
     67 CA         -0.0607   10.6382    6.1653 C.3       3 GLC5        0.0000 
     68 CA          0.6540    9.0080    6.6780 C.3       9 GLL5        0.0000 
     69 CA         -1.0330   11.8900    5.1270 C.3       6 GLP5        0.0000 
     70 CA          2.3513   10.3448    6.2607 C.3       3 GLC5        0.0000 
     71 CA          0.1304    9.7871    8.9136 C.3       3 GLC5        0.0000 
     72 CA          2.4560    9.5160    8.1970 C.3       9 GLL5        0.0000 
     73 CA         -1.4230   10.1230   10.1270 C.3       6 GLP5        0.0000 
     74 CA          3.9362   10.3770    8.4337 C.3       3 GLC5        0.0000 
     75 CA          5.0280   11.7340    8.9670 C.3       6 GLP5        0.0000 
     76 CA          3.3178   10.1615    6.6092 C.3       3 GLC5        0.0000 
@<TRIPOS>BOND
@<TRIPOS>SUBSTRUCTURE
     1 ALC1       34 GROUP        1 X    ALC  0     ROOT ALC X 1
     2 SEC2       17 GROUP        1 X    SEC  0     **** SEC X 2
     3 GLC5        1 GROUP        1 X    GLC  0     **** GLC X 6
     4 ALP1       36 GROUP        1 Y    ALP  0     ROOT ALP Y 8
     5 SEP2       19 GROUP        1 Y    SEP  0     **** SEP Y 9
     6 GLP5        3 GROUP        1 Y    GLP  0     **** GLP Y 13
     7 ALL1       35 GROUP        1 Z    ALL  0     ROOT ALL Z 15
     8 SEL2       18 GROUP        1 Z    SEL  0     **** SEL Z 16
     9 GLL5        2 GROUP        1 Z    GLL  0     **** GLL Z 20
@<TRIPOS>SET

