#    Name: 2vrx_447_1_ligand
#    Modification time : Tue Mar 25 02:50:02 2014

@<TRIPOS>MOLECULE
2vrx_447_1_ligand
   70    74     1     0     0
SMALL
NO_CHARGES


@<TRIPOS>ATOM
      1 CAT        16.9480   -4.8250    2.4360 C.3       1 4471356     0.0000 
      2 CAQ        17.3820   -6.2530    2.0430 C.3       1 4471356     0.0000 
      3 OBA        16.5960   -7.2470    2.7910 O.3       1 4471356     0.0000 
      4 CAR        15.1470   -7.1230    2.5830 C.3       1 4471356     0.0000 
      5 CAU        14.6970   -5.6620    2.7900 C.3       1 4471356     0.0000 
      6 NBL        15.8080   -4.8830    3.3800 N.4       1 4471356     0.0000 
      7 CAS        15.3820   -3.5720    3.9270 C.3       1 4471356     0.0000 
      8 CAO        15.0790   -2.4420    2.9320 C.3       1 4471356     0.0000 
      9 CAP        14.4450   -1.2650    3.6960 C.3       1 4471356     0.0000 
     10 OBB        13.0060   -1.3450    3.5830 O.3       1 4471356     0.0000 
     11 CBH        12.2380   -0.2830    3.9940 C.ar      1 4471356     0.0000 
     12 CAM        12.7310    0.7920    4.7430 C.ar      1 4471356     0.0000 
     13 CBG        10.8780   -0.3020    3.6260 C.ar      1 4471356     0.0000 
     14 OAZ        10.3890   -1.3700    2.9090 O.3       1 4471356     0.0000 
     15 CAA        10.9840   -1.6140    1.6320 C.3       1 4471356     0.0000 
     16 CAN        10.0240    0.7310    4.0110 C.ar      1 4471356     0.0000 
     17 C5         10.5130    1.8090    4.7560 C.ar      1 4471356     0.0000 
     18 C4         11.8710    1.8320    5.1180 C.ar      1 4471356     0.0000 
     19 N3         12.3590    2.8570    5.8350 N.ar      1 4471356     0.0000 
     20 C2         11.5260    3.9110    6.2290 C.ar      1 4471356     0.0000 
     21 N1         10.1700    3.8940    5.8630 N.ar      1 4471356     0.0000 
     22 C6          9.6760    2.8680    5.1470 C.ar      1 4471356     0.0000 
     23 NAY         8.3690    2.7990    4.7810 N.pl3     1 4471356     0.0000 
     24 CBE         7.4690    3.7150    5.2320 C.ar      1 4471356     0.0000 
     25 CAK         6.5350    4.2520    4.3440 C.ar      1 4471356     0.0000 
     26 CAI         5.5910    5.1880    4.7760 C.ar      1 4471356     0.0000 
     27 CAJ         7.4250    4.1240    6.5690 C.ar      1 4471356     0.0000 
     28 CAH         6.4830    5.0570    7.0060 C.ar      1 4471356     0.0000 
     29 CBD         5.5490    5.5900    6.1190 C.ar      1 4471356     0.0000 
     30 NAX         4.6720    6.5130    6.5840 N.am      1 4471356     0.0000 
     31 CBC         3.4990    6.7670    5.9550 C.2       1 4471356     0.0000 
     32 OAB         3.1050    6.1950    4.9340 O.2       1 4471356     0.0000 
     33 CBF         2.7220    7.7630    6.5530 C.ar      1 4471356     0.0000 
     34 CAF         1.4280    8.0110    6.0900 C.ar      1 4471356     0.0000 
     35 CAD         0.6540    9.0080    6.6780 C.ar      1 4471356     0.0000 
     36 CAC         1.1690    9.7650    7.7290 C.ar      1 4471356     0.0000 
     37 CAE         2.4560    9.5160    8.1970 C.ar      1 4471356     0.0000 
     38 CAG         3.2330    8.5240    7.6040 C.ar      1 4471356     0.0000 
     39 H          16.6695   -4.2918    1.5281 H         1 4471356     0.0000 
     40 H          17.8005   -4.3234    2.8919 H         1 4471356     0.0000 
     41 H          18.4464   -6.3545    2.2600 H         1 4471356     0.0000 
     42 H          17.2336   -6.3676    0.9682 H         1 4471356     0.0000 
     43 H          14.5962   -7.7490    3.2885 H         1 4471356     0.0000 
     44 H          14.8711   -7.4207    1.5690 H         1 4471356     0.0000 
     45 H          13.8328   -5.6619    3.4493 H         1 4471356     0.0000 
     46 H          14.4097   -5.2540    1.8243 H         1 4471356     0.0000 
     47 H          16.1734   -5.5016    4.2687 H         1 4471356     0.0000 
     48 H          16.1617   -3.1920    4.6425 H         1 4471356     0.0000 
     49 H          14.4690   -3.7111    4.5685 H         1 4471356     0.0000 
     50 H          14.3863   -2.7967    2.1861 H         1 4471356     0.0000 
     51 H          15.9966   -2.1142    2.4708 H         1 4471356     0.0000 
     52 H          14.8308   -0.3409    3.2645 H         1 4471356     0.0000 
     53 H          14.7702   -1.3279    4.7349 H         1 4471356     0.0000 
     54 H          13.7173    0.8183    5.0161 H         1 4471356     0.0000 
     55 H           9.0308    0.7018    3.7471 H         1 4471356     0.0000 
     56 H          11.8990    4.6865    6.7778 H         1 4471356     0.0000 
     57 H           8.0503    2.0340    4.1458 H         1 4471356     0.0000 
     58 H           6.5410    3.9545    3.3557 H         1 4471356     0.0000 
     59 H           4.9206    5.5865    4.1049 H         1 4471356     0.0000 
     60 H           8.1011    3.7285    7.2430 H         1 4471356     0.0000 
     61 H           6.4788    5.3537    7.9931 H         1 4471356     0.0000 
     62 H           4.9093    7.0481    7.4595 H         1 4471356     0.0000 
     63 H           1.0477    7.4553    5.3133 H         1 4471356     0.0000 
     64 H          -0.2994    9.1867    6.3367 H         1 4471356     0.0000 
     65 H           0.5995   10.5045    8.1565 H         1 4471356     0.0000 
     66 H           2.8333   10.0641    8.9803 H         1 4471356     0.0000 
     67 H           4.1898    8.3509    7.9427 H         1 4471356     0.0000 
     68 H          11.9644   -1.7958    1.7077 H         1 4471356     0.0000 
     69 H          10.5738   -2.4038    1.1759 H         1 4471356     0.0000 
     70 H          10.8775   -0.8325    1.0172 H         1 4471356     0.0000 
@<TRIPOS>BOND
     1    2    1 1    
     2    6    1 1    
     3   39    1 1    
     4   40    1 1    
     5    3    2 1    
     6   41    2 1    
     7   42    2 1    
     8    4    3 1    
     9    5    4 1    
    10   43    4 1    
    11   44    4 1    
    12    6    5 1    
    13   45    5 1    
    14   46    5 1    
    15    7    6 1    
    16   47    6 1    
    17    8    7 1    
    18   48    7 1    
    19   49    7 1    
    20    9    8 1    
    21   50    8 1    
    22   51    8 1    
    23   10    9 1    
    24   52    9 1    
    25   53    9 1    
    26   11   10 1    
    27   12   11 ar   
    28   13   11 ar   
    29   18   12 ar   
    30   54   12 1    
    31   14   13 1    
    32   16   13 ar   
    33   15   14 1    
    34   68   15 1    
    35   69   15 1    
    36   70   15 1    
    37   17   16 ar   
    38   55   16 1    
    39   18   17 ar   
    40   22   17 ar   
    41   19   18 ar   
    42   20   19 ar   
    43   21   20 ar   
    44   56   20 1    
    45   22   21 ar   
    46   23   22 1    
    47   24   23 1    
    48   57   23 1    
    49   25   24 ar   
    50   27   24 ar   
    51   26   25 ar   
    52   58   25 1    
    53   29   26 ar   
    54   59   26 1    
    55   28   27 ar   
    56   60   27 1    
    57   29   28 ar   
    58   61   28 1    
    59   30   29 1    
    60   31   30 am   
    61   62   30 1    
    62   32   31 2    
    63   33   31 1    
    64   34   33 ar   
    65   38   33 ar   
    66   35   34 ar   
    67   63   34 1    
    68   36   35 ar   
    69   64   35 1    
    70   37   36 ar   
    71   65   36 1    
    72   38   37 ar   
    73   66   37 1    
    74   67   38 1    
@<TRIPOS>SUBSTRUCTURE
     1 4471356     1 GROUP   
@<TRIPOS>SET

