#    Name: 1I6I_1_CAVITY_N1_ALL.mol2
#    Modification time : Tue Mar 11 07:48:22 2014

@<TRIPOS>MOLECULE
1I6I_1_CAVITY_N1_ALL.mol2
   61     0     5     0     0
SMALL
NO_CHARGES


@<TRIPOS>ATOM
      1 DU         -7.1412   18.6431    4.4754 H         5 CUB7        0.0000 
      2 CA         -7.7461   19.8947    3.9118 C.3       4 GLY6        0.0000 
      3 CA         -8.3509   21.1463    3.3482 C.3       4 GLY6        0.0000 
      4 DU         -7.8781   16.9824    5.5705 H         5 CUB7        0.0000 
      5 O          -8.4829   18.2340    5.0069 O.2       2 ALA2        0.0000 
      6 O          -9.0878   19.4856    4.4433 O.2       2 ALA2        0.0000 
      7 O          -9.6926   20.7372    3.8797 O.2       2 ALA2        0.0000 
      8 O          -9.8246   17.8250    5.5384 O.2       2 ALA2        0.0000 
      9 N          -3.5631   18.9280    5.2604 N.2       2 ALA2        0.0000 
     10 DU         -3.0903   14.7641    7.4827 H         5 CUB7        0.0000 
     11 DU         -3.6951   16.0157    6.9191 H         5 CUB7        0.0000 
     12 DU         -4.9048   18.5190    5.7919 H         5 CUB7        0.0000 
     13 CA         -5.5097   19.7706    5.2284 C.3       4 GLY6        0.0000 
     14 DU         -5.6417   16.8583    6.8870 H         5 CUB7        0.0000 
     15 DU         -6.2465   18.1099    6.3234 H         5 CUB7        0.0000 
     16 CA         -6.8514   19.3615    5.7599 C.3       4 GLY6        0.0000 
     17 O          -7.4562   20.6131    5.1963 O.2       2 ALA2        0.0000 
     18 DU         -6.9834   16.4492    7.4185 H         5 CUB7        0.0000 
     19 DU         -7.5882   17.7008    6.8550 H         5 CUB7        0.0000 
     20 DU         -8.1931   18.9525    6.2914 H         5 CUB7        0.0000 
     21 O          -8.7979   20.2041    5.7278 O.2       2 ALA2        0.0000 
     22 CA         -9.4028   21.4557    5.1642 C.3       4 GLY6        0.0000 
     23 DU         -8.9299   17.2918    7.3865 H         5 CUB7        0.0000 
     24 N          -9.5348   18.5434    6.8229 N.2       2 ALA2        0.0000 
     25 O         -10.1396   19.7950    6.2593 O.2       2 ALA2        0.0000 
     26 O          -2.6685   18.3948    7.1085 O.2       2 ALA2        0.0000 
     27 CA         -3.2733   19.6464    6.5449 C.3       4 GLY6        0.0000 
     28 O          -3.8782   20.8980    5.9813 O.2       2 ALA2        0.0000 
     29 CA         -4.0102   17.9858    7.6400 C.3       4 GLY6        0.0000 
     30 OD1        -4.6150   19.2374    7.0764 O.3       3 ASP3        0.0000 
     31 CA         -5.2199   20.4890    6.5128 C.3       4 GLY6        0.0000 
     32 OD1        -5.9567   18.8283    7.6079 O.3       3 ASP3        0.0000 
     33 OD1        -6.5616   20.0799    7.0443 O.3       3 ASP3        0.0000 
     34 O          -7.1664   21.3315    6.4808 O.2       2 ALA2        0.0000 
     35 CA         -7.7713   22.5832    5.9172 C.3       4 GLY6        0.0000 
     36 OD1        -6.6936   17.1677    8.7030 O.3       3 ASP3        0.0000 
     37 OD1        -7.2984   18.4193    8.1394 O.3       3 ASP3        0.0000 
     38 OD1        -7.9033   19.6709    7.5759 O.3       3 ASP3        0.0000 
     39 DU         -8.5081   20.9225    7.0123 H         5 CUB7        0.0000 
     40 CA         -9.1130   22.1741    6.4487 C.3       4 GLY6        0.0000 
     41 CA         -8.0353   16.7586    9.2345 C.3       4 GLY6        0.0000 
     42 CA         -8.6401   18.0102    8.6709 C.3       4 GLY6        0.0000 
     43 N          -9.2450   19.2618    8.1074 N.2       2 ALA2        0.0000 
     44 N          -9.8498   20.5134    7.5438 N.2       2 ALA2        0.0000 
     45 OG         -9.3770   16.3495    9.7660 O.2       1 SER1        0.0000 
     46 OD1        -4.9301   21.2074    7.7973 O.3       3 ASP3        0.0000 
     47 OD1        -5.5349   22.4590    7.2337 O.3       3 ASP3        0.0000 
     48 OD1        -6.8766   22.0500    7.7652 O.3       3 ASP3        0.0000 
     49 OD1        -7.4815   23.3016    7.2017 O.3       3 ASP3        0.0000 
     50 OD1        -8.2183   21.6409    8.2967 O.3       3 ASP3        0.0000 
     51 CA         -8.8232   22.8925    7.7332 C.3       4 GLY6        0.0000 
     52 OD1        -8.3503   18.7286    9.9554 O.3       3 ASP3        0.0000 
     53 OD1        -8.9552   19.9803    9.3918 O.3       3 ASP3        0.0000 
     54 CA         -9.5600   21.2319    8.8283 C.3       4 GLY6        0.0000 
     55 OD1        -6.5868   22.7684    9.0497 O.3       3 ASP3        0.0000 
     56 OD1        -7.1917   24.0200    8.4861 O.3       3 ASP3        0.0000 
     57 OD1        -7.9285   22.3594    9.5812 O.3       3 ASP3        0.0000 
     58 N          -8.5334   23.6110    9.0176 N.2       2 ALA2        0.0000 
     59 OD1        -8.6654   20.6987   10.6763 O.3       3 ASP3        0.0000 
     60 N          -9.2702   21.9503   10.1127 N.2       2 ALA2        0.0000 
     61 N          -7.6387   23.0778   10.8657 N.2       2 ALA2        0.0000 
@<TRIPOS>BOND
@<TRIPOS>SUBSTRUCTURE
     1 SER1       45 GROUP   
     2 ALA2        5 GROUP   
     3 ASP3       30 GROUP   
     4 GLY6        2 GROUP   
     5 CUB7        1 GROUP   
@<TRIPOS>SET

