#    Name: 1i6i_ACP_1_INTS_M
#    Modification time : Tue Mar 25 06:43:27 2014

@<TRIPOS>MOLECULE
1i6i_ACP_1_INTS_M
   50     0    12     0     0
SMALL
NO_CHARGES


@<TRIPOS>ATOM
      1 NZ         -5.9000   24.2655    7.6900 N.4       2 LYC4        0.0000 
      2 NZ         -7.0070   23.5890    7.4400 N.4      10 LYL4        0.0000 
      3 NZ         -4.7930   24.9420    7.9400 N.4       6 LYP4        0.0000 
      4 N          -6.3870   23.3595    5.8840 N.am      1 SEC2        0.0000 
      5 N          -7.0070   23.5890    7.4400 N.am      9 SEL2        0.0000 
      6 N          -5.7670   23.1300    4.3280 N.am      5 SEP2        0.0000 
      7 N          -5.9000   24.2655    7.6900 N.am      1 SEC2        0.0000 
      8 N          -4.7930   24.9420    7.9400 N.am      5 SEP2        0.0000 
      9 Zn         -6.5840   21.0255    9.6220 Zn        3 ZIC7        0.0000 
     10 Zn         -7.2710   21.7890    9.1570 Zn       11 ZIL7        0.0000 
     11 Zn         -5.8970   20.2620   10.0870 Zn        7 ZIP7        0.0000 
     12 Zn         -5.1535   20.4400    9.3795 Zn        3 ZIC7        0.0000 
     13 Zn         -4.4100   20.6180    8.6720 Zn       11 ZIL7        0.0000 
     14 N          -3.3470   20.4140    9.5625 N.am      1 SEC2        0.0000 
     15 N          -4.4100   20.6180    8.6720 N.am      9 SEL2        0.0000 
     16 N          -2.2840   20.2100   10.4530 N.am      5 SEP2        0.0000 
     17 NZ         -4.2335   23.6635    7.4980 N.4       2 LYC4        0.0000 
     18 NZ         -3.6740   22.3850    7.0560 N.4      10 LYL4        0.0000 
     19 N          -2.4285   22.1870    6.2895 N.am      1 SEC2        0.0000 
     20 N          -3.6740   22.3850    7.0560 N.am      9 SEL2        0.0000 
     21 N          -1.1830   21.9890    5.5230 N.am      5 SEP2        0.0000 
     22 N          -2.4290   22.1745    7.7080 N.am      1 SEC2        0.0000 
     23 N          -1.1840   21.9640    8.3600 N.am      5 SEP2        0.0000 
     24 N          -4.2335   23.6635    7.4980 N.am      1 SEC2        0.0000 
     25 CA         -5.5845   21.6135    5.1465 C.3       4 GLC5        0.0000 
     26 CA         -6.1070   21.1090    6.7420 C.3      12 GLL5        0.0000 
     27 CA         -5.0620   22.1180    3.5510 C.3       8 GLP5        0.0000 
     28 N          -1.7100   17.9985    8.7420 N.am      1 SEC2        0.0000 
     29 N          -2.5250   18.1710    7.6050 N.am      9 SEL2        0.0000 
     30 N          -0.8950   17.8260    9.8790 N.am      5 SEP2        0.0000 
     31 CA         -4.1305   20.1035    3.6820 C.3       4 GLC5        0.0000 
     32 CA         -3.1990   18.0890    3.8130 C.3      12 GLL5        0.0000 
     33 CA          0.0560   14.9880    6.0880 C.3       4 GLC5        0.0000 
     34 CA         -1.2550   15.4200    4.5370 C.3      12 GLL5        0.0000 
     35 CA          1.3670   14.5560    7.6390 C.3       8 GLP5        0.0000 
     36 CA          0.0135   18.0895    2.6195 C.3       4 GLC5        0.0000 
     37 CA         -0.3710   16.0510    3.4600 C.3      12 GLL5        0.0000 
     38 CA          0.3980   20.1280    1.7790 C.3       8 GLP5        0.0000 
     39 CA          1.8015   16.9895    6.3070 C.3       4 GLC5        0.0000 
     40 CA          3.0200   17.0630    4.4660 C.3      12 GLL5        0.0000 
     41 CA          0.5830   16.9160    8.1480 C.3       8 GLP5        0.0000 
     42 N           6.1155   15.3160    4.0440 N.am      1 SEC2        0.0000 
     43 N           4.8480   15.6900    3.7960 N.am      9 SEL2        0.0000 
     44 N           7.3830   14.9420    4.2920 N.am      5 SEP2        0.0000 
     45 CA          4.0995   16.1595    1.9455 C.3       4 GLC5        0.0000 
     46 CA          3.9880   14.8200    3.1750 C.3      12 GLL5        0.0000 
     47 CA          4.2110   17.4990    0.7160 C.3       8 GLP5        0.0000 
     48 CA          2.9166   18.2845    3.1516 C.3       4 GLC5        0.0000 
     49 CA          2.9100   20.0030    2.1620 C.3       8 GLP5        0.0000 
     50 CA          3.5671   17.0325    2.4286 C.3       4 GLC5        0.0000 
@<TRIPOS>BOND
@<TRIPOS>SUBSTRUCTURE
     1 SEC2        4 GROUP        1 X    SEC  0     ROOT SEC X 2
     2 LYC4        1 GROUP        1 X    LYC  0     **** LYC X 4
     3 ZIC7        9 GROUP        1 X    ZIC  0     **** ZIC X 5
     4 GLC5       25 GROUP        1 X    GLC  0     **** GLC X 6
     5 SEP2        6 GROUP        1 Y    SEP  0     ROOT SEP Y 9
     6 LYP4        3 GROUP        1 Y    LYP  0     **** LYP Y 11
     7 ZIP7       11 GROUP        1 Y    ZIP  0     **** ZIP Y 12
     8 GLP5       27 GROUP        1 Y    GLP  0     **** GLP Y 13
     9 SEL2        5 GROUP        1 Z    SEL  0     ROOT SEL Z 16
    10 LYL4        2 GROUP        1 Z    LYL  0     **** LYL Z 18
    11 ZIL7       10 GROUP        1 Z    ZIL  0     **** ZIL Z 19
    12 GLL5       26 GROUP        1 Z    GLL  0     **** GLL Z 20
@<TRIPOS>SET

