#    Name: 1i6i_ACP_1_ligand
#    Modification time : Tue Mar 25 06:43:27 2014

@<TRIPOS>MOLECULE
1i6i_ACP_1_ligand
   45    47     1     0     0
SMALL
NO_CHARGES


@<TRIPOS>ATOM
      1 PG         -7.3440   22.1440    7.5970 P.3       1 ACP500      0.0000 
      2 O1G        -7.0070   23.5890    7.4400 O.co2     1 ACP500      0.0000 
      3 O2G        -7.2710   21.7890    9.1570 O.co2     1 ACP500      0.0000 
      4 O3G        -8.6850   21.8170    7.0440 O.co2     1 ACP500      0.0000 
      5 PB         -4.3860   21.0630    7.2650 P.3       1 ACP500      0.0000 
      6 O1B        -4.4100   20.6180    8.6720 O.co2     1 ACP500      0.0000 
      7 O2B        -3.6740   22.3850    7.0560 O.co2     1 ACP500      0.0000 
      8 C3B        -6.1070   21.1090    6.7420 C.3       1 ACP500      0.0000 
      9 PA         -3.3350   18.4700    6.4230 P.3       1 ACP500      0.0000 
     10 O1A        -4.5820   17.7120    6.4150 O.co2     1 ACP500      0.0000 
     11 O2A        -2.5250   18.1710    7.6050 O.co2     1 ACP500      0.0000 
     12 O3A        -3.6430   20.0310    6.3480 O.3       1 ACP500      0.0000 
     13 O5'        -2.5120   18.2950    5.0670 O.3       1 ACP500      0.0000 
     14 C5'        -3.1990   18.0890    3.8130 C.3       1 ACP500      0.0000 
     15 C4'        -2.5570   16.8860    3.1060 C.3       1 ACP500      0.0000 
     16 O4'        -1.1600   17.1210    2.8640 O.3       1 ACP500      0.0000 
     17 C3'        -2.6480   15.5800    3.9170 C.3       1 ACP500      0.0000 
     18 O3'        -3.0160   14.5030    3.0450 O.3       1 ACP500      0.0000 
     19 C2'        -1.2550   15.4200    4.5370 C.3       1 ACP500      0.0000 
     20 O2'        -0.9360   14.0590    4.8860 O.3       1 ACP500      0.0000 
     21 C1'        -0.3710   16.0510    3.4600 C.3       1 ACP500      0.0000 
     22 N9          0.9160   16.6320    3.9810 N.pl3     1 ACP500      0.0000 
     23 C8          0.9990   17.7820    4.7000 C.2       1 ACP500      0.0000 
     24 N7          2.2640   18.0340    4.9860 N.2       1 ACP500      0.0000 
     25 C5          3.0200   17.0630    4.4660 C.ar      1 ACP500      0.0000 
     26 C6          4.3970   16.8210    4.4430 C.ar      1 ACP500      0.0000 
     27 N6          5.2650   17.6450    5.0330 N.pl3     1 ACP500      0.0000 
     28 N1          4.8480   15.6900    3.7960 N.ar      1 ACP500      0.0000 
     29 C2          3.9880   14.8200    3.1750 C.ar      1 ACP500      0.0000 
     30 N3          2.6740   15.0700    3.2000 N.ar      1 ACP500      0.0000 
     31 C4          2.1380   16.1900    3.8280 C.ar      1 ACP500      0.0000 
     32 H          -6.1109   21.4380    5.7100 H         1 ACP500      0.0000 
     33 H          -6.4793   20.0937    6.8042 H         1 ACP500      0.0000 
     34 H          -3.1063   18.9515    3.1581 H         1 ACP500      0.0000 
     35 H          -4.2521   17.8664    3.9641 H         1 ACP500      0.0000 
     36 H          -3.0721   16.7205    2.1645 H         1 ACP500      0.0000 
     37 H          -3.3505   15.7462    4.7032 H         1 ACP500      0.0000 
     38 H          -1.2300   16.0935    5.3920 H         1 ACP500      0.0000 
     39 H          -0.1613   15.3057    2.7117 H         1 ACP500      0.0000 
     40 H           0.2281   18.3244    4.9556 H         1 ACP500      0.0000 
     41 H           6.2315   17.4060    4.9400 H         1 ACP500      0.0000 
     42 H           4.8709   18.4275    5.5151 H         1 ACP500      0.0000 
     43 H           4.3671   13.9838    2.6966 H         1 ACP500      0.0000 
     44 H          -3.8170   14.0851    3.4738 H         1 ACP500      0.0000 
     45 H          -1.4945   13.4976    4.2753 H         1 ACP500      0.0000 
@<TRIPOS>BOND
     1    2    1 ar   
     2    3    1 ar   
     3    4    1 ar   
     4    8    1 1    
     5    6    5 ar   
     6    7    5 ar   
     7    8    5 1    
     8   12    5 1    
     9   32    8 1    
    10   33    8 1    
    11   10    9 ar   
    12   11    9 ar   
    13   12    9 1    
    14   13    9 1    
    15   14   13 1    
    16   15   14 1    
    17   34   14 1    
    18   35   14 1    
    19   16   15 1    
    20   17   15 1    
    21   36   15 1    
    22   21   16 1    
    23   18   17 1    
    24   19   17 1    
    25   37   17 1    
    26   44   18 1    
    27   20   19 1    
    28   21   19 1    
    29   38   19 1    
    30   45   20 1    
    31   22   21 1    
    32   39   21 1    
    33   23   22 1    
    34   31   22 1    
    35   24   23 2    
    36   40   23 1    
    37   25   24 1    
    38   26   25 ar   
    39   31   25 ar   
    40   27   26 1    
    41   28   26 ar   
    42   41   27 1    
    43   42   27 1    
    44   29   28 ar   
    45   30   29 ar   
    46   43   29 1    
    47   31   30 ar   
@<TRIPOS>SUBSTRUCTURE
     1 ACP500      1 GROUP   
@<TRIPOS>SET

