#    Name: 1jvd_UD1_2_INTS_M
#    Modification time : Tue Mar 25 09:28:54 2014

@<TRIPOS>MOLECULE
1jvd_UD1_2_INTS_M
  105     0    12     0     0
SMALL
NO_CHARGES


@<TRIPOS>ATOM
      1 CA        -20.4460   20.7215   25.5165 C.3       4 GLC5        0.0000 
      2 CA        -22.0320   19.9040   26.8010 C.3      12 GLL5        0.0000 
      3 CA        -18.8600   21.5390   24.2320 C.3       8 GLP5        0.0000 
      4 CA        -19.7420   18.4580   27.4630 C.3       4 GLC5        0.0000 
      5 CA        -21.8690   18.4250   27.1320 C.3      12 GLL5        0.0000 
      6 CA        -17.6150   18.4910   27.7940 C.3       8 GLP5        0.0000 
      7 CA        -21.9420   18.6120   29.2840 C.3       4 GLC5        0.0000 
      8 CA        -22.0150   18.7990   31.4360 C.3       8 GLP5        0.0000 
      9 CA        -19.8075   16.0340   26.9215 C.3       4 GLC5        0.0000 
     10 CA        -21.7890   16.1040   26.0190 C.3      12 GLL5        0.0000 
     11 CA        -17.8260   15.9640   27.8240 C.3       8 GLP5        0.0000 
     12 CA        -22.5470   15.3035   27.9355 C.3       4 GLC5        0.0000 
     13 CA        -23.3050   14.5030   29.8520 C.3       8 GLP5        0.0000 
     14 CA        -21.0300   14.4025   26.4405 C.3       4 GLC5        0.0000 
     15 CA        -20.2710   12.7010   26.8620 C.3       8 GLP5        0.0000 
     16 CA        -21.4555   15.8220   23.8580 C.3       4 GLC5        0.0000 
     17 CA        -21.1220   15.5400   21.6970 C.3       8 GLP5        0.0000 
     18 CA        -25.4825   24.9290   25.0705 C.3       4 GLC5        0.0000 
     19 CA        -25.2720   23.2710   25.4310 C.3      12 GLL5        0.0000 
     20 CA        -25.6930   26.5870   24.7100 C.3       8 GLP5        0.0000 
     21 CA        -24.7730   23.2275   27.1680 C.3       4 GLC5        0.0000 
     22 CA        -24.2740   23.1840   28.9050 C.3       8 GLP5        0.0000 
     23 O         -22.6750   22.2950   25.5940 O.2       1 ALC1        0.0000 
     24 O         -23.7480   21.4660   25.8040 O.2       9 ALL1        0.0000 
     25 O         -21.6020   23.1240   25.3840 O.2       5 ALP1        0.0000 
     26 N         -20.4595   20.4500   28.4830 N.am      2 SEC2        0.0000 
     27 N         -22.0220   20.7030   28.0000 N.am     10 SEL2        0.0000 
     28 N         -18.8970   20.1970   28.9660 N.am      6 SEP2        0.0000 
     29 N         -22.8535   20.1730   28.9535 N.am      2 SEC2        0.0000 
     30 N         -23.6850   19.6430   29.9070 N.am      6 SEP2        0.0000 
     31 O         -21.3030   21.7150   27.6400 O.2       1 ALC1        0.0000 
     32 O         -22.0220   20.7030   28.0000 O.2       9 ALL1        0.0000 
     33 O         -20.5840   22.7270   27.2800 O.2       5 ALP1        0.0000 
     34 N         -19.7595   19.1880   28.3570 N.am      2 SEC2        0.0000 
     35 N         -20.6220   18.1790   27.7480 N.am     10 SEL2        0.0000 
     36 O         -20.9665   17.2745   28.6605 O.2       1 ALC1        0.0000 
     37 O         -20.6220   18.1790   27.7480 O.2       9 ALL1        0.0000 
     38 O         -21.3110   16.3700   29.5730 O.2       5 ALP1        0.0000 
     39 N         -21.9210   15.6630   23.6080 N.am      2 SEC2        0.0000 
     40 N         -21.3860   15.4800   24.8390 N.am     10 SEL2        0.0000 
     41 N         -22.4560   15.8460   22.3770 N.am      6 SEP2        0.0000 
     42 N         -27.0770   21.3005   25.3075 N.am      2 SEC2        0.0000 
     43 N         -25.9820   21.0570   26.0610 N.am     10 SEL2        0.0000 
     44 N         -28.1720   21.5440   24.5540 N.am      6 SEP2        0.0000 
     45 O         -32.6030   22.7630   19.3340 O.2       1 ALC1        0.0000 
     46 O         -31.1780   22.2130   19.7430 O.2       9 ALL1        0.0000 
     47 O         -34.0280   23.3130   18.9250 O.2       5 ALP1        0.0000 
     48 CA        -29.3960   24.5415   20.3350 C.3       4 GLC5        0.0000 
     49 CA        -28.8180   22.7140   19.5500 C.3      12 GLL5        0.0000 
     50 CA        -29.9740   26.3690   21.1200 C.3       8 GLP5        0.0000 
     51 CA        -29.9595   23.1180   21.4450 C.3       4 GLC5        0.0000 
     52 CA        -31.1010   23.5220   23.3400 C.3       8 GLP5        0.0000 
     53 CA        -29.4420   21.8730   21.9225 C.3       4 GLC5        0.0000 
     54 CA        -28.5330   21.4890   20.0490 C.3      12 GLL5        0.0000 
     55 CA        -30.3510   22.2570   23.7960 C.3       8 GLP5        0.0000 
     56 N         -32.7390   19.6915   19.5200 N.am      2 SEC2        0.0000 
     57 N         -31.9480   20.3270   20.5010 N.am     10 SEL2        0.0000 
     58 N         -33.5300   19.0560   18.5390 N.am      6 SEP2        0.0000 
     59 N         -31.9220   24.7360   19.3210 N.am      2 SEC2        0.0000 
     60 N         -30.5490   24.1830   18.9600 N.am     10 SEL2        0.0000 
     61 N         -33.2950   25.2890   19.6820 N.am      6 SEP2        0.0000 
     62 N         -30.6355   25.5975   19.5080 N.am      2 SEC2        0.0000 
     63 N         -30.7220   27.0120   20.0560 N.am      6 SEP2        0.0000 
     64 CA        -30.8335   18.6300   22.3110 C.3       4 GLC5        0.0000 
     65 CA        -29.4010   19.2740   20.9590 C.3      12 GLL5        0.0000 
     66 CA        -32.2660   17.9860   23.6630 C.3       8 GLP5        0.0000 
     67 CA        -29.8760   20.7655   22.3775 C.3       4 GLC5        0.0000 
     68 CA        -29.4170   18.9860   18.2400 C.3       4 GLC5        0.0000 
     69 CA        -28.8570   18.2090   19.9960 C.3      12 GLL5        0.0000 
     70 CA        -29.9770   19.7630   16.4840 C.3       8 GLP5        0.0000 
     71 N         -30.6030   18.6405   18.1605 N.am      2 SEC2        0.0000 
     72 N         -29.9390   17.6980   19.1920 N.am     10 SEL2        0.0000 
     73 N         -31.2670   19.5830   17.1290 N.am      6 SEP2        0.0000 
     74 CA        -29.0565   15.4825   20.2125 C.3       4 GLC5        0.0000 
     75 CA        -28.2280   17.2070   20.9800 C.3      12 GLL5        0.0000 
     76 CA        -29.8850   13.7580   19.4450 C.3       8 GLP5        0.0000 
     77 N         -28.3210   20.4475   23.2760 N.am      2 SEC2        0.0000 
     78 N         -28.4700   19.3510   21.9980 N.am     10 SEL2        0.0000 
     79 N         -29.5270   15.0040   22.0255 N.am      2 SEC2        0.0000 
     80 N         -29.2620   16.4160   21.5550 N.am     10 SEL2        0.0000 
     81 N         -29.7920   13.5920   22.4960 N.am      6 SEP2        0.0000 
     82 O         -30.6620   16.3195   21.5125 O.2       1 ALC1        0.0000 
     83 O         -29.2620   16.4160   21.5550 O.2       9 ALL1        0.0000 
     84 O         -32.0620   16.2230   21.4700 O.2       5 ALP1        0.0000 
     85 NZ        -23.6870   22.5855   22.4750 N.4       3 LYC4        0.0000 
     86 NZ        -24.9070   21.8860   22.3210 N.4      11 LYL4        0.0000 
     87 NZ        -22.0990   24.2520   21.7950 N.4       7 LYP4        0.0000 
     88 N         -23.6870   22.5855   22.4750 N.am      2 SEC2        0.0000 
     89 N         -24.9070   21.8860   22.3210 N.am     10 SEL2        0.0000 
     90 N         -22.4670   23.2850   22.6290 N.am      6 SEP2        0.0000 
     91 NZ        -21.8075   22.4485   21.8055 N.4       3 LYC4        0.0000 
     92 NZ        -21.5160   20.6450   21.8160 N.4      11 LYL4        0.0000 
     93 N         -20.3190   21.2370   21.8350 N.am      2 SEC2        0.0000 
     94 N         -21.5160   20.6450   21.8160 N.am     10 SEL2        0.0000 
     95 N         -19.1220   21.8290   21.8540 N.am      6 SEP2        0.0000 
     96 NZ        -22.2435   17.0800   22.3185 N.4       3 LYC4        0.0000 
     97 NZ        -22.0310   18.3140   22.2600 N.4      11 LYL4        0.0000 
     98 NZ        -22.4560   15.8460   22.3770 N.4       7 LYP4        0.0000 
     99 N         -22.2435   17.0800   22.3185 N.am      2 SEC2        0.0000 
    100 N         -22.0310   18.3140   22.2600 N.am     10 SEL2        0.0000 
    101 CA        -23.5010   21.5815   27.6885 C.3       4 GLC5        0.0000 
    102 CA        -23.4240   20.0540   26.1430 C.3      12 GLL5        0.0000 
    103 CA        -29.3263   20.9323   18.1418 C.3       4 GLC5        0.0000 
    104 CA        -26.9356   16.5161   22.4406 C.3       4 GLC5        0.0000 
    105 CA        -26.7570   14.8920   23.1860 C.3       8 GLP5        0.0000 
@<TRIPOS>BOND
@<TRIPOS>SUBSTRUCTURE
     1 ALC1       23 GROUP        1 X    ALC  0     ROOT ALC X 1
     2 SEC2       26 GROUP        1 X    SEC  0     **** SEC X 2
     3 LYC4       85 GROUP        1 X    LYC  0     **** LYC X 4
     4 GLC5        1 GROUP        1 X    GLC  0     **** GLC X 6
     5 ALP1       25 GROUP        1 Y    ALP  0     ROOT ALP Y 8
     6 SEP2       28 GROUP        1 Y    SEP  0     **** SEP Y 9
     7 LYP4       87 GROUP        1 Y    LYP  0     **** LYP Y 11
     8 GLP5        3 GROUP        1 Y    GLP  0     **** GLP Y 13
     9 ALL1       24 GROUP        1 Z    ALL  0     ROOT ALL Z 15
    10 SEL2       27 GROUP        1 Z    SEL  0     **** SEL Z 16
    11 LYL4       86 GROUP        1 Z    LYL  0     **** LYL Z 18
    12 GLL5        2 GROUP        1 Z    GLL  0     **** GLL Z 20
@<TRIPOS>SET

