#    Name: 1jvd_UD1_2_ligand
#    Modification time : Tue Mar 25 09:28:54 2014

@<TRIPOS>MOLECULE
1jvd_UD1_2_ligand
   64    66     1     0     0
SMALL
NO_CHARGES


@<TRIPOS>ATOM
      1 C1'       -23.5300   19.2470   24.8290 C.3       1 UD1902      0.0000 
      2 C2'       -23.4240   20.0540   26.1430 C.3       1 UD1902      0.0000 
      3 C3'       -22.0320   19.9040   26.8010 C.3       1 UD1902      0.0000 
      4 C4'       -21.8690   18.4250   27.1320 C.3       1 UD1902      0.0000 
      5 C5'       -21.9160   17.6150   25.7780 C.3       1 UD1902      0.0000 
      6 C6'       -21.7890   16.1040   26.0190 C.3       1 UD1902      0.0000 
      7 C7'       -25.0180   21.8390   25.7930 C.2       1 UD1902      0.0000 
      8 C8'       -25.2720   23.2710   25.4310 C.3       1 UD1902      0.0000 
      9 N2'       -23.7480   21.4660   25.8040 N.am      1 UD1902      0.0000 
     10 O1'       -22.6790   19.9800   23.8860 O.3       1 UD1902      0.0000 
     11 O3'       -22.0220   20.7030   28.0000 O.3       1 UD1902      0.0000 
     12 O4'       -20.6220   18.1790   27.7480 O.3       1 UD1902      0.0000 
     13 O5'       -23.1790   17.8780   25.0830 O.3       1 UD1902      0.0000 
     14 O6'       -21.3860   15.4800   24.8390 O.3       1 UD1902      0.0000 
     15 O7'       -25.9820   21.0570   26.0610 O.2       1 UD1902      0.0000 
     16 N1        -29.6550   20.5840   20.4150 N.am      1 UD1902      0.0000 
     17 C2        -30.9680   20.9920   20.2380 C.2       1 UD1902      0.0000 
     18 N3        -31.1780   22.2130   19.7430 N.am      1 UD1902      0.0000 
     19 C4        -30.2370   23.0920   19.3930 C.2       1 UD1902      0.0000 
     20 C5        -28.8180   22.7140   19.5500 C.2       1 UD1902      0.0000 
     21 C6        -28.5330   21.4890   20.0490 C.2       1 UD1902      0.0000 
     22 O2        -31.9480   20.3270   20.5010 O.2       1 UD1902      0.0000 
     23 O4        -30.5490   24.1830   18.9600 O.2       1 UD1902      0.0000 
     24 C1B       -29.4010   19.2740   20.9590 C.3       1 UD1902      0.0000 
     25 C2B       -28.8570   18.2090   19.9960 C.3       1 UD1902      0.0000 
     26 O2'       -29.9390   17.6980   19.1920 O.3       1 UD1902      0.0000 
     27 C3B       -28.2280   17.2070   20.9800 C.3       1 UD1902      0.0000 
     28 C4B       -27.7090   18.1520   22.0770 C.3       1 UD1902      0.0000 
     29 O4B       -28.4700   19.3510   21.9980 O.3       1 UD1902      0.0000 
     30 O3B       -29.2620   16.4160   21.5550 O.3       1 UD1902      0.0000 
     31 C5B       -26.2600   18.6010   21.8620 C.3       1 UD1902      0.0000 
     32 O5B       -26.1790   19.9910   21.7420 O.3       1 UD1902      0.0000 
     33 PA        -24.9010   20.7140   21.3880 P.3       1 UD1902      0.0000 
     34 O1A       -24.9070   21.8860   22.3210 O.co2     1 UD1902      0.0000 
     35 O2A       -24.9590   21.1310   19.9980 O.co2     1 UD1902      0.0000 
     36 O3A       -23.8170   19.7190   21.6060 O.3       1 UD1902      0.0000 
     37 PB        -22.4730   19.6860   22.3470 P.3       1 UD1902      0.0000 
     38 O1B       -21.5160   20.6450   21.8160 O.co2     1 UD1902      0.0000 
     39 O2B       -22.0310   18.3140   22.2600 O.co2     1 UD1902      0.0000 
     40 H         -24.5718   19.3448   24.5211 H         1 UD1902      0.0000 
     41 H         -24.1756   19.6674   26.8202 H         1 UD1902      0.0000 
     42 H         -21.3024   20.1965   26.1016 H         1 UD1902      0.0000 
     43 H         -22.6972   18.1006   27.7159 H         1 UD1902      0.0000 
     44 H         -21.0831   17.9385   25.1765 H         1 UD1902      0.0000 
     45 H         -22.7667   15.7510   26.3738 H         1 UD1902      0.0000 
     46 H         -21.0705   15.9677   26.8385 H         1 UD1902      0.0000 
     47 H         -22.9590   22.0714   25.5971 H         1 UD1902      0.0000 
     48 H         -32.2139   22.5211   19.6124 H         1 UD1902      0.0000 
     49 H         -28.1219   23.3915   19.2760 H         1 UD1902      0.0000 
     50 H         -27.5947   21.1382   20.1936 H         1 UD1902      0.0000 
     51 H         -30.3431   18.8502   21.3729 H         1 UD1902      0.0000 
     52 H         -28.0779   18.6660   19.4387 H         1 UD1902      0.0000 
     53 H         -27.4576   16.7155   20.5464 H         1 UD1902      0.0000 
     54 H         -27.8020   17.6967   23.0237 H         1 UD1902      0.0000 
     55 H         -25.8895   18.0780   20.9620 H         1 UD1902      0.0000 
     56 H         -25.6723   18.2167   22.7151 H         1 UD1902      0.0000 
     57 H         -24.8258   23.8998   26.0678 H         1 UD1902      0.0000 
     58 H         -24.9310   23.4890   24.5166 H         1 UD1902      0.0000 
     59 H         -26.2480   23.4887   25.4395 H         1 UD1902      0.0000 
     60 H         -21.9065   21.6443   27.6827 H         1 UD1902      0.0000 
     61 H         -20.6716   17.2312   28.0631 H         1 UD1902      0.0000 
     62 H         -20.3888   15.5548   24.8343 H         1 UD1902      0.0000 
     63 H         -29.5223   17.4707   18.3119 H         1 UD1902      0.0000 
     64 H         -29.9935   16.4112   20.8732 H         1 UD1902      0.0000 
@<TRIPOS>BOND
     1    2    1 1    
     2   10    1 1    
     3   13    1 1    
     4   40    1 1    
     5    3    2 1    
     6    9    2 1    
     7   41    2 1    
     8    4    3 1    
     9   11    3 1    
    10   42    3 1    
    11    5    4 1    
    12   12    4 1    
    13   43    4 1    
    14    6    5 1    
    15   13    5 1    
    16   44    5 1    
    17   14    6 1    
    18   45    6 1    
    19   46    6 1    
    20    8    7 1    
    21    9    7 am   
    22   15    7 2    
    23   57    8 1    
    24   58    8 1    
    25   59    8 1    
    26   47    9 1    
    27   37   10 1    
    28   60   11 1    
    29   61   12 1    
    30   62   14 1    
    31   17   16 1    
    32   21   16 1    
    33   24   16 1    
    34   18   17 1    
    35   22   17 2    
    36   19   18 1    
    37   48   18 1    
    38   20   19 1    
    39   23   19 2    
    40   21   20 2    
    41   49   20 1    
    42   50   21 1    
    43   25   24 1    
    44   29   24 1    
    45   51   24 1    
    46   26   25 1    
    47   27   25 1    
    48   52   25 1    
    49   63   26 1    
    50   28   27 1    
    51   30   27 1    
    52   53   27 1    
    53   29   28 1    
    54   31   28 1    
    55   54   28 1    
    56   64   30 1    
    57   32   31 1    
    58   55   31 1    
    59   56   31 1    
    60   33   32 1    
    61   34   33 ar   
    62   35   33 ar   
    63   36   33 1    
    64   37   36 1    
    65   38   37 ar   
    66   39   37 ar   
@<TRIPOS>SUBSTRUCTURE
     1 UD1902      1 GROUP   
@<TRIPOS>SET

