#    Name: 3l31_AMP_1_INTS_M
#    Modification time : Mon Mar 24 20:55:07 2014

@<TRIPOS>MOLECULE
3l31_AMP_1_INTS_M
   62     0    12     0     0
SMALL
NO_CHARGES


@<TRIPOS>ATOM
      1 NZ        -18.9675  -19.3925   17.5075 N.4       3 LYC4        0.0000 
      2 NZ        -18.9020  -19.1550   18.7920 N.4      11 LYL4        0.0000 
      3 NZ        -19.0330  -19.6300   16.2230 N.4       7 LYP4        0.0000 
      4 N         -18.0960  -20.4080   19.3090 N.am      2 SEC2        0.0000 
      5 N         -18.9020  -19.1550   18.7920 N.am     10 SEL2        0.0000 
      6 N         -17.2900  -21.6610   19.8260 N.am      6 SEP2        0.0000 
      7 N         -18.9675  -19.3925   17.5075 N.am      2 SEC2        0.0000 
      8 N         -19.0330  -19.6300   16.2230 N.am      6 SEP2        0.0000 
      9 N         -17.6670  -16.8545   21.1150 N.am      2 SEC2        0.0000 
     10 N         -17.6530  -18.0090   20.5290 N.am     10 SEL2        0.0000 
     11 N         -17.6810  -15.7000   21.7010 N.am      6 SEP2        0.0000 
     12 NZ        -18.6715  -18.1825   17.3330 N.4       3 LYC4        0.0000 
     13 NZ        -18.3100  -16.7350   18.4430 N.4      11 LYL4        0.0000 
     14 N         -17.9955  -16.2175   20.0720 N.am      2 SEC2        0.0000 
     15 N         -18.3100  -16.7350   18.4430 N.am     10 SEL2        0.0000 
     16 N         -18.7410  -15.1670   18.5060 N.am      2 SEC2        0.0000 
     17 N         -19.1720  -13.5990   18.5690 N.am      6 SEP2        0.0000 
     18 CA        -21.6075  -18.7965   20.3700 C.3       4 GLC5        0.0000 
     19 CA        -21.2250  -16.9740   19.5950 C.3      12 GLL5        0.0000 
     20 CA        -21.9900  -20.6190   21.1450 C.3       8 GLP5        0.0000 
     21 CA        -22.7360  -18.2470   20.9775 C.3       4 GLC5        0.0000 
     22 CA        -22.1530  -16.2660   20.5940 C.3      12 GLL5        0.0000 
     23 CA        -23.3190  -20.2280   21.3610 C.3       8 GLP5        0.0000 
     24 N         -21.8385  -12.8745   21.9765 N.am      2 SEC2        0.0000 
     25 N         -22.4600  -14.1530   21.7330 N.am     10 SEL2        0.0000 
     26 N         -21.2170  -11.5960   22.2200 N.am      6 SEP2        0.0000 
     27 O         -22.7090  -14.1630   23.2005 O.2       1 ALC1        0.0000 
     28 O         -22.4600  -14.1530   21.7330 O.2       9 ALL1        0.0000 
     29 O         -22.9580  -14.1730   24.6680 O.2       5 ALP1        0.0000 
     30 N         -20.9315  -13.1640   22.8855 N.am      2 SEC2        0.0000 
     31 N         -20.6460  -14.7320   23.5510 N.am     10 SEL2        0.0000 
     32 N         -21.8020  -14.4525   24.1095 N.am      2 SEC2        0.0000 
     33 N         -22.9580  -14.1730   24.6680 N.am      6 SEP2        0.0000 
     34 O         -20.0250  -13.6145   23.4145 O.2       1 ALC1        0.0000 
     35 O         -20.6460  -14.7320   23.5510 O.2       9 ALL1        0.0000 
     36 O         -19.4040  -12.4970   23.2780 O.2       5 ALP1        0.0000 
     37 CA        -22.5295  -18.5005   22.1310 C.3       4 GLC5        0.0000 
     38 CA        -21.7400  -16.7730   22.9010 C.3      12 GLL5        0.0000 
     39 O         -20.2960  -23.0135   26.7730 O.2       1 ALC1        0.0000 
     40 O         -19.9370  -21.9120   25.6320 O.2       9 ALL1        0.0000 
     41 O         -20.6550  -24.1150   27.9140 O.2       5 ALP1        0.0000 
     42 O         -18.6170  -22.0835   25.0390 O.2       1 ALC1        0.0000 
     43 O         -17.2970  -22.2550   24.4460 O.2       5 ALP1        0.0000 
     44 N         -22.7445  -21.8805   26.9785 N.am      2 SEC2        0.0000 
     45 N         -22.1480  -21.0770   25.9280 N.am     10 SEL2        0.0000 
     46 N         -23.3410  -22.6840   28.0290 N.am      6 SEP2        0.0000 
     47 CA        -23.5770  -20.4140   27.3980 C.3       4 GLC5        0.0000 
     48 CA        -23.0580  -20.1220   25.6520 C.3      12 GLL5        0.0000 
     49 CA        -24.0960  -20.7060   29.1440 C.3       8 GLP5        0.0000 
     50 CA        -20.2050  -18.0005   25.6035 C.3       4 GLC5        0.0000 
     51 CA        -21.6350  -18.8840   24.2550 C.3      12 GLL5        0.0000 
     52 CA        -18.7750  -17.1170   26.9520 C.3       8 GLP5        0.0000 
     53 CA        -19.2447  -14.8995   21.5523 C.3       4 GLC5        0.0000 
     54 CA        -20.7750  -15.6730   22.4830 C.3      12 GLL5        0.0000 
     55 CA        -17.3610  -14.4200   21.2300 C.3       8 GLP5        0.0000 
     56 CA        -22.1268  -15.4485   24.3425 C.3       4 GLC5        0.0000 
     57 CA        -22.9960  -14.6740   25.9930 C.3       8 GLP5        0.0000 
     58 CA        -19.6743  -19.4597   26.2937 C.3       4 GLC5        0.0000 
     59 CA        -20.5620  -19.8520   24.5190 C.3      12 GLL5        0.0000 
     60 CA        -18.6210  -18.4970   27.6310 C.3       8 GLP5        0.0000 
     61 CA        -20.3708  -21.2858   23.2503 C.3       4 GLC5        0.0000 
     62 CA        -20.0140  -22.1490   21.5440 C.3       8 GLP5        0.0000 
@<TRIPOS>BOND
@<TRIPOS>SUBSTRUCTURE
     1 ALC1       27 GROUP        1 X    ALC  0     ROOT ALC X 1
     2 SEC2        4 GROUP        1 X    SEC  0     **** SEC X 2
     3 LYC4        1 GROUP        1 X    LYC  0     **** LYC X 4
     4 GLC5       18 GROUP        1 X    GLC  0     **** GLC X 6
     5 ALP1       29 GROUP        1 Y    ALP  0     ROOT ALP Y 8
     6 SEP2        6 GROUP        1 Y    SEP  0     **** SEP Y 9
     7 LYP4        3 GROUP        1 Y    LYP  0     **** LYP Y 11
     8 GLP5       20 GROUP        1 Y    GLP  0     **** GLP Y 13
     9 ALL1       28 GROUP        1 Z    ALL  0     ROOT ALL Z 15
    10 SEL2        5 GROUP        1 Z    SEL  0     **** SEL Z 16
    11 LYL4        2 GROUP        1 Z    LYL  0     **** LYL Z 18
    12 GLL5       19 GROUP        1 Z    GLL  0     **** GLL Z 20
@<TRIPOS>SET

