#    Name: 3l31_AMP_1_ligand
#    Modification time : Mon Mar 24 20:55:08 2014

@<TRIPOS>MOLECULE
3l31_AMP_1_ligand
   35    37     1     0     0
SMALL
NO_CHARGES


@<TRIPOS>ATOM
      1 P         -18.6430  -17.8360   19.4290 P.3       1 AMP1        0.0000 
      2 O1P       -18.9020  -19.1550   18.7920 O.co2     1 AMP1        0.0000 
      3 O2P       -17.6530  -18.0090   20.5290 O.co2     1 AMP1        0.0000 
      4 O3P       -18.3100  -16.7350   18.4430 O.co2     1 AMP1        0.0000 
      5 O5'       -19.9810  -17.3510   20.2420 O.3       1 AMP1        0.0000 
      6 C5'       -21.2250  -16.9740   19.5950 C.3       1 AMP1        0.0000 
      7 C4'       -22.1530  -16.2660   20.5940 C.3       1 AMP1        0.0000 
      8 O4'       -22.4190  -17.1510   21.6910 O.3       1 AMP1        0.0000 
      9 C3'       -21.4820  -15.0850   21.2660 C.3       1 AMP1        0.0000 
     10 O3'       -22.4600  -14.1530   21.7330 O.3       1 AMP1        0.0000 
     11 C2'       -20.7750  -15.6730   22.4830 C.3       1 AMP1        0.0000 
     12 O2'       -20.6460  -14.7320   23.5510 O.3       1 AMP1        0.0000 
     13 C1'       -21.7400  -16.7730   22.9010 C.3       1 AMP1        0.0000 
     14 N9        -21.0830  -17.9700   23.4650 N.pl3     1 AMP1        0.0000 
     15 C8        -19.8080  -18.3170   23.2160 C.2       1 AMP1        0.0000 
     16 N7        -19.4680  -19.4630   23.8400 N.2       1 AMP1        0.0000 
     17 C5        -20.5620  -19.8520   24.5190 C.ar      1 AMP1        0.0000 
     18 C6        -20.8930  -20.9930   25.3940 C.ar      1 AMP1        0.0000 
     19 N6        -19.9370  -21.9120   25.6320 N.pl3     1 AMP1        0.0000 
     20 N1        -22.1480  -21.0770   25.9280 N.ar      1 AMP1        0.0000 
     21 C2        -23.0580  -20.1220   25.6520 C.ar      1 AMP1        0.0000 
     22 N3        -22.8290  -19.0500   24.8570 N.ar      1 AMP1        0.0000 
     23 C4        -21.6350  -18.8840   24.2550 C.ar      1 AMP1        0.0000 
     24 H         -21.7536  -17.8514   19.2089 H         1 AMP1        0.0000 
     25 H         -21.0465  -16.2900   18.7591 H         1 AMP1        0.0000 
     26 H         -23.0376  -15.9544   20.1255 H         1 AMP1        0.0000 
     27 H         -20.7680  -14.6670   20.6262 H         1 AMP1        0.0000 
     28 H         -19.8773  -16.1190   22.1777 H         1 AMP1        0.0000 
     29 H         -22.4453  -16.3600   23.5961 H         1 AMP1        0.0000 
     30 H         -19.1919  -17.7957   22.6442 H         1 AMP1        0.0000 
     31 H         -20.1911  -22.6638   26.2405 H         1 AMP1        0.0000 
     32 H         -19.0585  -21.7605   25.1790 H         1 AMP1        0.0000 
     33 H         -24.0322  -20.2152   26.0914 H         1 AMP1        0.0000 
     34 H         -22.8610  -14.5824   22.5422 H         1 AMP1        0.0000 
     35 H         -20.1267  -13.9703   23.1634 H         1 AMP1        0.0000 
@<TRIPOS>BOND
     1    2    1 ar   
     2    3    1 ar   
     3    4    1 ar   
     4    5    1 1    
     5    6    5 1    
     6    7    6 1    
     7   24    6 1    
     8   25    6 1    
     9    8    7 1    
    10    9    7 1    
    11   26    7 1    
    12   13    8 1    
    13   10    9 1    
    14   11    9 1    
    15   27    9 1    
    16   34   10 1    
    17   12   11 1    
    18   13   11 1    
    19   28   11 1    
    20   35   12 1    
    21   14   13 1    
    22   29   13 1    
    23   15   14 1    
    24   23   14 1    
    25   16   15 2    
    26   30   15 1    
    27   17   16 1    
    28   18   17 ar   
    29   23   17 ar   
    30   19   18 1    
    31   20   18 ar   
    32   31   19 1    
    33   32   19 1    
    34   21   20 ar   
    35   22   21 ar   
    36   33   21 1    
    37   23   22 ar   
@<TRIPOS>SUBSTRUCTURE
     1 AMP1        1 GROUP   
@<TRIPOS>SET

