#    Name: 2afi_ADP_3_INTS_M
#    Modification time : Mon Mar 24 19:10:12 2014

@<TRIPOS>MOLECULE
2afi_ADP_3_INTS_M
   59     0    15     0     0
SMALL
NO_CHARGES


@<TRIPOS>ATOM
      1 N           0.4590  -72.6930   23.0385 N.am      2 SEC2        0.0000 
      2 N          -0.7790  -72.7380   22.5870 N.am     12 SEL2        0.0000 
      3 N           1.6970  -72.6480   23.4900 N.am      7 SEP2        0.0000 
      4 Zn         -2.9395  -71.2165   22.8490 Zn        4 ZIC7        0.0000 
      5 Zn         -2.7650  -71.9220   23.7800 Zn       14 ZIL7        0.0000 
      6 Zn         -3.1140  -70.5110   21.9180 Zn        9 ZIP7        0.0000 
      7 N          -4.0085  -71.7940   24.8480 N.am      2 SEC2        0.0000 
      8 N          -2.7650  -71.9220   23.7800 N.am     12 SEL2        0.0000 
      9 N          -5.2520  -71.6660   25.9160 N.am      7 SEP2        0.0000 
     10 NZ         -0.0910  -70.0145   24.8140 N.4       3 LYC4        0.0000 
     11 NZ         -0.4570  -71.7460   24.8950 N.4      13 LYL4        0.0000 
     12 NZ          0.2750  -68.2830   24.7330 N.4       8 LYP4        0.0000 
     13 N           0.6045  -72.6200   25.5155 N.am      2 SEC2        0.0000 
     14 N          -0.4570  -71.7460   24.8950 N.am     12 SEL2        0.0000 
     15 N           1.6660  -73.4940   26.1360 N.am      7 SEP2        0.0000 
     16 N          -0.6125  -72.8805   26.0845 N.am      2 SEC2        0.0000 
     17 N          -0.7680  -74.0150   27.2740 N.am      7 SEP2        0.0000 
     18 N          -1.6810  -71.8350   26.1245 N.am      2 SEC2        0.0000 
     19 N          -2.9050  -71.9240   27.3540 N.am      7 SEP2        0.0000 
     20 N          -5.1980  -74.3125   25.6040 N.am      2 SEC2        0.0000 
     21 N          -3.9620  -74.3460   25.1860 N.am     12 SEL2        0.0000 
     22 N          -6.4340  -74.2790   26.0220 N.am      7 SEP2        0.0000 
     23 N          -4.5505  -75.5305   25.3970 N.am      2 SEC2        0.0000 
     24 N          -5.1390  -76.7150   25.6080 N.am      7 SEP2        0.0000 
     25 N          -1.1965  -73.9395   25.8925 N.am      2 SEC2        0.0000 
     26 N          -1.6250  -73.8640   24.5110 N.am     12 SEL2        0.0000 
     27 CA          0.4295  -75.4355   23.8755 C.3       5 GLC5        0.0000 
     28 CA         -1.1010  -76.8260   23.9720 C.3      15 GLL5        0.0000 
     29 CA          1.9600  -74.0450   23.7790 C.3      10 GLP5        0.0000 
     30 O          -3.9500  -80.2270   22.7270 O.2       1 ALC1        0.0000 
     31 O          -2.2550  -80.0980   22.6460 O.2      11 ALL1        0.0000 
     32 O          -5.6450  -80.3560   22.8080 O.2       6 ALP1        0.0000 
     33 CA         -4.8380  -78.6085   26.1035 C.3       5 GLC5        0.0000 
     34 CA         -3.1810  -79.4090   24.9320 C.3      15 GLL5        0.0000 
     35 CA         -6.4950  -77.8080   27.2750 C.3      10 GLP5        0.0000 
     36 O          -4.8470  -80.4540   23.8630 O.2       1 ALC1        0.0000 
     37 O          -4.0490  -80.5520   24.9180 O.2      11 ALL1        0.0000 
     38 N          -1.8620  -77.5240   30.2680 N.am      2 SEC2        0.0000 
     39 N          -2.6710  -78.1300   29.1750 N.am     12 SEL2        0.0000 
     40 N          -1.0530  -76.9180   31.3610 N.am      7 SEP2        0.0000 
     41 CA         -2.0215  -81.4045   32.1565 C.3       5 GLC5        0.0000 
     42 CA         -2.8900  -80.1260   30.7010 C.3      15 GLL5        0.0000 
     43 CA         -1.1530  -82.6830   33.6120 C.3      10 GLP5        0.0000 
     44 O          -3.1810  -80.4480   33.1650 O.2       1 ALC1        0.0000 
     45 O          -3.0820  -79.6230   31.8370 O.2      11 ALL1        0.0000 
     46 O          -3.2800  -81.2730   34.4930 O.2       6 ALP1        0.0000 
     47 N          -2.8000  -82.8030   31.5455 N.am      2 SEC2        0.0000 
     48 N          -2.8470  -81.4810   30.5940 N.am     12 SEL2        0.0000 
     49 N          -2.7530  -84.1250   32.4970 N.am      7 SEP2        0.0000 
     50 CA         -0.9165  -82.2030   30.1525 C.3       5 GLC5        0.0000 
     51 CA         -2.6390  -82.1560   29.4020 C.3      15 GLL5        0.0000 
     52 CA          0.8060  -82.2500   30.9030 C.3      10 GLP5        0.0000 
     53 CA         -3.0570  -83.7585   30.8295 C.3       5 GLC5        0.0000 
     54 CA         -3.4750  -85.3610   32.2570 C.3      10 GLP5        0.0000 
     55 CA         -4.5315  -82.4635   29.0495 C.3       5 GLC5        0.0000 
     56 CA         -6.4240  -82.7710   28.6970 C.3      10 GLP5        0.0000 
     57 CA         -4.5145  -80.8025   28.1845 C.3       5 GLC5        0.0000 
     58 CA         -2.4860  -80.1960   28.3220 C.3      15 GLL5        0.0000 
     59 CA         -6.5430  -81.4090   28.0470 C.3      10 GLP5        0.0000 
@<TRIPOS>BOND
@<TRIPOS>SUBSTRUCTURE
     1 ALC1       30 GROUP        1 X    ALC  0     ROOT ALC X 1
     2 SEC2        1 GROUP        1 X    SEC  0     **** SEC X 2
     3 LYC4       10 GROUP        1 X    LYC  0     **** LYC X 4
     4 ZIC7        4 GROUP        1 X    ZIC  0     **** ZIC X 5
     5 GLC5       27 GROUP        1 X    GLC  0     **** GLC X 6
     6 ALP1       32 GROUP        1 Y    ALP  0     ROOT ALP Y 8
     7 SEP2        3 GROUP        1 Y    SEP  0     **** SEP Y 9
     8 LYP4       12 GROUP        1 Y    LYP  0     **** LYP Y 11
     9 ZIP7        6 GROUP        1 Y    ZIP  0     **** ZIP Y 12
    10 GLP5       29 GROUP        1 Y    GLP  0     **** GLP Y 13
    11 ALL1       31 GROUP        1 Z    ALL  0     ROOT ALL Z 15
    12 SEL2        2 GROUP        1 Z    SEL  0     **** SEL Z 16
    13 LYL4       11 GROUP        1 Z    LYL  0     **** LYL Z 18
    14 ZIL7        5 GROUP        1 Z    ZIL  0     **** ZIL Z 19
    15 GLL5       28 GROUP        1 Z    GLL  0     **** GLL Z 20
@<TRIPOS>SET

