#    Name: 2afi_ADP_3_ligand
#    Modification time : Mon Mar 24 19:10:12 2014

@<TRIPOS>MOLECULE
2afi_ADP_3_ligand
   38    40     1     0     0
SMALL
NO_CHARGES


@<TRIPOS>ATOM
      1 PB         -1.3870  -72.4560   23.8870 P.3       1 ADP3292     0.0000 
      2 O1B        -0.7790  -72.7380   22.5870 O.co2     1 ADP3292     0.0000 
      3 O2B        -2.7650  -71.9220   23.7800 O.co2     1 ADP3292     0.0000 
      4 O3B        -0.4570  -71.7460   24.8950 O.co2     1 ADP3292     0.0000 
      5 PA         -2.8260  -74.7720   24.3150 P.3       1 ADP3292     0.0000 
      6 O1A        -3.0940  -74.7840   22.8110 O.co2     1 ADP3292     0.0000 
      7 O2A        -3.9620  -74.3460   25.1860 O.co2     1 ADP3292     0.0000 
      8 O3A        -1.6250  -73.8640   24.5110 O.3       1 ADP3292     0.0000 
      9 O5'        -2.2380  -76.2110   24.6790 O.3       1 ADP3292     0.0000 
     10 C5'        -1.1010  -76.8260   23.9720 C.3       1 ADP3292     0.0000 
     11 C4'        -1.1570  -78.3750   23.9840 C.3       1 ADP3292     0.0000 
     12 O4'        -0.8660  -79.0110   25.3070 O.3       1 ADP3292     0.0000 
     13 C3'        -2.5110  -79.0190   23.5660 C.3       1 ADP3292     0.0000 
     14 O3'        -2.2550  -80.0980   22.6460 O.3       1 ADP3292     0.0000 
     15 C2'        -3.1810  -79.4090   24.9320 C.3       1 ADP3292     0.0000 
     16 O2'        -4.0490  -80.5520   24.9180 O.3       1 ADP3292     0.0000 
     17 C1'        -2.0250  -79.6940   25.8620 C.3       1 ADP3292     0.0000 
     18 N9         -2.3100  -79.3190   27.2990 N.pl3     1 ADP3292     0.0000 
     19 C8         -2.4310  -78.0890   27.8490 C.2       1 ADP3292     0.0000 
     20 N7         -2.6710  -78.1300   29.1750 N.2       1 ADP3292     0.0000 
     21 C5         -2.6970  -79.4310   29.4620 C.ar      1 ADP3292     0.0000 
     22 C6         -2.8900  -80.1260   30.7010 C.ar      1 ADP3292     0.0000 
     23 N6         -3.0820  -79.6230   31.8370 N.pl3     1 ADP3292     0.0000 
     24 N1         -2.8470  -81.4810   30.5940 N.ar      1 ADP3292     0.0000 
     25 C2         -2.6390  -82.1560   29.4020 C.ar      1 ADP3292     0.0000 
     26 N3         -2.4530  -81.5460   28.2540 N.ar      1 ADP3292     0.0000 
     27 C4         -2.4860  -80.1960   28.3220 C.ar      1 ADP3292     0.0000 
     28 H          -0.1475  -76.5228   24.4307 H         1 ADP3292     0.0000 
     29 H          -1.0746  -76.5010   22.9207 H         1 ADP3292     0.0000 
     30 H          -0.4092  -78.7664   23.2677 H         1 ADP3292     0.0000 
     31 H          -3.0962  -78.2240   23.1364 H         1 ADP3292     0.0000 
     32 H          -3.6723  -78.5200   25.3083 H         1 ADP3292     0.0000 
     33 H          -1.8422  -80.7819   25.8159 H         1 ADP3292     0.0000 
     34 H          -2.3510  -77.2460   27.3287 H         1 ADP3292     0.0000 
     35 H          -2.6351  -83.2190   29.4508 H         1 ADP3292     0.0000 
     36 H          -3.1536  -80.4918   22.4526 H         1 ADP3292     0.0000 
     37 H          -4.6291  -80.4265   24.1132 H         1 ADP3292     0.0000 
     38 H          -3.1215  -80.4027   32.4618 H         1 ADP3292     0.0000 
@<TRIPOS>BOND
     1    2    1 ar   
     2    3    1 ar   
     3    4    1 ar   
     4    8    1 1    
     5    6    5 ar   
     6    7    5 ar   
     7    8    5 1    
     8    9    5 1    
     9   10    9 1    
    10   11   10 1    
    11   28   10 1    
    12   29   10 1    
    13   12   11 1    
    14   13   11 1    
    15   30   11 1    
    16   17   12 1    
    17   14   13 1    
    18   15   13 1    
    19   31   13 1    
    20   36   14 1    
    21   16   15 1    
    22   17   15 1    
    23   32   15 1    
    24   37   16 1    
    25   18   17 1    
    26   33   17 1    
    27   19   18 1    
    28   27   18 1    
    29   20   19 2    
    30   34   19 1    
    31   21   20 1    
    32   22   21 ar   
    33   27   21 ar   
    34   23   22 1    
    35   24   22 ar   
    36   38   23 1    
    37   25   24 ar   
    38   26   25 ar   
    39   35   25 1    
    40   27   26 ar   
@<TRIPOS>SUBSTRUCTURE
     1 ADP3292     1 GROUP   
@<TRIPOS>SET

