#    Name: 2ym1_FAD_1_INTS_M
#    Modification time : Mon Apr  7 18:26:59 2014

@<TRIPOS>MOLECULE
2ym1_FAD_1_INTS_M
  127     0     9     0     0
SMALL
NO_CHARGES


@<TRIPOS>ATOM
      1 N          37.6985  -27.2075   20.9330 N.am      2 SEC2        0.0000 
      2 N          36.9170  -26.3600   20.2250 N.am      8 SEL2        0.0000 
      3 N          38.4800  -28.0550   21.6410 N.am      5 SEP2        0.0000 
      4 CA         34.5285  -27.4000   16.9675 C.3       3 GLC5        0.0000 
      5 CA         33.9510  -28.2320   18.6740 C.3       9 GLL5        0.0000 
      6 CA         35.1060  -26.5680   15.2610 C.3       6 GLP5        0.0000 
      7 CA         36.0575  -31.4455   20.5940 C.3       3 GLC5        0.0000 
      8 CA         34.3470  -30.4500   19.7550 C.3       9 GLL5        0.0000 
      9 CA         37.7680  -32.4410   21.4330 C.3       6 GLP5        0.0000 
     10 N          35.3750  -31.9535   21.2335 N.am      2 SEC2        0.0000 
     11 N          34.2250  -30.8580   21.1010 N.am      8 SEL2        0.0000 
     12 N          36.5250  -33.0490   21.3660 N.am      5 SEP2        0.0000 
     13 O          33.3680  -31.7990   21.5475 O.2       1 ALC1        0.0000 
     14 O          34.2250  -30.8580   21.1010 O.2       7 ALL1        0.0000 
     15 O          32.5110  -32.7400   21.9940 O.2       4 ALP1        0.0000 
     16 CA         35.4325  -31.0350   17.3075 C.3       3 GLC5        0.0000 
     17 CA         33.9040  -31.5830   18.8460 C.3       9 GLL5        0.0000 
     18 CA         36.9610  -30.4870   15.7690 C.3       6 GLP5        0.0000 
     19 N          35.3195  -32.9400   20.3950 N.am      2 SEC2        0.0000 
     20 N          34.1140  -32.8310   19.4240 N.am      8 SEL2        0.0000 
     21 O          33.3125  -32.7855   20.7090 O.2       1 ALC1        0.0000 
     22 O          34.1140  -32.8310   19.4240 O.2       7 ALL1        0.0000 
     23 CA         31.0420  -30.0855   19.2665 C.3       3 GLC5        0.0000 
     24 CA         32.4360  -31.3920   18.7700 C.3       9 GLL5        0.0000 
     25 CA         29.6480  -28.7790   19.7630 C.3       6 GLP5        0.0000 
     26 CA         30.8905  -31.2985   15.3535 C.3       3 GLC5        0.0000 
     27 CA         30.5530  -33.2630   16.2760 C.3       9 GLL5        0.0000 
     28 CA         31.2280  -29.3340   14.4310 C.3       6 GLP5        0.0000 
     29 CA         29.4180  -36.1085   16.0275 C.3       3 GLC5        0.0000 
     30 CA         29.4450  -34.0800   15.9800 C.3       9 GLL5        0.0000 
     31 CA         29.3910  -38.1370   16.0750 C.3       6 GLP5        0.0000 
     32 CA         27.3600  -34.3350   15.5895 C.3       3 GLC5        0.0000 
     33 CA         25.2750  -34.5900   15.1990 C.3       6 GLP5        0.0000 
     34 O          28.3010  -35.6610   14.3125 O.2       1 ALC1        0.0000 
     35 O          29.3290  -34.6870   14.8010 O.2       7 ALL1        0.0000 
     36 O          27.2730  -36.6350   13.8240 O.2       4 ALP1        0.0000 
     37 N          27.4875  -35.3760   16.7840 N.am      2 SEC2        0.0000 
     38 N          28.5510  -34.4100   16.9720 N.am      8 SEL2        0.0000 
     39 N          26.4240  -36.3420   16.5960 N.am      5 SEP2        0.0000 
     40 CA         28.0735  -32.5005   17.3670 C.3       3 GLC5        0.0000 
     41 CA         28.7610  -33.9550   18.2510 C.3       9 GLL5        0.0000 
     42 CA         27.3860  -31.0460   16.4830 C.3       6 GLP5        0.0000 
     43 CA         26.7460  -34.2030   19.1945 C.3       3 GLC5        0.0000 
     44 CA         24.7310  -34.4510   20.1380 C.3       6 GLP5        0.0000 
     45 CA         28.7125  -33.4860   20.1045 C.3       3 GLC5        0.0000 
     46 CA         28.6640  -33.0170   21.9580 C.3       6 GLP5        0.0000 
     47 CA         30.2195  -35.0655   19.1245 C.3       3 GLC5        0.0000 
     48 CA         31.6780  -36.1760   19.9980 C.3       6 GLP5        0.0000 
     49 CA         28.2950  -35.8630   18.1375 C.3       3 GLC5        0.0000 
     50 CA         27.8290  -37.7710   18.0240 C.3       6 GLP5        0.0000 
     51 N          29.9820  -33.9710   19.8520 N.am      2 SEC2        0.0000 
     52 N          29.8580  -33.1810   18.5320 N.am      8 SEL2        0.0000 
     53 N          30.1060  -34.7610   21.1720 N.am      5 SEP2        0.0000 
     54 CA         31.2045  -34.4955   18.7845 C.3       3 GLC5        0.0000 
     55 CA         30.7310  -32.8150   17.5710 C.3       9 GLL5        0.0000 
     56 N          41.7435  -17.3180   17.9710 N.am      2 SEC2        0.0000 
     57 N          42.7770  -18.2180   18.1150 N.am      8 SEL2        0.0000 
     58 N          40.7100  -16.4180   17.8270 N.am      5 SEP2        0.0000 
     59 N          47.5200  -19.9490   20.6830 N.am      2 SEC2        0.0000 
     60 N          46.3920  -20.0970   19.7260 N.am      8 SEL2        0.0000 
     61 N          48.6480  -19.8010   21.6400 N.am      5 SEP2        0.0000 
     62 CA         45.0175  -29.0485   20.9040 C.3       3 GLC5        0.0000 
     63 CA         45.4880  -27.5920   19.7790 C.3       9 GLL5        0.0000 
     64 CA         44.5470  -30.5050   22.0290 C.3       6 GLP5        0.0000 
     65 CA         47.0085  -27.1835   18.9505 C.3       3 GLC5        0.0000 
     66 CA         48.5290  -26.7750   18.1220 C.3       6 GLP5        0.0000 
     67 CA         42.0840  -27.5315   19.1285 C.3       3 GLC5        0.0000 
     68 CA         43.4620  -27.6920   17.7590 C.3       9 GLL5        0.0000 
     69 CA         40.7060  -27.3710   20.4980 C.3       6 GLP5        0.0000 
     70 CA         42.5520  -27.5765   16.0325 C.3       3 GLC5        0.0000 
     71 CA         41.6420  -27.4610   14.3060 C.3       6 GLP5        0.0000 
     72 CA         43.6715  -29.6090   17.0440 C.3       3 GLC5        0.0000 
     73 CA         43.8810  -31.5260   16.3290 C.3       6 GLP5        0.0000 
     74 CA         45.5460  -27.1145   17.4220 C.3       3 GLC5        0.0000 
     75 CA         47.6300  -26.5370   17.0850 C.3       6 GLP5        0.0000 
     76 CA         43.0400  -25.2260   15.9740 C.3       3 GLC5        0.0000 
     77 CA         43.3100  -25.1630   17.9460 C.3       9 GLL5        0.0000 
     78 CA         42.7700  -25.2890   14.0020 C.3       6 GLP5        0.0000 
     79 CA         42.2895  -24.0805   15.6180 C.3       3 GLC5        0.0000 
     80 CA         41.8090  -22.8720   17.2340 C.3       9 GLL5        0.0000 
     81 CA         40.2305  -25.1265   18.6075 C.3       3 GLC5        0.0000 
     82 CA         40.5610  -23.3340   17.9530 C.3       9 GLL5        0.0000 
     83 CA         39.9000  -26.9190   19.2620 C.3       6 GLP5        0.0000 
     84 O          38.9120  -23.7795   16.1375 O.2       1 ALC1        0.0000 
     85 O          39.8290  -24.0840   17.0040 O.2       7 ALL1        0.0000 
     86 O          37.9950  -23.4750   15.2710 O.2       4 ALP1        0.0000 
     87 N          40.7415  -21.2160   20.4605 N.am      2 SEC2        0.0000 
     88 N          40.4190  -21.2050   19.2160 N.am      8 SEL2        0.0000 
     89 N          41.0640  -21.2270   21.7050 N.am      5 SEP2        0.0000 
     90 CA         38.0070  -22.0590   21.3055 C.3       3 GLC5        0.0000 
     91 CA         38.5100  -22.6240   19.2800 C.3       9 GLL5        0.0000 
     92 CA         37.5040  -21.4940   23.3310 C.3       6 GLP5        0.0000 
     93 CA         38.7110  -25.1975   18.8970 C.3       3 GLC5        0.0000 
     94 CA         37.5220  -23.4760   18.5320 C.3       9 GLL5        0.0000 
     95 N          33.2710  -23.0975   20.3540 N.am      2 SEC2        0.0000 
     96 N          34.0290  -24.1620   19.7120 N.am      8 SEL2        0.0000 
     97 N          32.5130  -22.0330   20.9960 N.am      5 SEP2        0.0000 
     98 N          33.5815  -22.3375   17.7455 N.am      2 SEC2        0.0000 
     99 N          34.4480  -23.2860   17.4660 N.am      8 SEL2        0.0000 
    100 N          32.7150  -21.3890   18.0250 N.am      5 SEP2        0.0000 
    101 N          35.1790  -23.0910   16.0360 N.am      2 SEC2        0.0000 
    102 N          35.9100  -22.8960   14.6060 N.am      5 SEP2        0.0000 
    103 N          33.5085  -23.6150   16.5295 N.am      2 SEC2        0.0000 
    104 N          32.5690  -23.9440   15.5930 N.am      5 SEP2        0.0000 
    105 CA         31.6450  -28.7912   19.4187 C.3       3 GLC5        0.0000 
    106 CA         32.7095  -28.5688   17.2587 C.3       3 GLC5        0.0000 
    107 CA         33.3330  -29.3750   19.4750 C.3       9 GLL5        0.0000 
    108 CA         31.7770  -28.3340   15.4430 C.3       6 GLP5        0.0000 
    109 CA         35.0760  -29.3143   21.0475 C.3       3 GLC5        0.0000 
    110 CA         36.3120  -28.7160   22.4800 C.3       6 GLP5        0.0000 
    111 CA         28.8755  -32.1446   16.6663 C.3       3 GLC5        0.0000 
    112 CA         45.6520  -24.7647   17.5740 C.3       3 GLC5        0.0000 
    113 CA         44.7380  -23.8530   19.3410 C.3       9 GLL5        0.0000 
    114 CA         46.2690  -25.0760   15.5920 C.3       6 GLP5        0.0000 
    115 CA         43.2230  -25.9513   20.3843 C.3       3 GLC5        0.0000 
    116 CA         45.3320  -25.0540   19.7710 C.3       9 GLL5        0.0000 
    117 CA         41.3250  -26.2290   21.2500 C.3       6 GLP5        0.0000 
    118 CA         45.3395  -25.6985   17.1980 C.3       3 GLC5        0.0000 
    119 CA         44.9100  -26.2930   19.2660 C.3       9 GLL5        0.0000 
    120 CA         44.8965  -24.8078   16.8798 C.3       3 GLC5        0.0000 
    121 CA         42.4995  -25.5325   19.7582 C.3       3 GLC5        0.0000 
    122 CA         43.7380  -23.9160   18.3890 C.3       9 GLL5        0.0000 
    123 CA         40.1425  -21.4725   16.6069 C.3       3 GLC5        0.0000 
    124 CA         39.6830  -22.1510   18.4280 C.3       9 GLL5        0.0000 
    125 CA         39.8510  -20.3180   15.2030 C.3       6 GLP5        0.0000 
    126 CA         36.8035  -21.5570   18.7275 C.3       3 GLC5        0.0000 
    127 CA         35.5910  -20.0640   18.5490 C.3       6 GLP5        0.0000 
@<TRIPOS>BOND
@<TRIPOS>SUBSTRUCTURE
     1 ALC1       13 GROUP        1 X    ALC  0     ROOT ALC X 1
     2 SEC2        1 GROUP        1 X    SEC  0     **** SEC X 2
     3 GLC5        4 GROUP        1 X    GLC  0     **** GLC X 6
     4 ALP1       15 GROUP        1 Y    ALP  0     ROOT ALP Y 8
     5 SEP2        3 GROUP        1 Y    SEP  0     **** SEP Y 9
     6 GLP5        6 GROUP        1 Y    GLP  0     **** GLP Y 13
     7 ALL1       14 GROUP        1 Z    ALL  0     ROOT ALL Z 15
     8 SEL2        2 GROUP        1 Z    SEL  0     **** SEL Z 16
     9 GLL5        5 GROUP        1 Z    GLL  0     **** GLL Z 20
@<TRIPOS>SET

