#    Name: 2ym1_FAD_1_ligand
#    Modification time : Mon Apr  7 18:27:00 2014

@<TRIPOS>MOLECULE
2ym1_FAD_1_ligand
   84    89     1     0     0
SMALL
NO_CHARGES


@<TRIPOS>ATOM
      1 PA         36.0300  -26.7150   18.9940 P.3       1 FAD700      0.0000 
      2 O1A        36.7580  -27.6580   18.0930 O.co2     1 FAD700      0.0000 
      3 O2A        36.9170  -26.3600   20.2250 O.co2     1 FAD700      0.0000 
      4 O5B        34.7070  -27.4130   19.5420 O.3       1 FAD700      0.0000 
      5 C5B        33.9510  -28.2320   18.6740 C.3       1 FAD700      0.0000 
      6 C4B        33.3330  -29.3750   19.4750 C.3       1 FAD700      0.0000 
      7 O4B        32.3130  -29.9870   18.6920 O.3       1 FAD700      0.0000 
      8 C3B        34.3470  -30.4500   19.7550 C.3       1 FAD700      0.0000 
      9 O3B        34.2250  -30.8580   21.1010 O.3       1 FAD700      0.0000 
     10 C2B        33.9040  -31.5830   18.8460 C.3       1 FAD700      0.0000 
     11 O2B        34.1140  -32.8310   19.4240 O.3       1 FAD700      0.0000 
     12 C1B        32.4360  -31.3920   18.7700 C.3       1 FAD700      0.0000 
     13 N9A        31.8740  -32.0630   17.5980 N.pl3     1 FAD700      0.0000 
     14 C8A        32.3880  -32.0550   16.3160 C.2       1 FAD700      0.0000 
     15 N7A        31.5580  -32.7650   15.5260 N.2       1 FAD700      0.0000 
     16 C5A        30.5530  -33.2630   16.2760 C.ar      1 FAD700      0.0000 
     17 C6A        29.4450  -34.0800   15.9800 C.ar      1 FAD700      0.0000 
     18 N6A        29.3290  -34.6870   14.8010 N.pl3     1 FAD700      0.0000 
     19 N1A        28.5510  -34.4100   16.9720 N.ar      1 FAD700      0.0000 
     20 C2A        28.7610  -33.9550   18.2510 C.ar      1 FAD700      0.0000 
     21 N3A        29.8580  -33.1810   18.5320 N.ar      1 FAD700      0.0000 
     22 C4A        30.7310  -32.8150   17.5710 C.ar      1 FAD700      0.0000 
     23 N1         42.7490  -20.4690   18.1680 N.2       1 FAD700      0.0000 
     24 C2         43.2750  -19.2420   18.5360 C.2       1 FAD700      0.0000 
     25 O2         42.7770  -18.2180   18.1150 O.2       1 FAD700      0.0000 
     26 N3         44.5560  -19.1680   18.9530 N.am      1 FAD700      0.0000 
     27 C4         45.1680  -20.2420   19.5310 C.2       1 FAD700      0.0000 
     28 O4         46.3920  -20.0970   19.7260 O.2       1 FAD700      0.0000 
     29 C4X        44.6600  -21.4880   19.2020 C.2       1 FAD700      0.0000 
     30 N5         45.3170  -22.6240   19.6360 N.2       1 FAD700      0.0000 
     31 C5X        44.7380  -23.8530   19.3410 C.ar      1 FAD700      0.0000 
     32 C6         45.3320  -25.0540   19.7710 C.ar      1 FAD700      0.0000 
     33 C7         44.9100  -26.2930   19.2660 C.ar      1 FAD700      0.0000 
     34 C7M        45.4880  -27.5920   19.7790 C.3       1 FAD700      0.0000 
     35 C8         43.9100  -26.3490   18.3420 C.ar      1 FAD700      0.0000 
     36 C8M        43.4620  -27.6920   17.7590 C.3       1 FAD700      0.0000 
     37 C9         43.3100  -25.1630   17.9460 C.ar      1 FAD700      0.0000 
     38 C9A        43.7380  -23.9160   18.3890 C.ar      1 FAD700      0.0000 
     39 N10        42.9310  -22.8200   18.2040 N.pl3     1 FAD700      0.0000 
     40 C10        43.3900  -21.5980   18.6280 C.2       1 FAD700      0.0000 
     41 C1'        41.8090  -22.8720   17.2340 C.3       1 FAD700      0.0000 
     42 C2'        40.5610  -23.3340   17.9530 C.3       1 FAD700      0.0000 
     43 O2'        39.8290  -24.0840   17.0040 O.3       1 FAD700      0.0000 
     44 C3'        39.6830  -22.1510   18.4280 C.3       1 FAD700      0.0000 
     45 O3'        40.4190  -21.2050   19.2160 O.3       1 FAD700      0.0000 
     46 C4'        38.5100  -22.6240   19.2800 C.3       1 FAD700      0.0000 
     47 O4'        38.9830  -23.3320   20.3890 O.3       1 FAD700      0.0000 
     48 C5'        37.5220  -23.4760   18.5320 C.3       1 FAD700      0.0000 
     49 O5'        36.3220  -23.3320   19.1850 O.3       1 FAD700      0.0000 
     50 P          35.0220  -24.0730   18.6560 P.3       1 FAD700      0.0000 
     51 O1P        34.0290  -24.1620   19.7120 O.co2     1 FAD700      0.0000 
     52 O2P        34.4480  -23.2860   17.4660 O.co2     1 FAD700      0.0000 
     53 O3P        35.4740  -25.5030   18.1290 O.3       1 FAD700      0.0000 
     54 H          34.5664  -28.6763   17.8835 H         1 FAD700      0.0000 
     55 H          33.1325  -27.6828   18.1949 H         1 FAD700      0.0000 
     56 H          32.9500  -29.0002   20.3915 H         1 FAD700      0.0000 
     57 H          35.2927  -30.1279   19.4737 H         1 FAD700      0.0000 
     58 H          34.3201  -31.4536   17.8966 H         1 FAD700      0.0000 
     59 H          32.0029  -31.7605   19.6775 H         1 FAD700      0.0000 
     60 H          33.1974  -31.6145   16.0529 H         1 FAD700      0.0000 
     61 H          28.4900  -35.2117   14.6569 H         1 FAD700      0.0000 
     62 H          30.0913  -34.5636   14.1656 H         1 FAD700      0.0000 
     63 H          28.0915  -34.1965   19.0014 H         1 FAD700      0.0000 
     64 H          45.0930  -18.2785   18.8347 H         1 FAD700      0.0000 
     65 H          46.0903  -25.0209   20.4693 H         1 FAD700      0.0000 
     66 H          42.4978  -25.2066   17.2835 H         1 FAD700      0.0000 
     67 H          42.0367  -23.5697   16.4318 H         1 FAD700      0.0000 
     68 H          41.6316  -21.8866   16.8101 H         1 FAD700      0.0000 
     69 H          40.8339  -23.9243   18.7938 H         1 FAD700      0.0000 
     70 H          39.2675  -21.6652   17.5464 H         1 FAD700      0.0000 
     71 H          37.9740  -21.7181   19.6202 H         1 FAD700      0.0000 
     72 H          37.8936  -24.5021   18.5393 H         1 FAD700      0.0000 
     73 H          37.4930  -23.1244   17.4993 H         1 FAD700      0.0000 
     74 H          46.4769  -27.6398   19.6381 H         1 FAD700      0.0000 
     75 H          45.3256  -27.7095   20.7587 H         1 FAD700      0.0000 
     76 H          45.0876  -28.3842   19.3184 H         1 FAD700      0.0000 
     77 H          44.2088  -28.1590   17.2855 H         1 FAD700      0.0000 
     78 H          43.1313  -28.3134   18.4693 H         1 FAD700      0.0000 
     79 H          42.7199  -27.5809   17.0980 H         1 FAD700      0.0000 
     80 H          33.5237  -31.5708   21.0927 H         1 FAD700      0.0000 
     81 H          33.5688  -32.8229   20.2623 H         1 FAD700      0.0000 
     82 H          39.1055  -23.4689   16.6906 H         1 FAD700      0.0000 
     83 H          41.2334  -20.9956   18.6748 H         1 FAD700      0.0000 
     84 H          38.1616  -23.6287   20.8760 H         1 FAD700      0.0000 
@<TRIPOS>BOND
     1    2    1 ar   
     2    3    1 ar   
     3    4    1 1    
     4   53    1 1    
     5    5    4 1    
     6    6    5 1    
     7   54    5 1    
     8   55    5 1    
     9    7    6 1    
    10    8    6 1    
    11   56    6 1    
    12   12    7 1    
    13    9    8 1    
    14   10    8 1    
    15   57    8 1    
    16   80    9 1    
    17   11   10 1    
    18   12   10 1    
    19   58   10 1    
    20   81   11 1    
    21   13   12 1    
    22   59   12 1    
    23   14   13 1    
    24   22   13 1    
    25   15   14 2    
    26   60   14 1    
    27   16   15 1    
    28   17   16 ar   
    29   22   16 ar   
    30   18   17 1    
    31   19   17 ar   
    32   61   18 1    
    33   62   18 1    
    34   20   19 ar   
    35   21   20 ar   
    36   63   20 1    
    37   22   21 ar   
    38   24   23 1    
    39   40   23 2    
    40   25   24 2    
    41   26   24 am   
    42   27   26 am   
    43   64   26 1    
    44   28   27 2    
    45   29   27 1    
    46   30   29 2    
    47   40   29 1    
    48   31   30 1    
    49   32   31 ar   
    50   38   31 ar   
    51   33   32 ar   
    52   65   32 1    
    53   34   33 1    
    54   35   33 ar   
    55   74   34 1    
    56   75   34 1    
    57   76   34 1    
    58   36   35 1    
    59   37   35 ar   
    60   77   36 1    
    61   78   36 1    
    62   79   36 1    
    63   38   37 ar   
    64   66   37 1    
    65   39   38 1    
    66   40   39 1    
    67   41   39 1    
    68   42   41 1    
    69   67   41 1    
    70   68   41 1    
    71   43   42 1    
    72   44   42 1    
    73   69   42 1    
    74   82   43 1    
    75   45   44 1    
    76   46   44 1    
    77   70   44 1    
    78   83   45 1    
    79   47   46 1    
    80   48   46 1    
    81   71   46 1    
    82   84   47 1    
    83   49   48 1    
    84   72   48 1    
    85   73   48 1    
    86   50   49 1    
    87   51   50 ar   
    88   52   50 ar   
    89   53   50 1    
@<TRIPOS>SUBSTRUCTURE
     1 FAD700      1 GROUP   
@<TRIPOS>SET

