#    Name: 3kbz_2T4_2_INTS_M
#    Modification time : Mon Mar 24 19:09:28 2014

@<TRIPOS>MOLECULE
3kbz_2T4_2_INTS_M
   52     0    12     0     0
SMALL
NO_CHARGES


@<TRIPOS>ATOM
      1 CA         38.5260    3.0765   32.1695 C.3       4 GLC5        0.0000 
      2 CA         36.9400    1.5230   32.1030 C.3      12 GLL5        0.0000 
      3 CA         40.1120    4.6300   32.2360 C.3       8 GLP5        0.0000 
      4 CA         32.6945    3.2630   34.4940 C.3       4 GLC5        0.0000 
      5 CA         34.6060    3.7070   33.7970 C.3      12 GLL5        0.0000 
      6 CA         30.7830    2.8190   35.1910 C.3       8 GLP5        0.0000 
      7 CA         31.9830    4.0445   33.8435 C.3       4 GLC5        0.0000 
      8 CA         33.1830    5.2700   32.4960 C.3      12 GLL5        0.0000 
      9 CA         35.1470    5.7065   33.3190 C.3       4 GLC5        0.0000 
     10 CA         37.1110    6.1430   34.1420 C.3       8 GLP5        0.0000 
     11 CA         33.5500    7.3370   32.8845 C.3       4 GLC5        0.0000 
     12 CA         33.9170    9.4040   33.2730 C.3       8 GLP5        0.0000 
     13 CA         33.7805    5.9540   30.9710 C.3       4 GLC5        0.0000 
     14 CA         34.3780    6.6380   29.4460 C.3       8 GLP5        0.0000 
     15 O          31.7010    5.9445   36.3370 O.2       1 ALC1        0.0000 
     16 O          32.1120    6.1260   34.9580 O.2       9 ALL1        0.0000 
     17 O          31.2900    5.7630   37.7160 O.2       5 ALP1        0.0000 
     18 CA         36.6495    4.1055   36.7670 C.3       4 GLC5        0.0000 
     19 CA         36.8630    1.8910   36.9830 C.3      12 GLL5        0.0000 
     20 CA         36.4360    6.3200   36.5510 C.3       8 GLP5        0.0000 
     21 NZ         38.2580    1.4880   40.3095 N.4       3 LYC4        0.0000 
     22 NZ         37.1010    1.4480   39.6580 N.4      11 LYL4        0.0000 
     23 NZ         39.4150    1.5280   40.9610 N.4       7 LYP4        0.0000 
     24 N          36.0955    0.9045   40.5140 N.am      2 SEC2        0.0000 
     25 N          37.1010    1.4480   39.6580 N.am     10 SEL2        0.0000 
     26 N          35.0900    0.3610   41.3700 N.am      6 SEP2        0.0000 
     27 N          36.9070    1.9665   41.1225 N.am      2 SEC2        0.0000 
     28 N          36.7130    2.4850   42.5870 N.am      6 SEP2        0.0000 
     29 N          38.2580    1.4880   40.3095 N.am      2 SEC2        0.0000 
     30 N          39.4150    1.5280   40.9610 N.am      6 SEP2        0.0000 
     31 NZ         38.2210    2.6580   39.9400 N.4       3 LYC4        0.0000 
     32 NZ         37.0270    3.7880   38.9190 N.4      11 LYL4        0.0000 
     33 N          36.5450    5.1345   38.9500 N.am      2 SEC2        0.0000 
     34 N          37.0270    3.7880   38.9190 N.am     10 SEL2        0.0000 
     35 N          36.0630    6.4810   38.9810 N.am      6 SEP2        0.0000 
     36 N          38.1185    3.9470   38.0665 N.am      2 SEC2        0.0000 
     37 N          39.2100    4.1060   37.2140 N.am      6 SEP2        0.0000 
     38 N          34.3635    2.5650   40.0930 N.am      2 SEC2        0.0000 
     39 N          34.9970    2.4300   38.8850 N.am     10 SEL2        0.0000 
     40 N          33.7300    2.7000   41.3010 N.am      6 SEP2        0.0000 
     41 CA         35.2185    0.5535   34.4880 C.3       4 GLC5        0.0000 
     42 CA         36.2040    1.9940   34.7890 C.3      12 GLL5        0.0000 
     43 CA         33.7420   -0.4080   34.3450 C.3       8 GLP5        0.0000 
     44 CA         36.5125    4.2408   34.2080 C.3       4 GLC5        0.0000 
     45 CA         35.4945    0.3768   33.4815 C.3       4 GLC5        0.0000 
     46 CA         34.5687    5.1807   30.7285 C.3       4 GLC5        0.0000 
     47 CA         34.3570    4.0780   32.5480 C.3      12 GLL5        0.0000 
     48 CA         32.0530    4.2685   31.6765 C.3       4 GLC5        0.0000 
     49 CA         30.3360    3.8630   30.8310 C.3       8 GLP5        0.0000 
     50 CA         34.4720    1.3659   33.8967 C.3       4 GLC5        0.0000 
     51 CA         36.0676    4.7735   33.3535 C.3       4 GLC5        0.0000 
     52 CA         35.9720    2.4620   32.4410 C.3      12 GLL5        0.0000 
@<TRIPOS>BOND
@<TRIPOS>SUBSTRUCTURE
     1 ALC1       15 GROUP        1 X    ALC  0     ROOT ALC X 1
     2 SEC2       24 GROUP        1 X    SEC  0     **** SEC X 2
     3 LYC4       21 GROUP        1 X    LYC  0     **** LYC X 4
     4 GLC5        1 GROUP        1 X    GLC  0     **** GLC X 6
     5 ALP1       17 GROUP        1 Y    ALP  0     ROOT ALP Y 8
     6 SEP2       26 GROUP        1 Y    SEP  0     **** SEP Y 9
     7 LYP4       23 GROUP        1 Y    LYP  0     **** LYP Y 11
     8 GLP5        3 GROUP        1 Y    GLP  0     **** GLP Y 13
     9 ALL1       16 GROUP        1 Z    ALL  0     ROOT ALL Z 15
    10 SEL2       25 GROUP        1 Z    SEL  0     **** SEL Z 16
    11 LYL4       22 GROUP        1 Z    LYL  0     **** LYL Z 18
    12 GLL5        2 GROUP        1 Z    GLL  0     **** GLL Z 20
@<TRIPOS>SET

