#    Name: 3kbz_2T4_2_ligand
#    Modification time : Mon Mar 24 19:09:28 2014

@<TRIPOS>MOLECULE
3kbz_2T4_2_ligand
   28    30     1     0     0
SMALL
NO_CHARGES


@<TRIPOS>ATOM
      1 C1         36.2040    1.9940   34.7890 C.ar      1 2T4401      0.0000 
      2 C2         37.1860    1.0360   34.4730 C.ar      1 2T4401      0.0000 
      3 C3         37.5540    0.8000   33.1330 C.ar      1 2T4401      0.0000 
      4 C4         36.9400    1.5230   32.1030 C.ar      1 2T4401      0.0000 
      5 C5         35.9720    2.4620   32.4410 C.ar      1 2T4401      0.0000 
      6 C6         35.6240    2.6830   33.7590 C.ar      1 2T4401      0.0000 
      7 C7         35.1620    3.3690   31.4740 C.3       1 2T4401      0.0000 
      8 C8         34.3570    4.0780   32.5480 C.2       1 2T4401      0.0000 
      9 C9         34.6060    3.7070   33.7970 C.2       1 2T4401      0.0000 
     10 S10        33.1830    5.2700   32.4960 S.3       1 2T4401      0.0000 
     11 C11        33.0320    5.2610   34.2140 C.2       1 2T4401      0.0000 
     12 N12        33.8910    4.3360   34.7960 N.2       1 2T4401      0.0000 
     13 N13        32.1120    6.1260   34.9580 N.pl3     1 2T4401      0.0000 
     14 O14        35.8230    2.2430   36.1020 O.3       1 2T4401      0.0000 
     15 C15        36.8630    1.8910   36.9830 C.3       1 2T4401      0.0000 
     16 P16        36.4790    2.4120   38.6850 P.3       1 2T4401      0.0000 
     17 O17        37.1010    1.4480   39.6580 O.co2     1 2T4401      0.0000 
     18 O18        37.0270    3.7880   38.9190 O.co2     1 2T4401      0.0000 
     19 O19        34.9970    2.4300   38.8850 O.co2     1 2T4401      0.0000 
     20 H          37.6388    0.5038   35.2252 H         1 2T4401      0.0000 
     21 H          38.2688    0.1009   32.9176 H         1 2T4401      0.0000 
     22 H          37.1986    1.3621   31.1344 H         1 2T4401      0.0000 
     23 H          34.5501    2.7803   30.8888 H         1 2T4401      0.0000 
     24 H          35.8046    4.0262   31.0066 H         1 2T4401      0.0000 
     25 H          31.7209    5.7378   35.7924 H         1 2T4401      0.0000 
     26 H          31.9508    7.0335   34.5703 H         1 2T4401      0.0000 
     27 H          37.8133    2.3917   36.8360 H         1 2T4401      0.0000 
     28 H          37.0300    0.8310   37.1371 H         1 2T4401      0.0000 
@<TRIPOS>BOND
     1    2    1 ar   
     2    6    1 ar   
     3   14    1 1    
     4    3    2 ar   
     5   20    2 1    
     6    4    3 ar   
     7   21    3 1    
     8    5    4 ar   
     9   22    4 1    
    10    6    5 ar   
    11    7    5 1    
    12    9    6 1    
    13    8    7 1    
    14   23    7 1    
    15   24    7 1    
    16    9    8 2    
    17   10    8 1    
    18   12    9 1    
    19   11   10 1    
    20   12   11 2    
    21   13   11 1    
    22   25   13 1    
    23   26   13 1    
    24   15   14 1    
    25   16   15 1    
    26   27   15 1    
    27   28   15 1    
    28   17   16 ar   
    29   18   16 ar   
    30   19   16 ar   
@<TRIPOS>SUBSTRUCTURE
     1 2T4401      1 GROUP   
@<TRIPOS>SET

