#    Name: 4KTN_1_CAVITY_N1_6.mol2
#    Modification time : Tue Mar 11 12:06:14 2014

@<TRIPOS>MOLECULE
4KTN_1_CAVITY_N1_6.mol2
   77     0     6     0     0
SMALL
NO_CHARGES


@<TRIPOS>ATOM
      1 O         -10.0331  -11.8019  -19.2507 O.2       2 ALA2        0.0000 
      2 OD1        -9.1032  -11.4403  -16.8518 O.3       3 ASP3        0.0000 
      3 CA         -9.2643  -10.3686  -17.8889 C.3       5 GLY6        0.0000 
      4 O          -9.4254   -9.2969  -18.9259 O.2       2 ALA2        0.0000 
      5 O         -10.6307  -10.8926  -18.2182 O.2       2 ALA2        0.0000 
      6 CA         -8.6565   -7.8636  -17.5641 C.3       5 GLY6        0.0000 
      7 O          -8.8176   -6.7918  -18.6011 O.2       2 ALA2        0.0000 
      8 N          -9.8618   -9.4593  -16.8564 N.2       2 ALA2        0.0000 
      9 O         -10.0229   -8.3876  -17.8934 O.2       2 ALA2        0.0000 
     10 O         -10.1840   -7.3159  -18.9305 O.2       2 ALA2        0.0000 
     11 O         -10.3451   -6.2441  -19.9675 O.2       2 ALA2        0.0000 
     12 CA        -11.2282   -9.9833  -17.1857 C.3       5 GLY6        0.0000 
     13 O         -11.3893   -8.9116  -18.2227 O.2       2 ALA2        0.0000 
     14 CA         -6.5214   -5.9063  -15.8730 C.3       5 GLY6        0.0000 
     15 CA         -7.8877   -6.4303  -16.2023 C.3       5 GLY6        0.0000 
     16 DU         -8.0488   -5.3585  -17.2393 H         6 CUB7        0.0000 
     17 CA         -9.2541   -6.9543  -16.5316 C.3       5 GLY6        0.0000 
     18 DU         -9.4152   -5.8825  -17.5686 H         6 CUB7        0.0000 
     19 DU         -9.5763   -4.8108  -18.6057 H         6 CUB7        0.0000 
     20 N         -10.4594   -8.5500  -15.8238 N.2       2 ALA2        0.0000 
     21 NZ        -10.6205   -7.4783  -16.8609 N.2       4 LYS4        0.0000 
     22 NZ        -10.7816   -6.4066  -17.8979 N.2       4 LYS4        0.0000 
     23 NZ        -10.9426   -5.3348  -18.9350 N.2       4 LYS4        0.0000 
     24 N         -11.1037   -4.2631  -19.9720 N.2       2 ALA2        0.0000 
     25 N         -11.8258   -9.0740  -16.1531 N.2       2 ALA2        0.0000 
     26 CA         -7.1189   -4.9970  -14.8405 C.3       5 GLY6        0.0000 
     27 DU         -7.2800   -3.9252  -15.8775 H         6 CUB7        0.0000 
     28 DU         -7.4411   -2.8535  -16.9146 H         6 CUB7        0.0000 
     29 CA         -8.4853   -5.5210  -15.1698 C.3       5 GLY6        0.0000 
     30 DU         -8.8074   -3.3775  -17.2439 H         6 CUB7        0.0000 
     31 CA         -9.8517   -6.0450  -15.4991 C.3       5 GLY6        0.0000 
     32 DU        -10.0127   -4.9732  -16.5361 H         6 CUB7        0.0000 
     33 DU        -10.1738   -3.9015  -17.5732 H         6 CUB7        0.0000 
     34 CA        -10.3349   -2.8298  -18.6102 C.3       5 GLY6        0.0000 
     35 O         -11.0570   -7.6407  -14.7913 O.2       2 ALA2        0.0000 
     36 NZ        -11.2180   -6.5690  -15.8284 N.2       4 LYS4        0.0000 
     37 NZ        -11.3791   -5.4973  -16.8654 N.2       4 LYS4        0.0000 
     38 NZ        -11.5402   -4.4255  -17.9025 N.2       4 LYS4        0.0000 
     39 O         -12.4233   -8.1647  -15.1206 O.2       2 ALA2        0.0000 
     40 NZ        -12.5844   -7.0930  -16.1577 N.2       4 LYS4        0.0000 
     41 CA         -6.5112   -2.4919  -14.5157 C.3       5 GLY6        0.0000 
     42 N          -6.6723   -1.4202  -15.5527 N.2       2 ALA2        0.0000 
     43 CA         -7.7165   -4.0877  -13.8079 C.3       5 GLY6        0.0000 
     44 N          -7.8776   -3.0159  -14.8450 N.2       2 ALA2        0.0000 
     45 N          -8.0386   -1.9442  -15.8820 N.2       2 ALA2        0.0000 
     46 N          -8.1997   -0.8725  -16.9191 N.2       2 ALA2        0.0000 
     47 CA         -9.0829   -4.6117  -14.1372 C.3       5 GLY6        0.0000 
     48 N          -9.2439   -3.5399  -15.1743 N.2       2 ALA2        0.0000 
     49 N          -9.4050   -2.4682  -16.2113 N.2       2 ALA2        0.0000 
     50 CA        -10.4492   -5.1357  -14.4665 C.3       5 GLY6        0.0000 
     51 N         -10.6103   -4.0639  -15.5036 N.2       2 ALA2        0.0000 
     52 N         -10.7714   -2.9922  -16.5406 N.2       2 ALA2        0.0000 
     53 CA        -11.6545   -6.7314  -13.7588 C.3       5 GLY6        0.0000 
     54 CA        -11.8156   -5.6597  -14.7959 C.3       5 GLY6        0.0000 
     55 N         -11.9767   -4.5879  -15.8329 N.2       2 ALA2        0.0000 
     56 OG        -13.0209   -7.2554  -14.0881 O.2       1 SER1        0.0000 
     57 CA        -13.1820   -6.1837  -15.1252 C.3       5 GLY6        0.0000 
     58 N          -7.1087   -1.5826  -13.4832 N.2       2 ALA2        0.0000 
     59 CA         -8.3140   -3.1784  -12.7754 C.3       5 GLY6        0.0000 
     60 N          -8.4751   -2.1066  -13.8125 N.2       2 ALA2        0.0000 
     61 CA         -9.6804   -3.7024  -13.1047 C.3       5 GLY6        0.0000 
     62 CA         -9.8415   -2.6306  -14.1418 C.3       5 GLY6        0.0000 
     63 CA        -11.0468   -4.2264  -13.4340 C.3       5 GLY6        0.0000 
     64 CA        -11.2079   -3.1546  -14.4711 C.3       5 GLY6        0.0000 
     65 OG        -12.2521   -5.8221  -12.7263 O.2       1 SER1        0.0000 
     66 NZ        -12.4132   -4.7504  -13.7633 N.2       4 LYS4        0.0000 
     67 N         -12.5742   -3.6786  -14.8004 N.2       2 ALA2        0.0000 
     68 NZ        -13.7795   -5.2744  -14.0926 N.2       4 LYS4        0.0000 
     69 CA        -10.2780   -2.7931  -12.0722 C.3       5 GLY6        0.0000 
     70 CA        -11.4833   -4.3888  -11.3645 C.3       5 GLY6        0.0000 
     71 CA        -11.6443   -3.3171  -12.4015 C.3       5 GLY6        0.0000 
     72 CA        -12.8496   -4.9128  -11.6938 C.3       5 GLY6        0.0000 
     73 NZ        -13.0107   -3.8411  -12.7308 N.2       4 LYS4        0.0000 
     74 CA        -12.0808   -3.4795  -10.3320 C.3       5 GLY6        0.0000 
     75 CA        -12.2419   -2.4078  -11.3690 C.3       5 GLY6        0.0000 
     76 CA        -13.4472   -4.0035  -10.6613 C.3       5 GLY6        0.0000 
     77 OG        -13.6083   -2.9318  -11.6983 O.2       1 SER1        0.0000 
@<TRIPOS>BOND
@<TRIPOS>SUBSTRUCTURE
     1 SER1       56 GROUP   
     2 ALA2        1 GROUP   
     3 ASP3        2 GROUP   
     4 LYS4       21 GROUP   
     5 GLY6        3 GROUP   
     6 CUB7       16 GROUP   
@<TRIPOS>SET

