#    Name: 4ktn_MJU_1_INTS_M
#    Modification time : Tue Mar 25 08:54:08 2014

@<TRIPOS>MOLECULE
4ktn_MJU_1_INTS_M
   58     0     6     0     0
SMALL
NO_CHARGES


@<TRIPOS>ATOM
      1 CA         -9.9905   -1.7585  -14.1025 C.3       2 GLC5        0.0000 
      2 CA         -8.3480   -3.1450  -14.2370 C.3       6 GLL5        0.0000 
      3 CA        -11.6330   -0.3720  -13.9680 C.3       4 GLP5        0.0000 
      4 CA         -7.1290   -2.9505  -12.5200 C.3       2 GLC5        0.0000 
      5 CA         -5.9100   -2.7560  -10.8030 C.3       4 GLP5        0.0000 
      6 CA         -7.5125   -6.2695  -13.7605 C.3       2 GLC5        0.0000 
      7 CA         -7.6010   -5.2490  -15.3200 C.3       6 GLL5        0.0000 
      8 CA         -7.4240   -7.2900  -12.2010 C.3       4 GLP5        0.0000 
      9 CA         -7.4555   -7.2660  -15.1785 C.3       2 GLC5        0.0000 
     10 CA         -7.3100   -9.2830  -15.0370 C.3       4 GLP5        0.0000 
     11 CA         -9.8805   -4.1170  -11.2920 C.3       2 GLC5        0.0000 
     12 CA        -10.3780   -2.4710  -12.1670 C.3       6 GLL5        0.0000 
     13 CA         -9.3830   -5.7630  -10.4170 C.3       4 GLP5        0.0000 
     14 CA        -13.0970   -6.0800  -12.0440 C.3       2 GLC5        0.0000 
     15 CA        -12.3740   -5.2320  -13.6840 C.3       6 GLL5        0.0000 
     16 CA        -13.8200   -6.9280  -10.4040 C.3       4 GLP5        0.0000 
     17 O         -14.6240   -4.6805  -12.7950 O.2       1 ALC1        0.0000 
     18 O         -13.2170   -4.5910  -12.8160 O.2       5 ALL1        0.0000 
     19 O         -16.0310   -4.7700  -12.7740 O.2       3 ALP1        0.0000 
     20 CA        -12.2580   -9.3530  -14.5985 C.3       2 GLC5        0.0000 
     21 CA        -11.7990   -8.0980  -16.2330 C.3       6 GLL5        0.0000 
     22 CA        -12.7170  -10.6080  -12.9640 C.3       4 GLP5        0.0000 
     23 CA        -11.0485  -10.9395  -19.0215 C.3       2 GLC5        0.0000 
     24 CA         -9.1360  -10.1100  -18.3510 C.3       6 GLL5        0.0000 
     25 CA        -12.9610  -11.7690  -19.6920 C.3       4 GLP5        0.0000 
     26 CA         -5.9487   -4.3626  -13.8111 C.3       2 GLC5        0.0000 
     27 CA         -6.5470   -4.1660  -15.5650 C.3       6 GLL5        0.0000 
     28 CA         -4.6780   -4.3510  -12.2960 C.3       4 GLP5        0.0000 
     29 CA        -10.8588   -5.0917  -11.9825 C.3       2 GLC5        0.0000 
     30 CA        -11.2430   -3.4560  -12.6500 C.3       6 GLL5        0.0000 
     31 CA         -9.7770   -6.6830  -11.5600 C.3       4 GLP5        0.0000 
     32 CA        -11.1300   -1.1957  -12.8272 C.3       2 GLC5        0.0000 
     33 CA        -13.2293   -0.6015   -9.8205 C.3       2 GLC5        0.0000 
     34 CA        -12.1940   -1.6430  -10.7360 C.3       6 GLL5        0.0000 
     35 CA        -13.8190    0.9280   -8.6690 C.3       4 GLP5        0.0000 
     36 CA        -12.1363   -1.2515  -12.4700 C.3       2 GLC5        0.0000 
     37 CA        -12.8457   -4.6600  -10.5650 C.3       2 GLC5        0.0000 
     38 CA        -13.0850   -2.6190  -11.2080 C.3       6 GLL5        0.0000 
     39 CA        -12.8300   -6.2380   -9.4460 C.3       4 GLP5        0.0000 
     40 CA        -12.3470   -2.5096   -9.1578 C.3       2 GLC5        0.0000 
     41 CA        -12.3840   -2.9070   -7.2260 C.3       4 GLP5        0.0000 
     42 CA        -13.3712   -7.0360  -16.6410 C.3       2 GLC5        0.0000 
     43 CA        -11.4920   -6.7360  -15.2770 C.3       6 GLL5        0.0000 
     44 CA        -15.0970   -6.6550  -17.5270 C.3       4 GLP5        0.0000 
     45 CA        -10.4887   -8.1225  -14.3180 C.3       2 GLC5        0.0000 
     46 CA         -9.3320   -8.8280  -12.8810 C.3       4 GLP5        0.0000 
     47 CA        -10.6104   -5.8494  -12.7195 C.3       2 GLC5        0.0000 
     48 CA         -9.9560   -5.0590  -14.5070 C.3       6 GLL5        0.0000 
     49 CA        -11.7652   -2.0717  -13.3104 C.3       2 GLC5        0.0000 
     50 CA        -11.0710   -4.5400  -13.6410 C.3       6 GLL5        0.0000 
     51 CA         -7.5845   -9.8117  -17.3083 C.3       2 GLC5        0.0000 
     52 CA         -6.3710  -10.0750  -15.9130 C.3       4 GLP5        0.0000 
     53 CA         -6.8820  -10.5712  -17.8532 C.3       2 GLC5        0.0000 
     54 CA         -7.7100  -11.5970  -19.4650 C.3       6 GLL5        0.0000 
     55 CA        -12.0583  -10.4103  -17.1770 C.3       2 GLC5        0.0000 
     56 CA        -10.1740   -9.8240  -17.4670 C.3       6 GLL5        0.0000 
     57 CA        -13.4480  -11.7630  -17.2420 C.3       4 GLP5        0.0000 
     58 CA         -8.7475   -9.0909  -16.2918 C.3       2 GLC5        0.0000 
@<TRIPOS>BOND
@<TRIPOS>SUBSTRUCTURE
     1 ALC1       17 GROUP        1 X    ALC  0     ROOT ALC X 1
     2 GLC5        1 GROUP        1 X    GLC  0     **** GLC X 6
     3 ALP1       19 GROUP        1 Y    ALP  0     ROOT ALP Y 8
     4 GLP5        3 GROUP        1 Y    GLP  0     **** GLP Y 13
     5 ALL1       18 GROUP        1 Z    ALL  0     ROOT ALL Z 15
     6 GLL5        2 GROUP        1 Z    GLL  0     **** GLL Z 20
@<TRIPOS>SET

