#    Name: 4ktn_MJU_1_ligand
#    Modification time : Tue Mar 25 08:54:08 2014

@<TRIPOS>MOLECULE
4ktn_MJU_1_ligand
   49    54     1     0     0
SMALL
NO_CHARGES


@<TRIPOS>ATOM
      1 N19        -6.1750   -4.1050  -16.9670 N.4       1 MJU301      0.0000 
      2 C17        -6.5470   -4.1660  -15.5650 C.3       1 MJU301      0.0000 
      3 C16        -7.1290   -2.8330  -15.1000 C.3       1 MJU301      0.0000 
      4 C15        -8.3480   -3.1450  -14.2370 C.3       1 MJU301      0.0000 
      5 C18        -7.6010   -5.2490  -15.3200 C.3       1 MJU301      0.0000 
      6 N14        -8.6640   -4.5100  -14.6360 N.3       1 MJU301      0.0000 
      7 C10        -9.9560   -5.0590  -14.5070 C.ar      1 MJU301      0.0000 
      8 C7        -11.0710   -4.5400  -13.6410 C.ar      1 MJU301      0.0000 
      9 C3        -11.2430   -3.4560  -12.6500 C.ar      1 MJU301      0.0000 
     10 C4        -10.3780   -2.4710  -12.1670 C.ar      1 MJU301      0.0000 
     11 C5        -10.8760   -1.5680  -11.2060 C.ar      1 MJU301      0.0000 
     12 C6        -12.1940   -1.6430  -10.7360 C.ar      1 MJU301      0.0000 
     13 C1        -13.0850   -2.6190  -11.2080 C.ar      1 MJU301      0.0000 
     14 N11       -10.2680   -6.1330  -15.2870 N.ar      1 MJU301      0.0000 
     15 C12       -11.4920   -6.7360  -15.2770 C.ar      1 MJU301      0.0000 
     16 N13       -12.5150   -6.2930  -14.5170 N.ar      1 MJU301      0.0000 
     17 C8        -12.3740   -5.2320  -13.6840 C.ar      1 MJU301      0.0000 
     18 N9        -13.2170   -4.5910  -12.8160 N.pl3     1 MJU301      0.0000 
     19 C2        -12.6380   -3.5450  -12.1600 C.ar      1 MJU301      0.0000 
     20 S20       -11.7990   -8.0980  -16.2330 S.3       1 MJU301      0.0000 
     21 C21       -10.5270   -8.4840  -17.2810 C.ar      1 MJU301      0.0000 
     22 C26        -9.8650   -7.4630  -17.9710 C.ar      1 MJU301      0.0000 
     23 N25        -8.8610   -7.7150  -18.8270 N.ar      1 MJU301      0.0000 
     24 C24        -8.4600   -8.9870  -19.0560 C.ar      1 MJU301      0.0000 
     25 N27        -7.4520   -9.2650  -19.9160 N.ar      1 MJU301      0.0000 
     26 C28        -7.0760  -10.5380  -20.1220 C.ar      1 MJU301      0.0000 
     27 C29        -7.7100  -11.5970  -19.4650 C.ar      1 MJU301      0.0000 
     28 N30        -8.7190  -11.3740  -18.6020 N.ar      1 MJU301      0.0000 
     29 C23        -9.1360  -10.1100  -18.3510 C.ar      1 MJU301      0.0000 
     30 C22       -10.1740   -9.8240  -17.4670 C.ar      1 MJU301      0.0000 
     31 H          -5.6926   -4.3893  -14.9433 H         1 MJU301      0.0000 
     32 H          -7.4303   -2.2544  -15.9540 H         1 MJU301      0.0000 
     33 H          -6.3981   -2.3059  -14.5146 H         1 MJU301      0.0000 
     34 H          -9.1295   -2.4707  -14.4898 H         1 MJU301      0.0000 
     35 H          -8.0675   -3.0896  -13.2134 H         1 MJU301      0.0000 
     36 H          -7.1823   -5.9996  -14.6947 H         1 MJU301      0.0000 
     37 H          -7.9289   -5.6267  -16.2579 H         1 MJU301      0.0000 
     38 H          -9.4247   -2.4031  -12.4925 H         1 MJU301      0.0000 
     39 H         -10.2479   -0.8302  -10.8394 H         1 MJU301      0.0000 
     40 H         -12.5181   -0.9644  -10.0255 H         1 MJU301      0.0000 
     41 H         -14.0419   -2.6531  -10.8633 H         1 MJU301      0.0000 
     42 H         -14.1626   -4.8648  -12.6789 H         1 MJU301      0.0000 
     43 H         -10.1803   -6.4770  -17.7981 H         1 MJU301      0.0000 
     44 H          -6.2985  -10.7659  -20.7802 H         1 MJU301      0.0000 
     45 H          -7.3798  -12.5653  -19.6617 H         1 MJU301      0.0000 
     46 H         -10.6596  -10.5625  -16.9730 H         1 MJU301      0.0000 
     47 H          -5.4881   -3.3988  -17.1386 H         1 MJU301      0.0000 
     48 H          -5.7914   -4.9711  -17.2875 H         1 MJU301      0.0000 
     49 H          -6.9601   -3.8982  -17.5509 H         1 MJU301      0.0000 
@<TRIPOS>BOND
     1    2    1 1    
     2   47    1 1    
     3   48    1 1    
     4   49    1 1    
     5    3    2 1    
     6    5    2 1    
     7   31    2 1    
     8    4    3 1    
     9   32    3 1    
    10   33    3 1    
    11    6    4 1    
    12   34    4 1    
    13   35    4 1    
    14    6    5 1    
    15   36    5 1    
    16   37    5 1    
    17    7    6 1    
    18    8    7 ar   
    19   14    7 ar   
    20    9    8 1    
    21   17    8 ar   
    22   10    9 ar   
    23   19    9 ar   
    24   11   10 ar   
    25   38   10 1    
    26   12   11 ar   
    27   39   11 1    
    28   13   12 ar   
    29   40   12 1    
    30   19   13 ar   
    31   41   13 1    
    32   15   14 ar   
    33   16   15 ar   
    34   20   15 1    
    35   17   16 ar   
    36   18   17 1    
    37   19   18 1    
    38   42   18 1    
    39   21   20 1    
    40   22   21 ar   
    41   30   21 ar   
    42   23   22 ar   
    43   43   22 1    
    44   24   23 ar   
    45   25   24 ar   
    46   29   24 ar   
    47   26   25 ar   
    48   27   26 ar   
    49   44   26 1    
    50   28   27 ar   
    51   45   27 1    
    52   29   28 ar   
    53   30   29 ar   
    54   46   30 1    
@<TRIPOS>SUBSTRUCTURE
     1 MJU301      1 GROUP   
@<TRIPOS>SET

