#    Name: 1u3d_FAD_2_INTS_M
#    Modification time : Tue Mar 25 06:07:06 2014

@<TRIPOS>MOLECULE
1u3d_FAD_2_INTS_M
   86     0     9     0     0
SMALL
NO_CHARGES


@<TRIPOS>ATOM
      1 N          68.3635   -5.1625   69.9910 N.am      2 SEC2        0.0000 
      2 N          67.7860   -5.3140   71.0970 N.am      8 SEL2        0.0000 
      3 N          68.9410   -5.0110   68.8850 N.am      5 SEP2        0.0000 
      4 N          70.1305   -6.4065   73.6070 N.am      2 SEC2        0.0000 
      5 N          69.3950   -5.3040   73.0550 N.am      8 SEL2        0.0000 
      6 N          70.8660   -7.5090   74.1590 N.am      5 SEP2        0.0000 
      7 N          70.0680   -4.9820   74.2005 N.am      2 SEC2        0.0000 
      8 N          70.7410   -4.6600   75.3460 N.am      5 SEP2        0.0000 
      9 CA         70.5480   -2.8390   72.4010 C.3       3 GLC5        0.0000 
     10 CA         69.1120   -2.3310   73.0840 C.3       9 GLL5        0.0000 
     11 CA         71.9840   -3.3470   71.7180 C.3       6 GLP5        0.0000 
     12 CA         67.3035   -0.6740   71.0035 C.3       3 GLC5        0.0000 
     13 CA         66.3280   -0.0350   72.8710 C.3       9 GLL5        0.0000 
     14 CA         68.2790   -1.3130   69.1360 C.3       6 GLP5        0.0000 
     15 CA         65.9965    1.9060   73.0755 C.3       3 GLC5        0.0000 
     16 CA         65.6650    3.8470   73.2800 C.3       6 GLP5        0.0000 
     17 CA         63.2190    2.0415   69.9535 C.3       3 GLC5        0.0000 
     18 CA         62.3990    1.4960   71.6450 C.3       9 GLL5        0.0000 
     19 CA         64.0390    2.5870   68.2620 C.3       6 GLP5        0.0000 
     20 CA         63.5750    3.0070   71.9470 C.3       3 GLC5        0.0000 
     21 CA         64.7510    4.5180   72.2490 C.3       6 GLP5        0.0000 
     22 CA         61.2610    1.9075   73.2695 C.3       3 GLC5        0.0000 
     23 CA         60.1230    2.3190   74.8940 C.3       6 GLP5        0.0000 
     24 CA         64.9270    1.9335   72.4415 C.3       3 GLC5        0.0000 
     25 CA         64.1890    0.0200   71.6030 C.3       9 GLL5        0.0000 
     26 O          60.0610   -0.7875   78.6120 O.2       1 ALC1        0.0000 
     27 O          59.9220   -0.7060   77.2340 O.2       7 ALL1        0.0000 
     28 O          60.2000   -0.8690   79.9900 O.2       4 ALP1        0.0000 
     29 N          57.8630    0.1440   78.6170 N.am      2 SEC2        0.0000 
     30 N          57.6570   -0.8800   77.3650 N.am      8 SEL2        0.0000 
     31 N          58.0690    1.1680   79.8690 N.am      5 SEP2        0.0000 
     32 CA         52.9945   -3.9880   70.3740 C.3       3 GLC5        0.0000 
     33 CA         54.4180   -2.8070   70.9770 C.3       9 GLL5        0.0000 
     34 CA         51.5710   -5.1690   69.7710 C.3       6 GLP5        0.0000 
     35 CA         54.1395   -4.0415   72.5615 C.3       3 GLC5        0.0000 
     36 CA         53.8610   -5.2760   74.1460 C.3       6 GLP5        0.0000 
     37 CA         53.1245   -1.8275   72.0365 C.3       3 GLC5        0.0000 
     38 CA         51.8310   -0.8480   73.0960 C.3       6 GLP5        0.0000 
     39 CA         53.9775   -2.7710   68.8045 C.3       3 GLC5        0.0000 
     40 CA         53.5370   -2.7350   66.6320 C.3       6 GLP5        0.0000 
     41 CA         57.1395   -4.5535   68.0515 C.3       3 GLC5        0.0000 
     42 CA         56.8500   -3.4140   69.3960 C.3       9 GLL5        0.0000 
     43 CA         57.4290   -5.6930   66.7070 C.3       6 GLP5        0.0000 
     44 CA         55.1935   -3.0745   68.0140 C.3       3 GLC5        0.0000 
     45 CA         61.8840   -4.8630   71.1655 C.3       3 GLC5        0.0000 
     46 CA         61.7290   -3.2980   72.4970 C.3       9 GLL5        0.0000 
     47 CA         62.0390   -6.4280   69.8340 C.3       6 GLP5        0.0000 
     48 O          60.8235   -4.5490   70.7085 O.2       1 ALC1        0.0000 
     49 O          61.0160   -4.4950   72.1950 O.2       7 ALL1        0.0000 
     50 O          60.6310   -4.6030   69.2220 O.2       4 ALP1        0.0000 
     51 CA         64.5690   -3.8025   76.3830 C.3       3 GLC5        0.0000 
     52 CA         64.3020   -4.8050   74.9980 C.3       9 GLL5        0.0000 
     53 CA         64.8360   -2.8000   77.7680 C.3       6 GLP5        0.0000 
     54 CA         64.2760   -6.0415   76.2580 C.3       3 GLC5        0.0000 
     55 CA         64.2500   -7.2780   77.5180 C.3       6 GLP5        0.0000 
     56 N          67.1820   -3.9980   77.2050 N.am      2 SEC2        0.0000 
     57 N          67.1520   -4.8070   75.9610 N.am      8 SEL2        0.0000 
     58 N          67.2120   -3.1890   78.4490 N.am      5 SEP2        0.0000 
     59 N          67.7360   -8.1390   74.1390 N.am      2 SEC2        0.0000 
     60 N          67.5060   -6.9330   74.6500 N.am      8 SEL2        0.0000 
     61 N          67.9660   -9.3450   73.6280 N.am      5 SEP2        0.0000 
     62 N          68.5370   -7.0595   75.6625 N.am      2 SEC2        0.0000 
     63 N          69.5680   -7.1860   76.6750 N.am      5 SEP2        0.0000 
     64 CA         68.4642   -1.5440   71.2357 C.3       3 GLC5        0.0000 
     65 CA         69.8032   -0.1795   73.0987 C.3       3 GLC5        0.0000 
     66 CA         70.9570    1.4160   72.8620 C.3       6 GLP5        0.0000 
     67 CA         65.6697   -2.0085   76.0147 C.3       3 GLC5        0.0000 
     68 CA         66.9600   -1.8310   74.2610 C.3       9 GLL5        0.0000 
     69 CA         67.9306   -0.2220   75.5655 C.3       3 GLC5        0.0000 
     70 CA         66.0470   -0.6030   74.2620 C.3       9 GLL5        0.0000 
     71 CA         69.0510    0.6200   77.0380 C.3       6 GLP5        0.0000 
     72 CA         63.8126    1.1587   69.6184 C.3       3 GLC5        0.0000 
     73 CA         63.5890   -0.7440   70.5900 C.3       9 GLL5        0.0000 
     74 CA         57.3515   -4.0400   73.4650 C.3       3 GLC5        0.0000 
     75 CA         57.2030   -2.1090   73.4930 C.3       9 GLL5        0.0000 
     76 CA         58.1400   -5.8550   73.7130 C.3       6 GLP5        0.0000 
     77 CA         56.1145   -0.3830   74.0790 C.3       3 GLC5        0.0000 
     78 CA         55.6660    1.4590   74.9410 C.3       6 GLP5        0.0000 
     79 CA         55.4816   -0.9777   70.7012 C.3       3 GLC5        0.0000 
     80 CA         55.9230   -2.3410   72.9410 C.3       9 GLL5        0.0000 
     81 CA         55.8210    0.7170   69.7760 C.3       6 GLP5        0.0000 
     82 CA         56.8010   -4.9730   70.9920 C.3       3 GLC5        0.0000 
     83 CA         56.9890   -6.8240   71.6720 C.3       6 GLP5        0.0000 
     84 CA         58.2058   -4.1640   72.8800 C.3       3 GLC5        0.0000 
     85 CA         58.2130   -2.6810   71.3940 C.3       9 GLL5        0.0000 
     86 CA         56.6877   -1.1041   70.2666 C.3       3 GLC5        0.0000 
@<TRIPOS>BOND
@<TRIPOS>SUBSTRUCTURE
     1 ALC1       26 GROUP        1 X    ALC  0     ROOT ALC X 1
     2 SEC2        1 GROUP        1 X    SEC  0     **** SEC X 2
     3 GLC5        9 GROUP        1 X    GLC  0     **** GLC X 6
     4 ALP1       28 GROUP        1 Y    ALP  0     ROOT ALP Y 8
     5 SEP2        3 GROUP        1 Y    SEP  0     **** SEP Y 9
     6 GLP5       11 GROUP        1 Y    GLP  0     **** GLP Y 13
     7 ALL1       27 GROUP        1 Z    ALL  0     ROOT ALL Z 15
     8 SEL2        2 GROUP        1 Z    SEL  0     **** SEL Z 16
     9 GLL5       10 GROUP        1 Z    GLL  0     **** GLL Z 20
@<TRIPOS>SET

