#    Name: 1u3d_FAD_2_ligand
#    Modification time : Tue Mar 25 06:07:06 2014

@<TRIPOS>MOLECULE
1u3d_FAD_2_ligand
   84    89     1     0     0
SMALL
NO_CHARGES


@<TRIPOS>ATOM
      1 PA         68.2020   -4.7320   72.3930 P.3       1 FAD510      0.0000 
      2 O1A        67.7860   -5.3140   71.0970 O.co2     1 FAD510      0.0000 
      3 O2A        69.3950   -5.3040   73.0550 O.co2     1 FAD510      0.0000 
      4 O5B        68.4410   -3.1570   72.1260 O.3       1 FAD510      0.0000 
      5 C5B        69.1120   -2.3310   73.0840 C.3       1 FAD510      0.0000 
      6 C4B        68.1870   -1.2190   73.5870 C.3       1 FAD510      0.0000 
      7 O4B        67.6250   -0.5120   72.4700 O.3       1 FAD510      0.0000 
      8 C3B        66.9600   -1.8310   74.2610 C.3       1 FAD510      0.0000 
      9 O3B        67.2650   -2.2150   75.6010 O.3       1 FAD510      0.0000 
     10 C2B        66.0470   -0.6030   74.2620 C.3       1 FAD510      0.0000 
     11 O2B        66.4380    0.3330   75.2640 O.3       1 FAD510      0.0000 
     12 C1B        66.3280   -0.0350   72.8710 C.3       1 FAD510      0.0000 
     13 N9A        65.3480   -0.5660   71.9020 N.pl3     1 FAD510      0.0000 
     14 C8A        65.4840   -1.6460   71.1420 C.2       1 FAD510      0.0000 
     15 N7A        64.4350   -1.7690   70.3390 N.2       1 FAD510      0.0000 
     16 C5A        63.5890   -0.7440   70.5900 C.ar      1 FAD510      0.0000 
     17 C6A        62.3780   -0.3740   70.1030 C.ar      1 FAD510      0.0000 
     18 N6A        61.7770   -1.0480   69.1100 N.pl3     1 FAD510      0.0000 
     19 N1A        61.7580    0.7740   70.6340 N.ar      1 FAD510      0.0000 
     20 C2A        62.3990    1.4960   71.6450 C.ar      1 FAD510      0.0000 
     21 N3A        63.5790    1.0990   72.0920 N.ar      1 FAD510      0.0000 
     22 C4A        64.1890    0.0200   71.6030 C.ar      1 FAD510      0.0000 
     23 N1         60.9600   -1.2240   75.1090 N.2       1 FAD510      0.0000 
     24 C2         61.0890   -0.7850   76.4390 C.2       1 FAD510      0.0000 
     25 O2         62.1560   -0.3920   76.8610 O.2       1 FAD510      0.0000 
     26 N3         59.9220   -0.7060   77.2340 N.am      1 FAD510      0.0000 
     27 C4         58.6740   -1.0220   76.7020 C.2       1 FAD510      0.0000 
     28 O4         57.6570   -0.8800   77.3650 O.2       1 FAD510      0.0000 
     29 C4X        58.5660   -1.4440   75.3680 C.2       1 FAD510      0.0000 
     30 N5         57.3110   -1.7060   74.8200 N.2       1 FAD510      0.0000 
     31 C5X        57.2030   -2.1090   73.4930 C.ar      1 FAD510      0.0000 
     32 C6         55.9230   -2.3410   72.9410 C.ar      1 FAD510      0.0000 
     33 C7         55.8100   -2.7350   71.6110 C.ar      1 FAD510      0.0000 
     34 C7M        54.4180   -2.8070   70.9770 C.3       1 FAD510      0.0000 
     35 C8         56.9420   -2.9250   70.8450 C.ar      1 FAD510      0.0000 
     36 C8M        56.8500   -3.4140   69.3960 C.3       1 FAD510      0.0000 
     37 C9         58.2130   -2.6810   71.3940 C.ar      1 FAD510      0.0000 
     38 C9A        58.3300   -2.2650   72.7000 C.ar      1 FAD510      0.0000 
     39 N10        59.6130   -1.9690   73.2450 N.pl3     1 FAD510      0.0000 
     40 C10        59.7150   -1.5520   74.5760 C.2       1 FAD510      0.0000 
     41 C1'        60.8130   -2.0560   72.3940 C.3       1 FAD510      0.0000 
     42 C2'        61.7290   -3.2980   72.4970 C.3       1 FAD510      0.0000 
     43 O2'        61.0160   -4.4950   72.1950 O.3       1 FAD510      0.0000 
     44 C3'        62.4640   -3.4400   73.8240 C.3       1 FAD510      0.0000 
     45 O3'        63.1410   -2.2160   74.0980 O.3       1 FAD510      0.0000 
     46 C4'        63.5090   -4.5660   73.7120 C.3       1 FAD510      0.0000 
     47 O4'        62.8480   -5.7740   73.3470 O.3       1 FAD510      0.0000 
     48 C5'        64.3020   -4.8050   74.9980 C.3       1 FAD510      0.0000 
     49 O5'        65.2300   -5.8820   74.8210 O.3       1 FAD510      0.0000 
     50 P          66.8230   -5.6380   74.7720 P.3       1 FAD510      0.0000 
     51 O1P        67.1520   -4.8070   75.9610 O.co2     1 FAD510      0.0000 
     52 O2P        67.5060   -6.9330   74.6500 O.co2     1 FAD510      0.0000 
     53 O3P        66.9500   -4.7700   73.4130 O.3       1 FAD510      0.0000 
     54 H          70.0036   -1.8528   72.6527 H         1 FAD510      0.0000 
     55 H          69.4417   -2.9108   73.9585 H         1 FAD510      0.0000 
     56 H          68.6760   -0.5918   74.2549 H         1 FAD510      0.0000 
     57 H          66.5580   -2.5537   73.6524 H         1 FAD510      0.0000 
     58 H          65.0554   -0.9177   74.3013 H         1 FAD510      0.0000 
     59 H          66.2945    1.0164   72.9087 H         1 FAD510      0.0000 
     60 H          66.2495   -2.2634   71.1704 H         1 FAD510      0.0000 
     61 H          60.8903   -0.6945   68.8120 H         1 FAD510      0.0000 
     62 H          62.2696   -1.8434   68.7570 H         1 FAD510      0.0000 
     63 H          61.9219    2.3374   72.0221 H         1 FAD510      0.0000 
     64 H          60.0056   -0.4104   78.2167 H         1 FAD510      0.0000 
     65 H          55.0923   -2.2177   73.5221 H         1 FAD510      0.0000 
     66 H          59.0471   -2.8174   70.8082 H         1 FAD510      0.0000 
     67 H          61.4682   -1.1497   72.5657 H         1 FAD510      0.0000 
     68 H          60.5169   -1.9557   71.3066 H         1 FAD510      0.0000 
     69 H          62.5231   -3.1575   71.7129 H         1 FAD510      0.0000 
     70 H          61.7682   -3.6947   74.5837 H         1 FAD510      0.0000 
     71 H          64.2169   -4.2817   72.9297 H         1 FAD510      0.0000 
     72 H          63.5823   -5.0188   75.7996 H         1 FAD510      0.0000 
     73 H          64.8141   -3.8677   75.2540 H         1 FAD510      0.0000 
     74 H          54.4596   -3.1004   70.0219 H         1 FAD510      0.0000 
     75 H          53.8245   -3.4533   71.4566 H         1 FAD510      0.0000 
     76 H          53.9571   -1.9197   70.9912 H         1 FAD510      0.0000 
     77 H          57.7533   -3.5057   68.9769 H         1 FAD510      0.0000 
     78 H          56.4056   -4.3076   69.3331 H         1 FAD510      0.0000 
     79 H          56.3241   -2.7843   68.8242 H         1 FAD510      0.0000 
     80 H          67.1484   -3.2080   75.6184 H         1 FAD510      0.0000 
     81 H          66.7036   -0.2253   76.0499 H         1 FAD510      0.0000 
     82 H          60.9748   -4.5266   71.1964 H         1 FAD510      0.0000 
     83 H          62.4695   -1.6506   74.5770 H         1 FAD510      0.0000 
     84 H          61.9250   -5.4942   73.0829 H         1 FAD510      0.0000 
@<TRIPOS>BOND
     1    2    1 ar   
     2    3    1 ar   
     3    4    1 1    
     4   53    1 1    
     5    5    4 1    
     6    6    5 1    
     7   54    5 1    
     8   55    5 1    
     9    7    6 1    
    10    8    6 1    
    11   56    6 1    
    12   12    7 1    
    13    9    8 1    
    14   10    8 1    
    15   57    8 1    
    16   80    9 1    
    17   11   10 1    
    18   12   10 1    
    19   58   10 1    
    20   81   11 1    
    21   13   12 1    
    22   59   12 1    
    23   14   13 1    
    24   22   13 1    
    25   15   14 2    
    26   60   14 1    
    27   16   15 1    
    28   17   16 ar   
    29   22   16 ar   
    30   18   17 1    
    31   19   17 ar   
    32   61   18 1    
    33   62   18 1    
    34   20   19 ar   
    35   21   20 ar   
    36   63   20 1    
    37   22   21 ar   
    38   24   23 1    
    39   40   23 2    
    40   25   24 2    
    41   26   24 am   
    42   27   26 am   
    43   64   26 1    
    44   28   27 2    
    45   29   27 1    
    46   30   29 2    
    47   40   29 1    
    48   31   30 1    
    49   32   31 ar   
    50   38   31 ar   
    51   33   32 ar   
    52   65   32 1    
    53   34   33 1    
    54   35   33 ar   
    55   74   34 1    
    56   75   34 1    
    57   76   34 1    
    58   36   35 1    
    59   37   35 ar   
    60   77   36 1    
    61   78   36 1    
    62   79   36 1    
    63   38   37 ar   
    64   66   37 1    
    65   39   38 1    
    66   40   39 1    
    67   41   39 1    
    68   42   41 1    
    69   67   41 1    
    70   68   41 1    
    71   43   42 1    
    72   44   42 1    
    73   69   42 1    
    74   82   43 1    
    75   45   44 1    
    76   46   44 1    
    77   70   44 1    
    78   83   45 1    
    79   47   46 1    
    80   48   46 1    
    81   71   46 1    
    82   84   47 1    
    83   49   48 1    
    84   72   48 1    
    85   73   48 1    
    86   50   49 1    
    87   51   50 ar   
    88   52   50 ar   
    89   53   50 1    
@<TRIPOS>SUBSTRUCTURE
     1 FAD510      1 GROUP   
@<TRIPOS>SET

