#    Name: 2oz6_CMP_2_INTS_M
#    Modification time : Mon Mar 24 18:04:02 2014

@<TRIPOS>MOLECULE
2oz6_CMP_2_INTS_M
   53     0     9     0     0
SMALL
NO_CHARGES


@<TRIPOS>ATOM
      1 N         -27.9325   44.2905   -2.4700 N.am      2 SEC2        0.0000 
      2 N         -28.0270   43.4810   -3.5800 N.am      8 SEL2        0.0000 
      3 N         -27.8380   45.1000   -1.3600 N.am      5 SEP2        0.0000 
      4 N         -28.5885   42.9850   -2.4175 N.am      2 SEC2        0.0000 
      5 N         -29.1500   42.4890   -1.2550 N.am      5 SEP2        0.0000 
      6 N         -25.7300   44.1935   -6.5300 N.am      2 SEC2        0.0000 
      7 N         -26.9360   43.7410   -5.7380 N.am      8 SEL2        0.0000 
      8 N         -24.5240   44.6460   -7.3220 N.am      5 SEP2        0.0000 
      9 CA        -23.7570   43.3375   -2.4310 C.3       3 GLC5        0.0000 
     10 CA        -25.4910   42.1820   -2.5020 C.3       9 GLL5        0.0000 
     11 CA        -22.0230   44.4930   -2.3600 C.3       6 GLP5        0.0000 
     12 CA        -25.1895   44.3865   -2.4560 C.3       3 GLC5        0.0000 
     13 CA        -24.8880   46.5910   -2.4100 C.3       6 GLP5        0.0000 
     14 CA        -25.7095   42.5295   -0.3775 C.3       3 GLC5        0.0000 
     15 CA        -25.9280   42.8770    1.7470 C.3       6 GLP5        0.0000 
     16 CA        -23.7000   41.7270   -3.9190 C.3       3 GLC5        0.0000 
     17 CA        -25.5390   40.7620   -3.0770 C.3       9 GLL5        0.0000 
     18 CA        -21.8610   42.6920   -4.7610 C.3       6 GLP5        0.0000 
     19 N         -28.1335   41.4080   -6.1345 N.am      2 SEC2        0.0000 
     20 N         -27.0930   41.4410   -4.8680 N.am      8 SEL2        0.0000 
     21 N         -29.1740   41.3750   -7.4010 N.am      5 SEP2        0.0000 
     22 N         -25.3375   39.1555   -5.6815 N.am      2 SEC2        0.0000 
     23 N         -26.1120   38.4750   -4.8090 N.am      8 SEL2        0.0000 
     24 N         -24.5630   39.8360   -6.5540 N.am      5 SEP2        0.0000 
     25 O         -26.5595   38.1885   -5.9650 O.2       1 ALC1        0.0000 
     26 O         -26.1120   38.4750   -4.8090 O.2       7 ALL1        0.0000 
     27 O         -27.0070   37.9020   -7.1210 O.2       4 ALP1        0.0000 
     28 CA        -25.3500   37.7285   -1.0890 C.3       3 GLC5        0.0000 
     29 CA        -26.6090   38.9110   -2.2890 C.3       9 GLL5        0.0000 
     30 CA        -24.0910   36.5460    0.1110 C.3       6 GLP5        0.0000 
     31 CA        -28.6055   39.6450   -2.8545 C.3       3 GLC5        0.0000 
     32 CA        -30.6020   40.3790   -3.4200 C.3       6 GLP5        0.0000 
     33 O         -31.1380   34.5375    1.5410 O.2       1 ALC1        0.0000 
     34 O         -30.4720   35.7470    1.2870 O.2       7 ALL1        0.0000 
     35 O         -31.8040   33.3280    1.7950 O.2       4 ALP1        0.0000 
     36 CA        -25.9790   35.5755   -0.4465 C.3       3 GLC5        0.0000 
     37 CA        -27.8670   34.6050   -1.0040 C.3       9 GLL5        0.0000 
     38 CA        -28.3010   33.9360   -2.6330 C.3       3 GLC5        0.0000 
     39 CA        -28.7350   33.2670   -4.2620 C.3       6 GLP5        0.0000 
     40 CA        -23.8100   40.7150   -2.2302 C.3       3 GLC5        0.0000 
     41 CA        -22.1050   39.9580   -1.6710 C.3       6 GLP5        0.0000 
     42 CA        -28.6412   40.0920   -4.3570 C.3       3 GLC5        0.0000 
     43 CA        -26.8930   40.5500   -3.7760 C.3       9 GLL5        0.0000 
     44 CA        -30.3690   40.3880   -4.9060 C.3       6 GLP5        0.0000 
     45 CA        -25.6130   40.5450   -5.2661 C.3       3 GLC5        0.0000 
     46 CA        -26.9340   39.0420   -3.8400 C.3       9 GLL5        0.0000 
     47 CA        -24.6510   41.2410   -6.8990 C.3       6 GLP5        0.0000 
     48 CA        -26.9533   37.2565    0.6780 C.3       3 GLC5        0.0000 
     49 CA        -27.9600   36.8500   -0.9880 C.3       9 GLL5        0.0000 
     50 CA        -25.4360   37.5610    1.8930 C.3       6 GLP5        0.0000 
     51 CA        -28.8143   35.9115    1.9273 C.3       3 GLC5        0.0000 
     52 CA        -28.9810   37.0540   -0.0860 C.3       9 GLL5        0.0000 
     53 CA        -28.3950   35.3850    3.6960 C.3       6 GLP5        0.0000 
@<TRIPOS>BOND
@<TRIPOS>SUBSTRUCTURE
     1 ALC1       25 GROUP        1 X    ALC  0     ROOT ALC X 1
     2 SEC2        1 GROUP        1 X    SEC  0     **** SEC X 2
     3 GLC5        9 GROUP        1 X    GLC  0     **** GLC X 6
     4 ALP1       27 GROUP        1 Y    ALP  0     ROOT ALP Y 8
     5 SEP2        3 GROUP        1 Y    SEP  0     **** SEP Y 9
     6 GLP5       11 GROUP        1 Y    GLP  0     **** GLP Y 13
     7 ALL1       26 GROUP        1 Z    ALL  0     ROOT ALL Z 15
     8 SEL2        2 GROUP        1 Z    SEL  0     **** SEL Z 16
     9 GLL5       10 GROUP        1 Z    GLL  0     **** GLL Z 20
@<TRIPOS>SET

