#    Name: 2oz6_CMP_2_ligand
#    Modification time : Mon Mar 24 18:04:02 2014

@<TRIPOS>MOLECULE
2oz6_CMP_2_ligand
   33    36     1     0     0
SMALL
NO_CHARGES


@<TRIPOS>ATOM
      1 P         -26.9660   42.9150   -4.4830 P.3       1 CMP301      0.0000 
      2 O1P       -28.0270   43.4810   -3.5800 O.co2     1 CMP301      0.0000 
      3 O2P       -26.9360   43.7410   -5.7380 O.co2     1 CMP301      0.0000 
      4 O5'       -25.6410   42.9580   -3.7220 O.3       1 CMP301      0.0000 
      5 C5'       -25.4910   42.1820   -2.5020 C.3       1 CMP301      0.0000 
      6 C4'       -25.5390   40.7620   -3.0770 C.3       1 CMP301      0.0000 
      7 O4'       -25.4350   39.7130   -2.1000 O.3       1 CMP301      0.0000 
      8 C3'       -26.8930   40.5500   -3.7760 C.3       1 CMP301      0.0000 
      9 O3'       -27.0930   41.4410   -4.8680 O.3       1 CMP301      0.0000 
     10 C2'       -26.9340   39.0420   -3.8400 C.3       1 CMP301      0.0000 
     11 O2'       -26.1120   38.4750   -4.8090 O.3       1 CMP301      0.0000 
     12 C1'       -26.6090   38.9110   -2.2890 C.3       1 CMP301      0.0000 
     13 N9        -27.5780   38.1280   -1.3830 N.pl3     1 CMP301      0.0000 
     14 C8        -28.4390   38.9730   -0.6360 C.2       1 CMP301      0.0000 
     15 N7        -29.2920   38.3840    0.1410 N.2       1 CMP301      0.0000 
     16 C5        -28.9810   37.0540   -0.0860 C.ar      1 CMP301      0.0000 
     17 C6        -29.4860   35.8220    0.4030 C.ar      1 CMP301      0.0000 
     18 N6        -30.4720   35.7470    1.2870 N.pl3     1 CMP301      0.0000 
     19 N1        -28.8810   34.6750   -0.1010 N.ar      1 CMP301      0.0000 
     20 C2        -27.8670   34.6050   -1.0040 C.ar      1 CMP301      0.0000 
     21 N3        -27.3380   35.7500   -1.5090 N.ar      1 CMP301      0.0000 
     22 C4        -27.9600   36.8500   -0.9880 C.ar      1 CMP301      0.0000 
     23 H         -26.3095   42.3107   -1.8484 H         1 CMP301      0.0000 
     24 H         -24.5492   42.3330   -2.0506 H         1 CMP301      0.0000 
     25 H         -24.7805   40.6643   -3.8393 H         1 CMP301      0.0000 
     26 H         -27.6187   40.8133   -2.9149 H         1 CMP301      0.0000 
     27 H         -27.9983   38.8073   -3.8972 H         1 CMP301      0.0000 
     28 H         -25.8363   37.7631   -2.6094 H         1 CMP301      0.0000 
     29 H         -28.3440   39.9790   -0.7469 H         1 CMP301      0.0000 
     30 H         -30.8641   36.6177    1.5838 H         1 CMP301      0.0000 
     31 H         -30.7341   34.8265    1.5768 H         1 CMP301      0.0000 
     32 H         -27.5003   33.6840   -1.3049 H         1 CMP301      0.0000 
     33 H         -26.7066   38.3297   -5.5998 H         1 CMP301      0.0000 
@<TRIPOS>BOND
     1    2    1 ar   
     2    3    1 ar   
     3    4    1 1    
     4    9    1 1    
     5    5    4 1    
     6    6    5 1    
     7   23    5 1    
     8   24    5 1    
     9    7    6 1    
    10    8    6 1    
    11   25    6 1    
    12   12    7 1    
    13    9    8 1    
    14   10    8 1    
    15   26    8 1    
    16   11   10 1    
    17   12   10 1    
    18   27   10 1    
    19   33   11 1    
    20   13   12 1    
    21   28   12 1    
    22   14   13 1    
    23   22   13 1    
    24   15   14 2    
    25   29   14 1    
    26   16   15 1    
    27   17   16 ar   
    28   22   16 ar   
    29   18   17 1    
    30   19   17 ar   
    31   30   18 1    
    32   31   18 1    
    33   20   19 ar   
    34   21   20 ar   
    35   32   20 1    
    36   22   21 ar   
@<TRIPOS>SUBSTRUCTURE
     1 CMP301      1 GROUP   
@<TRIPOS>SET

