#    Name: 1c8v_HE1_1_INTS_M
#    Modification time : Mon Mar 24 20:26:40 2014

@<TRIPOS>MOLECULE
1c8v_HE1_1_INTS_M
   62     0     9     0     0
SMALL
NO_CHARGES


@<TRIPOS>ATOM
      1 N          49.2365   31.8455   10.4635 N.am      2 SEC2        0.0000 
      2 N          49.4360   30.5170   10.1960 N.am      8 SEL2        0.0000 
      3 N          49.0370   33.1740   10.7310 N.am      5 SEP2        0.0000 
      4 N          50.3405   31.3160    9.6820 N.am      2 SEC2        0.0000 
      5 N          51.2450   32.1150    9.1680 N.am      5 SEP2        0.0000 
      6 N          50.0355   28.8140    8.2280 N.am      2 SEC2        0.0000 
      7 N          48.6340   28.8270    8.7100 N.am      8 SEL2        0.0000 
      8 N          51.4370   28.8010    7.7460 N.am      5 SEP2        0.0000 
      9 N          47.6310   28.1975    7.8875 N.am      2 SEC2        0.0000 
     10 N          46.6280   27.5680    7.0650 N.am      5 SEP2        0.0000 
     11 N          46.7575   31.1385   11.0150 N.am      2 SEC2        0.0000 
     12 N          47.0730   30.1480    9.9630 N.am      8 SEL2        0.0000 
     13 N          46.4420   32.1290   12.0670 N.am      5 SEP2        0.0000 
     14 CA         50.3250   28.0210   11.0085 C.3       3 GLC5        0.0000 
     15 CA         48.4960   28.2380   11.3430 C.3       9 GLL5        0.0000 
     16 CA         52.1540   27.8040   10.6740 C.3       6 GLP5        0.0000 
     17 CA         48.4235   26.3560   11.1170 C.3       3 GLC5        0.0000 
     18 CA         48.3510   24.4740   10.8910 C.3       6 GLP5        0.0000 
     19 CA         50.3740   29.9290   12.9100 C.3       3 GLC5        0.0000 
     20 CA         48.5490   28.8450   12.7530 C.3       9 GLL5        0.0000 
     21 CA         52.1990   31.0130   13.0670 C.3       6 GLP5        0.0000 
     22 CA         48.0920   30.7855   12.7100 C.3       3 GLC5        0.0000 
     23 CA         47.6350   32.7260   12.6670 C.3       6 GLP5        0.0000 
     24 CA         47.4020   25.8865   14.1405 C.3       3 GLC5        0.0000 
     25 CA         48.6130   27.7460   13.8060 C.3       9 GLL5        0.0000 
     26 CA         46.1910   24.0270   14.4750 C.3       6 GLP5        0.0000 
     27 CA         48.9670   25.9130   12.8135 C.3       3 GLC5        0.0000 
     28 CA         49.3210   24.0800   11.8210 C.3       6 GLP5        0.0000 
     29 CA         47.6325   27.6210   17.7380 C.3       3 GLC5        0.0000 
     30 CA         49.0200   26.8740   16.3090 C.3       9 GLL5        0.0000 
     31 CA         46.2450   28.3680   19.1670 C.3       6 GLP5        0.0000 
     32 CA         50.3880   26.5980   17.6285 C.3       3 GLC5        0.0000 
     33 CA         51.7560   26.3220   18.9480 C.3       6 GLP5        0.0000 
     34 CA         47.4805   25.4700   16.0770 C.3       3 GLC5        0.0000 
     35 CA         45.9410   24.0660   15.8450 C.3       6 GLP5        0.0000 
     36 O          53.0555   27.6160   14.4960 O.2       1 ALC1        0.0000 
     37 O          52.0160   27.1870   15.3120 O.2       7 ALL1        0.0000 
     38 O          54.0950   28.0450   13.6800 O.2       4 ALP1        0.0000 
     39 CA         53.0390   22.8050   16.2895 C.3       3 GLC5        0.0000 
     40 CA         51.7880   23.5660   14.8230 C.3       9 GLL5        0.0000 
     41 CA         54.2900   22.0440   17.7560 C.3       6 GLP5        0.0000 
     42 CA         51.6160   26.1250   17.1255 C.3       3 GLC5        0.0000 
     43 CA         51.4760   25.9280   15.3030 C.3       9 GLL5        0.0000 
     44 CA         49.7955   21.4260   15.3045 C.3       3 GLC5        0.0000 
     45 CA         50.4780   23.2910   15.2380 C.3       9 GLL5        0.0000 
     46 CA         49.1130   19.5610   15.3710 C.3       6 GLP5        0.0000 
     47 CA         50.2830   27.5562   12.5437 C.3       3 GLC5        0.0000 
     48 CA         51.9850   26.8170   11.8080 C.3       6 GLP5        0.0000 
     49 CA         49.1043   29.1447   16.7553 C.3       3 GLC5        0.0000 
     50 CA         48.9750   28.2830   15.1840 C.3       9 GLL5        0.0000 
     51 CA         49.2110   30.7110   17.7640 C.3       6 GLP5        0.0000 
     52 CA         53.8457   23.4813   14.2695 C.3       3 GLC5        0.0000 
     53 CA         52.2830   24.8810   14.8590 C.3       9 GLL5        0.0000 
     54 CA         55.6560   22.7390   13.6980 C.3       6 GLP5        0.0000 
     55 CA         52.0102   25.5202   13.3245 C.3       3 GLC5        0.0000 
     56 CA         51.3975   26.3008   13.6605 C.3       3 GLC5        0.0000 
     57 CA         49.1968   23.1815   17.0330 C.3       3 GLC5        0.0000 
     58 CA         49.6550   24.3290   15.6860 C.3       9 GLL5        0.0000 
     59 CA         48.3270   22.5530   18.6040 C.3       6 GLP5        0.0000 
     60 CA         50.9416   24.6266   17.1715 C.3       3 GLC5        0.0000 
     61 CA         50.1440   25.6410   15.7230 C.3       9 GLL5        0.0000 
     62 CA         51.3050   24.8820   18.9710 C.3       6 GLP5        0.0000 
@<TRIPOS>BOND
@<TRIPOS>SUBSTRUCTURE
     1 ALC1       36 GROUP        1 X    ALC  0     ROOT ALC X 1
     2 SEC2        1 GROUP        1 X    SEC  0     **** SEC X 2
     3 GLC5       14 GROUP        1 X    GLC  0     **** GLC X 6
     4 ALP1       38 GROUP        1 Y    ALP  0     ROOT ALP Y 8
     5 SEP2        3 GROUP        1 Y    SEP  0     **** SEP Y 9
     6 GLP5       16 GROUP        1 Y    GLP  0     **** GLP Y 13
     7 ALL1       37 GROUP        1 Z    ALL  0     ROOT ALL Z 15
     8 SEL2        2 GROUP        1 Z    SEL  0     **** SEL Z 16
     9 GLL5       15 GROUP        1 Z    GLL  0     **** GLL Z 20
@<TRIPOS>SET

