#    Name: 1c8v_HE1_1_ligand
#    Modification time : Mon Mar 24 20:26:40 2014

@<TRIPOS>MOLECULE
1c8v_HE1_1_ligand
   27    27     1     0     0
SMALL
NO_CHARGES


@<TRIPOS>ATOM
      1 P1         48.4100   29.4010   10.0770 P.3       1 HE1270      0.0000 
      2 O1         49.4360   30.5170   10.1960 O.co2     1 HE1270      0.0000 
      3 O2         48.6340   28.8270    8.7100 O.co2     1 HE1270      0.0000 
      4 O3         47.0730   30.1480    9.9630 O.co2     1 HE1270      0.0000 
      5 C1         48.4960   28.2380   11.3430 C.2       1 HE1270      0.0000 
      6 C2         48.5490   28.8450   12.7530 C.2       1 HE1270      0.0000 
      7 C3         48.9750   28.2830   15.1840 C.3       1 HE1270      0.0000 
      8 C4         48.6130   27.7460   13.8060 C.3       1 HE1270      0.0000 
      9 S1         49.0200   26.8740   16.3090 S.3       1 HE1270      0.0000 
     10 OH         52.0160   27.1870   15.3120 O.3       1 HE1270      0.0000 
     11 C5         51.7880   23.5660   14.8230 C.ar      1 HE1270      0.0000 
     12 C6         52.2830   24.8810   14.8590 C.ar      1 HE1270      0.0000 
     13 C7         51.4760   25.9280   15.3030 C.ar      1 HE1270      0.0000 
     14 C8         50.1440   25.6410   15.7230 C.ar      1 HE1270      0.0000 
     15 C9         49.6550   24.3290   15.6860 C.ar      1 HE1270      0.0000 
     16 C10        50.4780   23.2910   15.2380 C.ar      1 HE1270      0.0000 
     17 H          48.5045   27.3637   11.1068 H         1 HE1270      0.0000 
     18 H          48.5427   29.7388   12.9282 H         1 HE1270      0.0000 
     19 H          48.2340   28.8943   15.6098 H         1 HE1270      0.0000 
     20 H          49.9532   28.6611   15.2491 H         1 HE1270      0.0000 
     21 H          49.3586   27.0012   13.5029 H         1 HE1270      0.0000 
     22 H          47.6399   27.2433   13.8601 H         1 HE1270      0.0000 
     23 H          52.3906   22.8044   14.4907 H         1 HE1270      0.0000 
     24 H          53.2475   25.0673   14.5548 H         1 HE1270      0.0000 
     25 H          48.6959   24.1312   15.9869 H         1 HE1270      0.0000 
     26 H          50.1246   22.3293   15.2127 H         1 HE1270      0.0000 
     27 H          52.7176   27.1726   14.5996 H         1 HE1270      0.0000 
@<TRIPOS>BOND
     1    2    1 ar   
     2    3    1 ar   
     3    4    1 ar   
     4    5    1 1    
     5    6    5 2    
     6   17    5 1    
     7    8    6 1    
     8   18    6 1    
     9    8    7 1    
    10    9    7 1    
    11   19    7 1    
    12   20    7 1    
    13   21    8 1    
    14   22    8 1    
    15   14    9 1    
    16   13   10 1    
    17   27   10 1    
    18   12   11 ar   
    19   16   11 ar   
    20   23   11 1    
    21   13   12 ar   
    22   24   12 1    
    23   14   13 ar   
    24   15   14 ar   
    25   16   15 ar   
    26   25   15 1    
    27   26   16 1    
@<TRIPOS>SUBSTRUCTURE
     1 HE1270      1 GROUP   
@<TRIPOS>SET

