#    Name: 2r8o_T5X_2_INTS_M
#    Modification time : Mon Mar 24 23:24:22 2014

@<TRIPOS>MOLECULE
2r8o_T5X_2_INTS_M
  117     0    12     0     0
SMALL
NO_CHARGES


@<TRIPOS>ATOM
      1 N          26.3680    9.4880   -3.1685 N.am      2 SEC2        0.0000 
      2 N          26.1650   10.9200   -3.2450 N.am     10 SEL2        0.0000 
      3 N          26.5710    8.0560   -3.0920 N.am      6 SEP2        0.0000 
      4 N          27.7145    9.6500   -5.0505 N.am      2 SEC2        0.0000 
      5 N          28.5300   10.8520   -4.2440 N.am     10 SEL2        0.0000 
      6 N          26.8990    8.4480   -5.8570 N.am      6 SEP2        0.0000 
      7 N          26.1250   15.1950   -4.3110 N.am      2 SEC2        0.0000 
      8 N          27.1550   15.0560   -5.2450 N.am     10 SEL2        0.0000 
      9 N          25.0950   15.3340   -3.3770 N.am      6 SEP2        0.0000 
     10 N          29.3900   13.5950   -7.1215 N.am      2 SEC2        0.0000 
     11 N          29.0210   13.4460   -5.7350 N.am     10 SEL2        0.0000 
     12 N          29.7590   13.7440   -8.5080 N.am      6 SEP2        0.0000 
     13 N          28.4340   12.2295   -6.5015 N.am      2 SEC2        0.0000 
     14 N          27.8470   11.0130   -7.2680 N.am      6 SEP2        0.0000 
     15 N          28.9000   15.5895   -2.7400 N.am      2 SEC2        0.0000 
     16 N          29.0550   14.7050   -3.5840 N.am     10 SEL2        0.0000 
     17 N          28.7450   16.4740   -1.8960 N.am      6 SEP2        0.0000 
     18 CA         29.2525   13.4875    1.0830 C.3       4 GLC5        0.0000 
     19 CA         27.9660   12.3910    0.3210 C.3      12 GLL5        0.0000 
     20 CA         30.5390   14.5840    1.8450 C.3       8 GLP5        0.0000 
     21 CA         24.8830   15.3090   -0.4045 C.3       4 GLC5        0.0000 
     22 CA         25.9490   14.3140    1.0710 C.3      12 GLL5        0.0000 
     23 CA         23.8170   16.3040   -1.8800 C.3       8 GLP5        0.0000 
     24 CA         27.4110   14.5530    2.8220 C.3       4 GLC5        0.0000 
     25 CA         25.4090   14.3460    2.7920 C.3      12 GLL5        0.0000 
     26 CA         29.4130   14.7600    2.8520 C.3       8 GLP5        0.0000 
     27 CA         27.8110   15.6335    3.3045 C.3       4 GLC5        0.0000 
     28 CA         26.2090   16.5070    3.7570 C.3      12 GLL5        0.0000 
     29 CA         27.0250   16.9805    6.7865 C.3       4 GLC5        0.0000 
     30 CA         27.2790   18.1160    5.3700 C.3      12 GLL5        0.0000 
     31 CA         26.7710   15.8450    8.2030 C.3       8 GLP5        0.0000 
     32 N          29.6500   18.1610    8.0480 N.am      2 SEC2        0.0000 
     33 N          29.4160   19.1280    7.1560 N.am     10 SEL2        0.0000 
     34 N          29.8840   17.1940    8.9400 N.am      6 SEP2        0.0000 
     35 NZ         27.4900   22.1110    8.2770 N.4       3 LYC4        0.0000 
     36 NZ         27.6050   20.4100    8.3940 N.4      11 LYL4        0.0000 
     37 NZ         26.7450   23.6550    9.3210 N.4       7 LYP4        0.0000 
     38 N          27.5040   19.5665    9.5045 N.am      2 SEC2        0.0000 
     39 N          27.6050   20.4100    8.3940 N.am     10 SEL2        0.0000 
     40 N          27.4030   18.7230   10.6150 N.am      6 SEP2        0.0000 
     41 N          27.2920   21.4860    9.2190 N.am      2 SEC2        0.0000 
     42 N          26.9790   22.5620   10.0440 N.am      6 SEP2        0.0000 
     43 N          27.4900   22.1110    8.2770 N.am      2 SEC2        0.0000 
     44 N          27.3750   23.8120    8.1600 N.am      6 SEP2        0.0000 
     45 N          25.3765   19.0855    2.7460 N.am      2 SEC2        0.0000 
     46 N          25.2680   18.7270    4.1890 N.am     10 SEL2        0.0000 
     47 N          25.4850   19.4440    1.3030 N.am      6 SEP2        0.0000 
     48 O          23.9285   19.8165    4.3280 O.2       1 ALC1        0.0000 
     49 O          25.2680   18.7270    4.1890 O.2       9 ALL1        0.0000 
     50 O          22.5890   20.9060    4.4670 O.2       5 ALP1        0.0000 
     51 O          24.3480   19.1130    5.0660 O.2       1 ALC1        0.0000 
     52 O          23.4280   19.4990    5.9430 O.2       5 ALP1        0.0000 
     53 N          26.1625   18.2680    1.9520 N.am      2 SEC2        0.0000 
     54 N          26.8400   17.0920    2.6010 N.am     10 SEL2        0.0000 
     55 N          27.5735   16.8660    1.3975 N.am      2 SEC2        0.0000 
     56 N          28.3070   16.6400    0.1940 N.am      6 SEP2        0.0000 
     57 CA         24.9945   17.9170    1.2080 C.3       4 GLC5        0.0000 
     58 CA         24.0350   16.4140    2.4040 C.3      12 GLL5        0.0000 
     59 CA         25.9540   19.4200    0.0120 C.3       8 GLP5        0.0000 
     60 CA         23.5610   16.8220    0.7220 C.3       4 GLC5        0.0000 
     61 CA         23.0870   17.2300   -0.9600 C.3       8 GLP5        0.0000 
     62 N          22.2205   15.7560    3.7150 N.am      2 SEC2        0.0000 
     63 N          22.8040   15.7050    2.1980 N.am     10 SEL2        0.0000 
     64 N          21.6370   15.8070    5.2320 N.am      6 SEP2        0.0000 
     65 O          21.7635   16.6900    2.0675 O.2       1 ALC1        0.0000 
     66 O          22.8040   15.7050    2.1980 O.2       9 ALL1        0.0000 
     67 O          20.7230   17.6750    1.9370 O.2       5 ALP1        0.0000 
     68 N          22.9305   15.6120    4.8955 N.am      2 SEC2        0.0000 
     69 N          24.2240   15.4170    4.5590 N.am     10 SEL2        0.0000 
     70 CA         29.2570   10.1105    3.2470 C.3       4 GLC5        0.0000 
     71 CA         27.6000   11.2690    3.1860 C.3      12 GLL5        0.0000 
     72 CA         30.9140    8.9520    3.3080 C.3       8 GLP5        0.0000 
     73 CA         27.8570    9.5120    2.2960 C.3       4 GLC5        0.0000 
     74 CA         28.1140    7.7550    1.4060 C.3       8 GLP5        0.0000 
     75 CA         27.2045   13.1465    5.4415 C.3       4 GLC5        0.0000 
     76 CA         25.4070   12.7300    4.6150 C.3      12 GLL5        0.0000 
     77 CA         29.0020   13.5630    6.2680 C.3       8 GLP5        0.0000 
     78 CA         25.4875   14.0410    6.1735 C.3       4 GLC5        0.0000 
     79 CA         25.5680   15.3520    7.7320 C.3       8 GLP5        0.0000 
     80 CA         23.7510   12.4010    5.8950 C.3       4 GLC5        0.0000 
     81 CA         22.0950   12.0720    7.1750 C.3       8 GLP5        0.0000 
     82 O          21.3430   12.9665    2.9885 O.2       1 ALC1        0.0000 
     83 O          22.6600   12.8830    3.4780 O.2       9 ALL1        0.0000 
     84 O          20.0260   13.0500    2.4990 O.2       5 ALP1        0.0000 
     85 N          21.1730   10.2460    2.9785 N.am      2 SEC2        0.0000 
     86 N          22.2470   10.6720    4.0400 N.am     10 SEL2        0.0000 
     87 N          20.0990    9.8200    1.9170 N.am      6 SEP2        0.0000 
     88 CA         24.2750    8.4035    3.5335 C.3       4 GLC5        0.0000 
     89 CA         22.6470    9.5070    4.5920 C.3      12 GLL5        0.0000 
     90 CA         25.9030    7.3000    2.4750 C.3       8 GLP5        0.0000 
     91 CA         21.0540    9.1595    6.2280 C.3       4 GLC5        0.0000 
     92 CA         21.6980    8.3460    4.6200 C.3      12 GLL5        0.0000 
     93 CA         20.4100    9.9730    7.8360 C.3       8 GLP5        0.0000 
     94 CA         20.2855    7.4790    4.7650 C.3       4 GLC5        0.0000 
     95 CA         18.8730    6.6120    4.9100 C.3       8 GLP5        0.0000 
     96 CA         20.0760    9.6455    3.9650 C.3       4 GLC5        0.0000 
     97 CA         18.4540   10.9450    3.3100 C.3       8 GLP5        0.0000 
     98 CA         25.3295    8.8435    3.7955 C.3       4 GLC5        0.0000 
     99 CA         24.7560   10.3870    5.1160 C.3      12 GLL5        0.0000 
    100 CA         25.9275   11.2538    0.3573 C.3       4 GLC5        0.0000 
    101 CA         24.2580   10.2620    1.0320 C.3       8 GLP5        0.0000 
    102 CA         27.7330   14.2043   -0.6372 C.3       4 GLC5        0.0000 
    103 CA         27.2280   12.1000   -0.9560 C.3      12 GLL5        0.0000 
    104 CA         27.8690   16.1630   -0.9570 C.3       8 GLP5        0.0000 
    105 CA         25.3525   11.9140    1.1187 C.3       4 GLC5        0.0000 
    106 CA         27.9300   14.1630    2.0288 C.3       4 GLC5        0.0000 
    107 CA         26.9450   12.8180    1.3400 C.3      12 GLL5        0.0000 
    108 CA         25.6710   16.1031    5.9533 C.3       4 GLC5        0.0000 
    109 CA         25.9590   17.6170    4.7860 C.3      12 GLL5        0.0000 
    110 CA         28.0903   12.6990    4.5913 C.3       4 GLC5        0.0000 
    111 CA         26.7570   12.4010    2.6430 C.3      12 GLL5        0.0000 
    112 CA         25.7183   11.0485    1.9732 C.3       4 GLC5        0.0000 
    113 CA         28.2958   13.2975    2.8832 C.3       4 GLC5        0.0000 
    114 CA         22.1352    8.9793    2.6595 C.3       4 GLC5        0.0000 
    115 CA         22.0980    9.0320    0.7130 C.3       8 GLP5        0.0000 
    116 CA         24.3176   10.7150    2.8725 C.3       4 GLC5        0.0000 
    117 CA         23.0980   11.7310    4.0320 C.3      12 GLL5        0.0000 
@<TRIPOS>BOND
@<TRIPOS>SUBSTRUCTURE
     1 ALC1       48 GROUP        1 X    ALC  0     ROOT ALC X 1
     2 SEC2        1 GROUP        1 X    SEC  0     **** SEC X 2
     3 LYC4       35 GROUP        1 X    LYC  0     **** LYC X 4
     4 GLC5       18 GROUP        1 X    GLC  0     **** GLC X 6
     5 ALP1       50 GROUP        1 Y    ALP  0     ROOT ALP Y 8
     6 SEP2        3 GROUP        1 Y    SEP  0     **** SEP Y 9
     7 LYP4       37 GROUP        1 Y    LYP  0     **** LYP Y 11
     8 GLP5       20 GROUP        1 Y    GLP  0     **** GLP Y 13
     9 ALL1       49 GROUP        1 Z    ALL  0     ROOT ALL Z 15
    10 SEL2        2 GROUP        1 Z    SEL  0     **** SEL Z 16
    11 LYL4       36 GROUP        1 Z    LYL  0     **** LYL Z 18
    12 GLL5       19 GROUP        1 Z    GLL  0     **** GLL Z 20
@<TRIPOS>SET

