#    Name: 2r8o_T5X_2_ligand
#    Modification time : Mon Mar 24 23:24:22 2014

@<TRIPOS>MOLECULE
2r8o_T5X_2_ligand
   65    66     1     0     0
SMALL
NO_CHARGES


@<TRIPOS>ATOM
      1 O2A        26.1650   10.9200   -3.2450 O.co2     1 T5X671      0.0000 
      2 PA         27.5190   11.5680   -3.3960 P.3       1 T5X671      0.0000 
      3 O1A        28.5300   10.8520   -4.2440 O.co2     1 T5X671      0.0000 
      4 O3A        27.2660   13.0730   -3.8860 O.3       1 T5X671      0.0000 
      5 PB         28.1940   14.1310   -4.6840 P.3       1 T5X671      0.0000 
      6 O3B        27.1550   15.0560   -5.2450 O.co2     1 T5X671      0.0000 
      7 O2B        29.0210   13.4460   -5.7350 O.co2     1 T5X671      0.0000 
      8 O1B        29.0550   14.7050   -3.5840 O.co2     1 T5X671      0.0000 
      9 O7         28.1620   11.7350   -1.9560 O.3       1 T5X671      0.0000 
     10 C7         27.2280   12.1000   -0.9560 C.3       1 T5X671      0.0000 
     11 C6         27.9660   12.3910    0.3210 C.3       1 T5X671      0.0000 
     12 C5         26.9450   12.8180    1.3400 C.2       1 T5X671      0.0000 
     13 S1         25.9490   14.3140    1.0710 S.3       1 T5X671      0.0000 
     14 C2         25.4090   14.3460    2.7920 C.2       1 T5X671      0.0000 
     15 CX2        24.9690   15.6760    3.3690 C.3       1 T5X671      0.0000 
     16 CX3        26.2090   16.5070    3.7570 C.3       1 T5X671      0.0000 
     17 CX4        25.9590   17.6170    4.7860 C.3       1 T5X671      0.0000 
     18 CX5        27.2790   18.1160    5.3700 C.3       1 T5X671      0.0000 
     19 OX5        27.0220   18.9590    6.4940 O.3       1 T5X671      0.0000 
     20 PX         28.1550   19.9510    7.0600 P.3       1 T5X671      0.0000 
     21 OX7        29.4160   19.1280    7.1560 O.co2     1 T5X671      0.0000 
     22 OX6        27.6050   20.4100    8.3940 O.co2     1 T5X671      0.0000 
     23 OX8        28.2200   21.0730    6.0410 O.co2     1 T5X671      0.0000 
     24 OX4        25.2680   18.7270    4.1890 O.3       1 T5X671      0.0000 
     25 OX3        26.8400   17.0920    2.6010 O.3       1 T5X671      0.0000 
     26 CX1        24.0350   16.4140    2.4040 C.3       1 T5X671      0.0000 
     27 OX1        22.8040   15.7050    2.1980 O.3       1 T5X671      0.0000 
     28 OX2        24.2240   15.4170    4.5590 O.3       1 T5X671      0.0000 
     29 N3         25.9060   13.1970    3.3170 N.pl3     1 T5X671      0.0000 
     30 C4         26.7570   12.4010    2.6430 C.2       1 T5X671      0.0000 
     31 CM4        27.6000   11.2690    3.1860 C.3       1 T5X671      0.0000 
     32 C7         25.4070   12.7300    4.6150 C.3       1 T5X671      0.0000 
     33 C5         24.3900   11.6040    4.5610 C.ar      1 T5X671      0.0000 
     34 C4         23.0980   11.7310    4.0320 C.ar      1 T5X671      0.0000 
     35 N4         22.6600   12.8830    3.4780 N.pl3     1 T5X671      0.0000 
     36 N3         22.2470   10.6720    4.0400 N.ar      1 T5X671      0.0000 
     37 C2         22.6470    9.5070    4.5920 C.ar      1 T5X671      0.0000 
     38 CM2        21.6980    8.3460    4.6200 C.3       1 T5X671      0.0000 
     39 N1         23.8880    9.3640    5.1110 N.ar      1 T5X671      0.0000 
     40 C6         24.7560   10.3870    5.1160 C.ar      1 T5X671      0.0000 
     41 H          26.5070   11.2966   -0.7602 H         1 T5X671      0.0000 
     42 H          26.6611   12.9964   -1.2366 H         1 T5X671      0.0000 
     43 H          28.6762   13.1877    0.1597 H         1 T5X671      0.0000 
     44 H          28.4721   11.5007    0.6621 H         1 T5X671      0.0000 
     45 H          26.9361   15.8030    4.2271 H         1 T5X671      0.0000 
     46 H          25.3768   17.1969    5.5989 H         1 T5X671      0.0000 
     47 H          27.8157   18.6490    4.5765 H         1 T5X671      0.0000 
     48 H          27.8749   17.2388    5.6478 H         1 T5X671      0.0000 
     49 H          24.5818   16.5558    1.4551 H         1 T5X671      0.0000 
     50 H          23.8551   17.4210    2.8201 H         1 T5X671      0.0000 
     51 H          24.9486   13.5811    5.1759 H         1 T5X671      0.0000 
     52 H          26.2606   12.3924    5.2526 H         1 T5X671      0.0000 
     53 H          21.9532   12.7930    2.7764 H         1 T5X671      0.0000 
     54 H          23.0816   13.7233    3.8188 H         1 T5X671      0.0000 
     55 H          25.7013   10.2886    5.5281 H         1 T5X671      0.0000 
     56 H          28.5754   11.4880    3.1624 H         1 T5X671      0.0000 
     57 H          27.3700   11.0572    4.1359 H         1 T5X671      0.0000 
     58 H          27.4756   10.4278    2.6598 H         1 T5X671      0.0000 
     59 H          22.1075    7.5419    5.0510 H         1 T5X671      0.0000 
     60 H          20.8648    8.5596    5.1300 H         1 T5X671      0.0000 
     61 H          21.4167    8.0740    3.6997 H         1 T5X671      0.0000 
     62 H          24.3521   18.7075    4.5900 H         1 T5X671      0.0000 
     63 H          27.7627   17.3313    2.9033 H         1 T5X671      0.0000 
     64 H          22.2021   16.3593    1.7401 H         1 T5X671      0.0000 
     65 H          24.8868   15.5024    5.3029 H         1 T5X671      0.0000 
@<TRIPOS>BOND
     1    2    1 ar   
     2    3    2 ar   
     3    4    2 1    
     4    9    2 1    
     5    5    4 1    
     6    6    5 ar   
     7    7    5 ar   
     8    8    5 ar   
     9   10    9 1    
    10   11   10 1    
    11   41   10 1    
    12   42   10 1    
    13   12   11 1    
    14   43   11 1    
    15   44   11 1    
    16   13   12 1    
    17   30   12 2    
    18   14   13 1    
    19   15   14 1    
    20   29   14 2    
    21   16   15 1    
    22   26   15 1    
    23   28   15 1    
    24   17   16 1    
    25   25   16 1    
    26   45   16 1    
    27   18   17 1    
    28   24   17 1    
    29   46   17 1    
    30   19   18 1    
    31   47   18 1    
    32   48   18 1    
    33   20   19 1    
    34   21   20 ar   
    35   22   20 ar   
    36   23   20 ar   
    37   62   24 1    
    38   63   25 1    
    39   27   26 1    
    40   49   26 1    
    41   50   26 1    
    42   64   27 1    
    43   65   28 1    
    44   30   29 1    
    45   32   29 1    
    46   31   30 1    
    47   56   31 1    
    48   57   31 1    
    49   58   31 1    
    50   33   32 1    
    51   51   32 1    
    52   52   32 1    
    53   34   33 ar   
    54   40   33 ar   
    55   35   34 1    
    56   36   34 ar   
    57   53   35 1    
    58   54   35 1    
    59   37   36 ar   
    60   38   37 1    
    61   39   37 ar   
    62   59   38 1    
    63   60   38 1    
    64   61   38 1    
    65   40   39 ar   
    66   55   40 1    
@<TRIPOS>SUBSTRUCTURE
     1 T5X671      1 GROUP   
@<TRIPOS>SET

