#    Name: 3FVO_2_CAVITY_N1_ALL.mol2
#    Modification time : Mon Mar 10 17:26:49 2014

@<TRIPOS>MOLECULE
3FVO_2_CAVITY_N1_ALL.mol2
   42     0     6     0     0
SMALL
NO_CHARGES


@<TRIPOS>ATOM
      1 CA         11.0612   -2.3445  -12.5348 C.3       5 GLY6        0.0000 
      2 CA         11.0405   -2.7550  -14.6159 C.3       5 GLY6        0.0000 
      3 CA         10.0901   -2.1070  -13.6531 C.3       5 GLY6        0.0000 
      4 OG          9.1398   -1.4591  -12.6902 O.2       1 SER1        0.0000 
      5 CA          8.1687   -1.2216  -13.8085 C.3       5 GLY6        0.0000 
      6 CA          7.2184   -0.5736  -12.8457 C.3       5 GLY6        0.0000 
      7 O          12.3471   -4.5618  -12.1103 O.2       2 ALA2        0.0000 
      8 CA         12.3263   -4.9723  -14.1914 C.3       5 GLY6        0.0000 
      9 CA         11.3760   -4.3243  -13.2286 C.3       5 GLY6        0.0000 
     10 O          10.4257   -3.6763  -12.2657 O.2       2 ALA2        0.0000 
     11 OG          9.4754   -3.0284  -11.3029 O.2       1 SER1        0.0000 
     12 CA         11.3552   -4.7348  -15.3097 C.3       5 GLY6        0.0000 
     13 CA         10.4049   -4.0868  -14.3469 C.3       5 GLY6        0.0000 
     14 CA          9.4546   -3.4389  -13.3840 C.3       5 GLY6        0.0000 
     15 OG          8.5043   -2.7909  -12.4212 O.2       1 SER1        0.0000 
     16 OG          7.5540   -2.1429  -11.4584 O.2       1 SER1        0.0000 
     17 CA          9.4338   -3.8493  -15.4651 C.3       5 GLY6        0.0000 
     18 CA          8.4835   -3.2014  -14.5023 C.3       5 GLY6        0.0000 
     19 CA          7.5332   -2.5534  -13.5395 C.3       5 GLY6        0.0000 
     20 CA          6.5829   -1.9054  -12.5766 C.3       5 GLY6        0.0000 
     21 CA          6.5621   -2.3159  -14.6578 C.3       5 GLY6        0.0000 
     22 CA          5.6118   -1.6679  -13.6949 C.3       5 GLY6        0.0000 
     23 CA         11.7116   -5.8936  -11.8412 C.3       5 GLY6        0.0000 
     24 CA         10.7613   -5.2456  -10.8784 C.3       5 GLY6        0.0000 
     25 OG         11.6908   -6.3041  -13.9224 O.2       1 SER1        0.0000 
     26 OG         10.7405   -5.6561  -12.9595 O.2       1 SER1        0.0000 
     27 NZ          9.7902   -5.0082  -11.9967 N.2       3 LYS4        0.0000 
     28 CA         10.7197   -6.0666  -15.0406 C.3       5 GLY6        0.0000 
     29 NZ          9.7694   -5.4186  -14.0778 N.2       3 LYS4        0.0000 
     30 DU          8.8191   -4.7707  -13.1150 H         6 CUB7        0.0000 
     31 NZ          7.8688   -4.1227  -12.1522 N.2       3 LYS4        0.0000 
     32 NZ          6.9185   -3.4747  -11.1893 N.2       3 LYS4        0.0000 
     33 NZ          8.7983   -5.1812  -15.1961 N.2       3 LYS4        0.0000 
     34 CZ          7.8480   -4.5332  -14.2333 C.ar      4 PHE5        0.0000 
     35 CZ          6.8977   -3.8852  -13.2704 C.ar      4 PHE5        0.0000 
     36 CZ          5.9474   -3.2372  -12.3076 C.ar      4 PHE5        0.0000 
     37 OG         10.1050   -6.9879  -12.6905 O.2       1 SER1        0.0000 
     38 NZ          9.1547   -6.3400  -11.7277 N.2       3 LYS4        0.0000 
     39 NZ          9.1339   -6.7505  -13.8088 N.2       3 LYS4        0.0000 
     40 OG          8.1836   -6.1025  -12.8459 O.2       1 SER1        0.0000 
     41 NZ          7.2333   -5.4545  -11.8831 N.2       3 LYS4        0.0000 
     42 NZ          6.2830   -4.8065  -10.9203 N.2       3 LYS4        0.0000 
@<TRIPOS>BOND
@<TRIPOS>SUBSTRUCTURE
     1 SER1        4 GROUP   
     2 ALA2        7 GROUP   
     3 LYS4       27 GROUP   
     4 PHE5       34 GROUP   
     5 GLY6        1 GROUP   
     6 CUB7       30 GROUP   
@<TRIPOS>SET

