#    Name: 3fvo_8EP_2_INTS_M
#    Modification time : Tue Mar 25 06:37:51 2014

@<TRIPOS>MOLECULE
3fvo_8EP_2_INTS_M
   77     0    15     0     0
SMALL
NO_CHARGES


@<TRIPOS>ATOM
      1 N           9.4350   -1.2520  -10.6315 N.am      2 SEC2        0.0000 
      2 N           9.1940   -2.2170  -11.5040 N.am     12 SEL2        0.0000 
      3 N           9.6760   -0.2870   -9.7590 N.am      7 SEP2        0.0000 
      4 N           7.1580   -0.1395  -10.7115 N.am      2 SEC2        0.0000 
      5 N           7.2250   -1.2620  -11.7460 N.am     12 SEL2        0.0000 
      6 N           7.0910    0.9830   -9.6770 N.am      7 SEP2        0.0000 
      7 N           8.4505   -0.7745  -10.7525 N.am      2 SEC2        0.0000 
      8 CA          4.5015   -4.2035  -12.8980 C.3       5 GLC5        0.0000 
      9 CA          5.9680   -3.7560  -12.0610 C.3      15 GLL5        0.0000 
     10 CA          3.0350   -4.6510  -13.7350 C.3      10 GLP5        0.0000 
     11 CA          4.9945   -1.8160  -12.3775 C.3       5 GLC5        0.0000 
     12 CA          4.0210    0.1240  -12.6940 C.3      10 GLP5        0.0000 
     13 CA          4.3980   -4.8125  -11.7445 C.3       5 GLC5        0.0000 
     14 CA          5.6850   -3.8440  -10.5630 C.3      15 GLL5        0.0000 
     15 CA          3.1110   -5.7810  -12.9260 C.3      10 GLP5        0.0000 
     16 CA          5.1760   -3.9600   -8.4595 C.3       5 GLC5        0.0000 
     17 CA          4.6670   -4.0760   -6.3560 C.3      10 GLP5        0.0000 
     18 CA          5.1870   -2.2365   -9.2745 C.3       5 GLC5        0.0000 
     19 CA          4.6890   -0.6290   -7.9860 C.3      10 GLP5        0.0000 
     20 OD1         7.4245   -5.2750   -9.4965 O.co2     3 ASC3        0.0000 
     21 OD1         6.1130   -5.1370  -10.0130 O.co2    13 ASL3        0.0000 
     22 OD1         8.7360   -5.4130   -8.9800 O.co2     8 ASP3        0.0000 
     23 OD1         7.1550   -4.4050   -8.8755 O.co2     3 ASC3        0.0000 
     24 OD1         8.1970   -3.6730   -7.7380 O.co2     8 ASP3        0.0000 
     25 O           5.5010   -6.4165  -10.0535 O.2       1 ALC1        0.0000 
     26 O           6.1130   -5.1370  -10.0130 O.2      11 ALL1        0.0000 
     27 O           4.8890   -7.6960  -10.0940 O.2       6 ALP1        0.0000 
     28 O           5.9110   -4.8905   -8.5915 O.2       1 ALC1        0.0000 
     29 O           5.7090   -4.6440   -7.1700 O.2       6 ALP1        0.0000 
     30 O           7.4245   -5.2750   -9.4965 O.2       1 ALC1        0.0000 
     31 O           8.7360   -5.4130   -8.9800 O.2       6 ALP1        0.0000 
     32 NZ          2.4370   -2.1425  -10.5745 N.4       4 LYC4        0.0000 
     33 NZ          3.7060   -2.5960  -10.8570 N.4      14 LYL4        0.0000 
     34 NZ          0.8030   -2.0470   -9.0700 N.4       9 LYP4        0.0000 
     35 N           2.5795   -2.8110   -9.6510 N.am      2 SEC2        0.0000 
     36 N           3.7060   -2.5960  -10.8570 N.am     12 SEL2        0.0000 
     37 N           1.4530   -3.0260   -8.4450 N.am      7 SEP2        0.0000 
     38 N           2.4370   -2.1425  -10.5745 N.am      2 SEC2        0.0000 
     39 N           1.1680   -1.6890  -10.2920 N.am      7 SEP2        0.0000 
     40 N           4.1370   -1.2895  -10.6095 N.am      2 SEC2        0.0000 
     41 N           4.5680    0.0170  -10.3620 N.am      7 SEP2        0.0000 
     42 NZ          2.5795   -2.8110   -9.6510 N.4       4 LYC4        0.0000 
     43 NZ          3.5520   -4.4480   -9.7020 N.4      14 LYL4        0.0000 
     44 N           3.3920   -5.1335   -8.4680 N.am      2 SEC2        0.0000 
     45 N           3.5520   -4.4480   -9.7020 N.am     12 SEL2        0.0000 
     46 N           3.2320   -5.8190   -7.2340 N.am      7 SEP2        0.0000 
     47 N           2.5025   -3.7370   -9.0735 N.am      2 SEC2        0.0000 
     48 CA          6.7430   -6.0710  -13.6385 C.3       5 GLC5        0.0000 
     49 CA          8.6000   -5.4730  -13.0230 C.3      15 GLL5        0.0000 
     50 CA          4.8860   -6.6690  -14.2540 C.3      10 GLP5        0.0000 
     51 O          11.1285   -8.0280  -12.6810 O.2       1 ALC1        0.0000 
     52 O          10.0390   -7.3830  -13.3180 O.2      11 ALL1        0.0000 
     53 O          12.2180   -8.6730  -12.0440 O.2       6 ALP1        0.0000 
     54 CA         11.3170   -5.1695  -10.6120 C.3       5 GLC5        0.0000 
     55 CA         11.1040   -5.2970  -12.7560 C.3      15 GLL5        0.0000 
     56 CA         11.5300   -5.0420   -8.4680 C.3      10 GLP5        0.0000 
     57 N          12.0065   -3.9480  -10.7965 N.am      2 SEC2        0.0000 
     58 N          11.0640   -4.2640  -11.7630 N.am     12 SEL2        0.0000 
     59 N          12.9490   -3.6320   -9.8300 N.am      7 SEP2        0.0000 
     60 CA         10.2780   -3.0460  -15.4525 C.3       5 GLC5        0.0000 
     61 CA         11.1220   -4.6420  -14.1270 C.3      15 GLL5        0.0000 
     62 CA          9.4340   -1.4500  -16.7780 C.3      10 GLP5        0.0000 
     63 CA         11.0905   -5.0625  -15.9150 C.3       5 GLC5        0.0000 
     64 CA         11.0590   -5.4830  -17.7030 C.3      10 GLP5        0.0000 
     65 CA          9.0675   -3.0020  -15.5055 C.3       5 GLC5        0.0000 
     66 CA          8.7010   -4.5540  -14.2330 C.3      15 GLL5        0.0000 
     67 CA          9.8800   -5.0185  -15.9680 C.3       5 GLC5        0.0000 
     68 CA          7.9155   -2.0590  -15.1875 C.3       5 GLC5        0.0000 
     69 CA          7.6090   -3.5360  -13.9560 C.3      15 GLL5        0.0000 
     70 CA          8.2220   -0.5820  -16.4190 C.3      10 GLP5        0.0000 
     71 CA         11.9900   -6.8857  -12.3605 C.3       5 GLC5        0.0000 
     72 CA          9.8800   -6.1780  -12.5740 C.3      15 GLL5        0.0000 
     73 CA         13.4880   -8.0340  -12.0560 C.3      10 GLP5        0.0000 
     74 CA         12.5300   -3.7973  -12.9648 C.3       5 GLC5        0.0000 
     75 CA         13.9470   -2.6250  -12.4880 C.3      10 GLP5        0.0000 
     76 CA          6.4787   -4.8013  -14.3945 C.3       5 GLC5        0.0000 
     77 CA          4.8450   -5.5570  -15.0760 C.3      10 GLP5        0.0000 
@<TRIPOS>BOND
@<TRIPOS>SUBSTRUCTURE
     1 ALC1       25 GROUP        1 X    ALC  0     ROOT ALC X 1
     2 SEC2        1 GROUP        1 X    SEC  0     **** SEC X 2
     3 ASC3       20 GROUP        1 X    ASC  0     **** ASC X 3
     4 LYC4       32 GROUP        1 X    LYC  0     **** LYC X 4
     5 GLC5        8 GROUP        1 X    GLC  0     **** GLC X 6
     6 ALP1       27 GROUP        1 Y    ALP  0     ROOT ALP Y 8
     7 SEP2        3 GROUP        1 Y    SEP  0     **** SEP Y 9
     8 ASP3       22 GROUP        1 Y    ASP  0     **** ASP Y 10
     9 LYP4       34 GROUP        1 Y    LYP  0     **** LYP Y 11
    10 GLP5       10 GROUP        1 Y    GLP  0     **** GLP Y 13
    11 ALL1       26 GROUP        1 Z    ALL  0     ROOT ALL Z 15
    12 SEL2        2 GROUP        1 Z    SEL  0     **** SEL Z 16
    13 ASL3       21 GROUP        1 Z    ASL  0     **** ASL Z 17
    14 LYL4       33 GROUP        1 Z    LYL  0     **** LYL Z 18
    15 GLL5        9 GROUP        1 Z    GLL  0     **** GLL Z 20
@<TRIPOS>SET

