#    Name: 3fvo_8EP_2_ligand
#    Modification time : Tue Mar 25 06:37:51 2014

@<TRIPOS>MOLECULE
3fvo_8EP_2_ligand
   36    37     1     0     0
SMALL
NO_CHARGES


@<TRIPOS>ATOM
      1 OAC         9.1940   -2.2170  -11.5040 O.co2     1 8EP2        0.0000 
      2 CAN         7.9910   -2.2490  -11.8610 C.2       1 8EP2        0.0000 
      3 OAE         7.2250   -1.2620  -11.7460 O.co2     1 8EP2        0.0000 
      4 CAT         7.4390   -3.5380  -12.4300 C.3       1 8EP2        0.0000 
      5 CB          5.9680   -3.7560  -12.0610 C.3       1 8EP2        0.0000 
      6 CA          5.6850   -3.8440  -10.5630 C.3       1 8EP2        0.0000 
      7 N           6.1130   -5.1370  -10.0130 N.4       1 8EP2        0.0000 
      8 C           4.2130   -3.6170  -10.3580 C.2       1 8EP2        0.0000 
      9 OXT         3.7060   -2.5960  -10.8570 O.co2     1 8EP2        0.0000 
     10 O           3.5520   -4.4480   -9.7020 O.co2     1 8EP2        0.0000 
     11 OAL         8.2270   -4.6230  -11.9440 O.3       1 8EP2        0.0000 
     12 CAS         8.6000   -5.4730  -13.0230 C.3       1 8EP2        0.0000 
     13 CAQ         9.8800   -6.1780  -12.5740 C.3       1 8EP2        0.0000 
     14 OAG        10.0390   -7.3830  -13.3180 O.3       1 8EP2        0.0000 
     15 CAP        11.1040   -5.2970  -12.7560 C.3       1 8EP2        0.0000 
     16 OAF        11.0640   -4.2640  -11.7630 O.3       1 8EP2        0.0000 
     17 CAH        11.1220   -4.6420  -14.1270 C.3       1 8EP2        0.0000 
     18 OAK         9.9440   -3.8400  -14.2540 O.3       1 8EP2        0.0000 
     19 CAR         8.7010   -4.5540  -14.2330 C.3       1 8EP2        0.0000 
     20 CAJ         7.6090   -3.5360  -13.9560 C.3       1 8EP2        0.0000 
     21 H           5.6145   -4.6849  -12.5474 H         1 8EP2        0.0000 
     22 H           5.3688   -2.9310  -12.4908 H         1 8EP2        0.0000 
     23 H           6.2241   -3.0326  -10.0814 H         1 8EP2        0.0000 
     24 H           7.8300   -6.2005  -13.1894 H         1 8EP2        0.0000 
     25 H           9.7790   -6.4001  -11.5123 H         1 8EP2        0.0000 
     26 H          11.9850   -5.8981  -12.6454 H         1 8EP2        0.0000 
     27 H          11.1574   -5.4301  -14.8795 H         1 8EP2        0.0000 
     28 H          12.0293   -4.0426  -14.2052 H         1 8EP2        0.0000 
     29 H           8.4753   -5.0705  -15.0983 H         1 8EP2        0.0000 
     30 H           7.9206   -2.5687  -14.2761 H         1 8EP2        0.0000 
     31 H           6.6974   -3.8433  -14.4140 H         1 8EP2        0.0000 
     32 H           7.0933   -5.2884  -10.1399 H         1 8EP2        0.0000 
     33 H           5.9311   -5.2018   -9.0318 H         1 8EP2        0.0000 
     34 H           5.6393   -5.9016  -10.4500 H         1 8EP2        0.0000 
     35 H          10.7837   -7.8715  -12.8632 H         1 8EP2        0.0000 
     36 H          10.0950   -4.0376  -11.6642 H         1 8EP2        0.0000 
@<TRIPOS>BOND
     1    2    1 ar   
     2    3    2 ar   
     3    4    2 1    
     4    5    4 1    
     5   11    4 1    
     6   20    4 1    
     7    6    5 1    
     8   21    5 1    
     9   22    5 1    
    10    7    6 1    
    11    8    6 1    
    12   23    6 1    
    13   32    7 1    
    14   33    7 1    
    15   34    7 1    
    16    9    8 ar   
    17   10    8 ar   
    18   12   11 1    
    19   13   12 1    
    20   19   12 1    
    21   24   12 1    
    22   14   13 1    
    23   15   13 1    
    24   25   13 1    
    25   35   14 1    
    26   16   15 1    
    27   17   15 1    
    28   26   15 1    
    29   36   16 1    
    30   18   17 1    
    31   27   17 1    
    32   28   17 1    
    33   19   18 1    
    34   20   19 1    
    35   29   19 1    
    36   30   20 1    
    37   31   20 1    
@<TRIPOS>SUBSTRUCTURE
     1 8EP2        1 GROUP   
@<TRIPOS>SET

