#    Name: 2XB8_1_CAVITY_N1_6.mol2
#    Modification time : Mon Mar 10 23:05:07 2014

@<TRIPOS>MOLECULE
2XB8_1_CAVITY_N1_6.mol2
   86     0     5     0     0
SMALL
NO_CHARGES


@<TRIPOS>ATOM
      1 CA         23.9453   -0.0390   38.7944 C.3       4 GLY6        0.0000 
      2 O          23.1702   -1.2357   38.3285 O.2       2 ALA2        0.0000 
      3 CA         21.4748   -2.2943   39.0391 C.3       4 GLY6        0.0000 
      4 DU         22.1294    0.9928   39.1653 H         5 CUB7        0.0000 
      5 CA         23.0497    0.8548   37.9888 C.3       4 GLY6        0.0000 
      6 DU         20.4340   -0.0658   39.8758 H         5 CUB7        0.0000 
      7 DU         21.3542   -0.2039   38.6994 H         5 CUB7        0.0000 
      8 O          22.2745   -0.3419   37.5229 O.2       2 ALA2        0.0000 
      9 CZ         19.6588   -1.2625   39.4100 C.ar      3 PHE5        0.0000 
     10 O          20.5791   -1.4006   38.2335 O.2       2 ALA2        0.0000 
     11 CA         22.9291    2.9452   37.6492 C.3       4 GLY6        0.0000 
     12 DU         20.3134    2.0247   39.5362 H         5 CUB7        0.0000 
     13 DU         21.2337    1.8866   38.3597 H         5 CUB7        0.0000 
     14 CA         22.1540    1.7485   37.1833 C.3       4 GLY6        0.0000 
     15 O          16.7775    1.2423   42.5996 O.2       2 ALA2        0.0000 
     16 CZ         18.6180    0.9661   40.2467 C.ar      3 PHE5        0.0000 
     17 CZ         19.5383    0.8280   39.0703 C.ar      3 PHE5        0.0000 
     18 CZ         20.4586    0.6899   37.8938 C.ar      3 PHE5        0.0000 
     19 N          21.3788    0.5518   36.7174 N.2       2 ALA2        0.0000 
     20 CZ         19.6834   -0.5068   37.4279 C.ar      3 PHE5        0.0000 
     21 N          20.6037   -0.6449   36.2515 N.2       2 ALA2        0.0000 
     22 N          21.1132    3.9771   38.0201 N.2       2 ALA2        0.0000 
     23 O          14.8164    3.6089   44.6129 O.2       2 ALA2        0.0000 
     24 O          15.7367    3.4709   43.4364 O.2       2 ALA2        0.0000 
     25 DU         16.6569    3.3328   42.2600 H         5 CUB7        0.0000 
     26 O          17.5772    3.1947   41.0835 O.2       2 ALA2        0.0000 
     27 CA         18.4975    3.0566   39.9071 C.3       4 GLY6        0.0000 
     28 CA         19.4177    2.9185   38.7306 C.3       4 GLY6        0.0000 
     29 N          20.3380    2.7804   37.5542 N.2       2 ALA2        0.0000 
     30 OG         15.8818    2.1361   41.7941 O.2       1 SER1        0.0000 
     31 OG         16.8021    1.9980   40.6176 O.2       1 SER1        0.0000 
     32 OG         17.7223    1.8599   39.4412 O.2       1 SER1        0.0000 
     33 CZ         18.6426    1.7218   38.2647 C.ar      3 PHE5        0.0000 
     34 CZ         19.5629    1.5837   37.0883 C.ar      3 PHE5        0.0000 
     35 N          20.4831    1.4456   35.9118 N.2       2 ALA2        0.0000 
     36 N          19.7080    0.2489   35.4459 N.2       2 ALA2        0.0000 
     37 CA         15.6161    5.5613   43.0967 C.3       4 GLY6        0.0000 
     38 O          16.5364    5.4232   41.9203 O.2       2 ALA2        0.0000 
     39 CA         13.9207    4.5027   43.8073 C.3       4 GLY6        0.0000 
     40 O          14.8410    4.3646   42.6309 O.2       2 ALA2        0.0000 
     41 O          15.7613    4.2265   41.4544 O.2       2 ALA2        0.0000 
     42 CA         16.6815    4.0884   40.2780 C.3       4 GLY6        0.0000 
     43 CA         17.6018    3.9504   39.1015 C.3       4 GLY6        0.0000 
     44 O          14.0658    3.1679   42.1650 O.2       2 ALA2        0.0000 
     45 OG         14.9861    3.0298   40.9885 O.2       1 SER1        0.0000 
     46 OG         15.9064    2.8917   39.8121 O.2       1 SER1        0.0000 
     47 OG         16.8266    2.7537   38.6356 O.2       1 SER1        0.0000 
     48 N          17.7469    2.6156   37.4592 N.2       2 ALA2        0.0000 
     49 N          18.6672    2.4775   36.2827 N.2       2 ALA2        0.0000 
     50 O          19.5875    2.3394   35.1063 O.2       2 ALA2        0.0000 
     51 OG         14.2110    1.8331   40.5226 O.2       1 SER1        0.0000 
     52 CZ         16.9718    1.4189   36.9933 C.ar      3 PHE5        0.0000 
     53 CZ         17.8920    1.2808   35.8168 C.ar      3 PHE5        0.0000 
     54 CA         18.8123    1.1427   34.6404 C.3       4 GLY6        0.0000 
     55 O          14.8656    5.1203   40.6489 O.2       2 ALA2        0.0000 
     56 N          15.7858    4.9822   39.4724 N.2       2 ALA2        0.0000 
     57 N          16.7061    4.8441   38.2960 N.2       2 ALA2        0.0000 
     58 N          12.2499    4.1998   42.5359 N.2       2 ALA2        0.0000 
     59 O          13.1702    4.0617   41.3594 O.2       2 ALA2        0.0000 
     60 CA         14.0904    3.9236   40.1830 C.3       4 GLY6        0.0000 
     61 CA         15.0107    3.7855   39.0065 C.3       4 GLY6        0.0000 
     62 CA         15.9310    3.6474   37.8301 C.3       4 GLY6        0.0000 
     63 N          16.8512    3.5093   36.6536 N.2       2 ALA2        0.0000 
     64 N          17.7715    3.3712   35.4772 N.2       2 ALA2        0.0000 
     65 N          11.4747    3.0031   42.0700 N.2       2 ALA2        0.0000 
     66 O          12.3950    2.8650   40.8935 O.2       2 ALA2        0.0000 
     67 OG         13.3153    2.7269   39.7171 O.2       1 SER1        0.0000 
     68 OG         14.2355    2.5888   38.5406 O.2       1 SER1        0.0000 
     69 CZ         15.1558    2.4507   37.3642 C.ar      3 PHE5        0.0000 
     70 CA         16.0761    2.3126   36.1877 C.3       4 GLY6        0.0000 
     71 CA         16.9964    2.1745   35.0113 C.3       4 GLY6        0.0000 
     72 CA         11.6199    1.6683   40.4276 C.3       4 GLY6        0.0000 
     73 CZ         12.5401    1.5302   39.2512 C.ar      3 PHE5        0.0000 
     74 CZ         13.4604    1.3921   38.0747 C.ar      3 PHE5        0.0000 
     75 CA         14.1150    4.6793   38.2010 C.3       4 GLY6        0.0000 
     76 N          10.5791    3.8969   41.2644 N.2       2 ALA2        0.0000 
     77 N          11.4993    3.7588   40.0880 N.2       2 ALA2        0.0000 
     78 CA         12.4196    3.6207   38.9115 C.3       4 GLY6        0.0000 
     79 N          13.3399    3.4826   37.7351 N.2       2 ALA2        0.0000 
     80 CA         14.2601    3.3445   36.5586 C.3       4 GLY6        0.0000 
     81 CA          9.8039    2.7002   40.7985 C.3       4 GLY6        0.0000 
     82 O          10.7242    2.5621   39.6221 O.2       2 ALA2        0.0000 
     83 O          11.6444    2.4240   38.4456 O.2       2 ALA2        0.0000 
     84 CZ         12.5647    2.2859   37.2692 C.ar      3 PHE5        0.0000 
     85 CA         13.4850    2.1478   36.0927 C.3       4 GLY6        0.0000 
     86 OG         10.8693    1.2273   37.9798 O.2       1 SER1        0.0000 
@<TRIPOS>BOND
@<TRIPOS>SUBSTRUCTURE
     1 SER1       30 GROUP   
     2 ALA2        2 GROUP   
     3 PHE5        9 GROUP   
     4 GLY6        1 GROUP   
     5 CUB7        4 GROUP   
@<TRIPOS>SET

