#    Name: 2xb8_XNW_1_INTS_M
#    Modification time : Tue Mar 25 05:47:44 2014

@<TRIPOS>MOLECULE
2xb8_XNW_1_INTS_M
   60     0     9     0     0
SMALL
NO_CHARGES


@<TRIPOS>ATOM
      1 CA         21.4160    2.8635   36.0435 C.3       3 GLC5        0.0000 
      2 CA         20.2440    1.6680   36.8330 C.3       9 GLL5        0.0000 
      3 CA         22.5880    4.0590   35.2540 C.3       6 GLP5        0.0000 
      4 CA         18.6570    0.2035   36.7575 C.3       3 GLC5        0.0000 
      5 CA         17.0700   -1.2610   36.6820 C.3       6 GLP5        0.0000 
      6 CA         14.3900    1.9220   34.4535 C.3       3 GLC5        0.0000 
      7 CA         15.5680    2.1550   36.2860 C.3       9 GLL5        0.0000 
      8 CA         13.2120    1.6890   32.6210 C.3       6 GLP5        0.0000 
      9 CA         15.8560    4.7250   36.5580 C.3       3 GLC5        0.0000 
     10 CA         16.6240    3.3330   38.0230 C.3       9 GLL5        0.0000 
     11 CA         15.0880    6.1170   35.0930 C.3       6 GLP5        0.0000 
     12 CA         14.5600    4.7855   36.3980 C.3       3 GLC5        0.0000 
     13 CA         14.0320    3.4540   37.7030 C.3       9 GLL5        0.0000 
     14 CA         12.9660    4.8790   40.5975 C.3       3 GLC5        0.0000 
     15 CA         13.1820    2.8490   41.4630 C.3       9 GLL5        0.0000 
     16 CA         12.7500    6.9090   39.7320 C.3       6 GLP5        0.0000 
     17 CA         10.9120    3.6480   43.1475 C.3       3 GLC5        0.0000 
     18 CA         11.6670    2.7290   41.2950 C.3       9 GLL5        0.0000 
     19 CA         10.1570    4.5670   45.0000 C.3       6 GLP5        0.0000 
     20 N          10.4310    2.8875   43.2195 N.am      2 SEC2        0.0000 
     21 N          11.1380    2.0430   42.4370 N.am      8 SEL2        0.0000 
     22 N           9.7240    3.7320   44.0020 N.am      5 SEP2        0.0000 
     23 N          12.2760    1.6585   43.2650 N.am      2 SEC2        0.0000 
     24 N          13.4140    1.2740   44.0930 N.am      5 SEP2        0.0000 
     25 N          10.9365   -0.5630   36.8040 N.am      2 SEC2        0.0000 
     26 N          11.5010    0.5520   37.6400 N.am      8 SEL2        0.0000 
     27 N          10.3720   -1.6780   35.9680 N.am      5 SEP2        0.0000 
     28 N          11.2650   -0.6220   38.3010 N.am      2 SEC2        0.0000 
     29 N          11.0290   -1.7960   38.9620 N.am      5 SEP2        0.0000 
     30 N          11.0270    3.5145   35.5985 N.am      2 SEC2        0.0000 
     31 N          11.0610    2.4200   36.4670 N.am      8 SEL2        0.0000 
     32 N          10.9930    4.6090   34.7300 N.am      5 SEP2        0.0000 
     33 N          10.3235    1.5845   35.6245 N.am      2 SEC2        0.0000 
     34 N           9.5860    0.7490   34.7820 N.am      5 SEP2        0.0000 
     35 N           9.8050    4.0485   38.4450 N.am      2 SEC2        0.0000 
     36 N          11.2760    3.9950   38.5400 N.am      8 SEL2        0.0000 
     37 N           8.3340    4.1020   38.3500 N.am      5 SEP2        0.0000 
     38 O          10.9335    4.8770   37.6000 O.2       1 ALC1        0.0000 
     39 O          11.2760    3.9950   38.5400 O.2       7 ALL1        0.0000 
     40 O          10.5910    5.7590   36.6600 O.2       4 ALP1        0.0000 
     41 CA         16.1732    0.0627   35.2130 C.3       3 GLC5        0.0000 
     42 CA         16.1620   -1.7990   34.3510 C.3       6 GLP5        0.0000 
     43 CA         16.7084    1.7195   34.3652 C.3       3 GLC5        0.0000 
     44 CA         16.8010    1.6940   35.8640 C.3       9 GLL5        0.0000 
     45 CA         16.9390    1.4340   32.4980 C.3       6 GLP5        0.0000 
     46 CA         18.2238    4.5158   38.4350 C.3       3 GLC5        0.0000 
     47 CA         17.8850    2.8580   37.6010 C.3       9 GLL5        0.0000 
     48 CA         19.1930    5.9360   39.0580 C.3       6 GLP5        0.0000 
     49 CA         15.2319    3.7081   35.4492 C.3       3 GLC5        0.0000 
     50 CA         15.4490    2.9840   37.3600 C.3       9 GLL5        0.0000 
     51 CA         14.6470    4.9620   34.1810 C.3       6 GLP5        0.0000 
     52 CA         14.1178    1.1168   37.9942 C.3       3 GLC5        0.0000 
     53 CA         14.5350   -0.8460   37.7110 C.3       6 GLP5        0.0000 
     54 CA          9.8210    1.2990   40.8730 C.3       3 GLC5        0.0000 
     55 CA          8.1870    0.2200   41.1080 C.3       6 GLP5        0.0000 
     56 CA          9.6655    2.1178   38.3190 C.3       3 GLC5        0.0000 
     57 CA         11.2430    2.0270   39.9810 C.3       9 GLL5        0.0000 
     58 CA          7.7880    1.8890   37.2870 C.3       6 GLP5        0.0000 
     59 CA         12.7609    4.8909   39.1156 C.3       3 GLC5        0.0000 
     60 CA         11.8430    2.6660   38.7210 C.3       9 GLL5        0.0000 
@<TRIPOS>BOND
@<TRIPOS>SUBSTRUCTURE
     1 ALC1       38 GROUP        1 X    ALC  0     ROOT ALC X 1
     2 SEC2       20 GROUP        1 X    SEC  0     **** SEC X 2
     3 GLC5        1 GROUP        1 X    GLC  0     **** GLC X 6
     4 ALP1       40 GROUP        1 Y    ALP  0     ROOT ALP Y 8
     5 SEP2       22 GROUP        1 Y    SEP  0     **** SEP Y 9
     6 GLP5        3 GROUP        1 Y    GLP  0     **** GLP Y 13
     7 ALL1       39 GROUP        1 Z    ALL  0     ROOT ALL Z 15
     8 SEL2       21 GROUP        1 Z    SEL  0     **** SEL Z 16
     9 GLL5        2 GROUP        1 Z    GLL  0     **** GLL Z 20
@<TRIPOS>SET

