#    Name: 2xb8_XNW_1_ligand
#    Modification time : Tue Mar 25 05:47:44 2014

@<TRIPOS>MOLECULE
2xb8_XNW_1_ligand
   39    40     1     0     0
SMALL
NO_CHARGES


@<TRIPOS>ATOM
      1 CAA        20.2440    1.6680   36.8330 C.3       1 XNW1144     0.0000 
      2 OAN        19.1300    1.4710   35.9620 O.3       1 XNW1144     0.0000 
      3 CAR        17.9740    2.0160   36.4940 C.ar      1 XNW1144     0.0000 
      4 CAK        16.8010    1.6940   35.8640 C.ar      1 XNW1144     0.0000 
      5 CAI        15.5680    2.1550   36.2860 C.ar      1 XNW1144     0.0000 
      6 CAJ        17.8850    2.8580   37.6010 C.ar      1 XNW1144     0.0000 
      7 CAH        16.6240    3.3330   38.0230 C.ar      1 XNW1144     0.0000 
      8 CAQ        15.4490    2.9840   37.3600 C.ar      1 XNW1144     0.0000 
      9 CAL        14.0320    3.4540   37.7030 C.3       1 XNW1144     0.0000 
     10 CAU        13.3690    2.7050   38.8520 C.3       1 XNW1144     0.0000 
     11 CAP        13.7620    3.3750   40.1680 C.2       1 XNW1144     0.0000 
     12 OAC        14.5280    4.3410   40.2000 O.2       1 XNW1144     0.0000 
     13 CAT        13.1820    2.8490   41.4630 C.3       1 XNW1144     0.0000 
     14 OAF        13.4440    3.8120   42.5080 O.3       1 XNW1144     0.0000 
     15 CAS        11.6670    2.7290   41.2950 C.3       1 XNW1144     0.0000 
     16 OAE        11.1380    2.0430   42.4370 O.3       1 XNW1144     0.0000 
     17 CAM        11.2430    2.0270   39.9810 C.3       1 XNW1144     0.0000 
     18 CAV        11.8430    2.6660   38.7210 C.3       1 XNW1144     0.0000 
     19 CAO        11.4610    1.8070   37.4960 C.2       1 XNW1144     0.0000 
     20 OAD        11.5010    0.5520   37.6400 O.co2     1 XNW1144     0.0000 
     21 OAB        11.0610    2.4200   36.4670 O.co2     1 XNW1144     0.0000 
     22 OAG        11.2760    3.9950   38.5400 O.3       1 XNW1144     0.0000 
     23 H          16.8346    1.0660   35.0179 H         1 XNW1144     0.0000 
     24 H          14.7142    1.8560   35.7639 H         1 XNW1144     0.0000 
     25 H          18.7265    3.1360   38.1122 H         1 XNW1144     0.0000 
     26 H          16.5794    3.9578   38.8492 H         1 XNW1144     0.0000 
     27 H          13.3998    3.3598   36.7998 H         1 XNW1144     0.0000 
     28 H          14.0668    4.5322   37.9490 H         1 XNW1144     0.0000 
     29 H          13.7443    1.6902   38.8692 H         1 XNW1144     0.0000 
     30 H          13.5858    1.9024   41.6806 H         1 XNW1144     0.0000 
     31 H          11.2617    3.7511   41.2639 H         1 XNW1144     0.0000 
     32 H          10.1477    2.0503   39.9096 H         1 XNW1144     0.0000 
     33 H          11.5504    0.9743   40.0318 H         1 XNW1144     0.0000 
     34 H          21.0830    1.2740   36.4578 H         1 XNW1144     0.0000 
     35 H          20.4225    2.6387   36.9939 H         1 XNW1144     0.0000 
     36 H          20.0958    1.2451   37.7270 H         1 XNW1144     0.0000 
     37 H          13.8510    4.5967   42.0405 H         1 XNW1144     0.0000 
     38 H          10.4020    1.4699   42.0765 H         1 XNW1144     0.0000 
     39 H          11.4133    4.2052   37.5720 H         1 XNW1144     0.0000 
@<TRIPOS>BOND
     1    2    1 1    
     2   34    1 1    
     3   35    1 1    
     4   36    1 1    
     5    3    2 1    
     6    4    3 ar   
     7    6    3 ar   
     8    5    4 ar   
     9   23    4 1    
    10    8    5 ar   
    11   24    5 1    
    12    7    6 ar   
    13   25    6 1    
    14    8    7 ar   
    15   26    7 1    
    16    9    8 1    
    17   10    9 1    
    18   27    9 1    
    19   28    9 1    
    20   11   10 1    
    21   18   10 1    
    22   29   10 1    
    23   12   11 2    
    24   13   11 1    
    25   14   13 1    
    26   15   13 1    
    27   30   13 1    
    28   37   14 1    
    29   16   15 1    
    30   17   15 1    
    31   31   15 1    
    32   38   16 1    
    33   18   17 1    
    34   32   17 1    
    35   33   17 1    
    36   19   18 1    
    37   22   18 1    
    38   20   19 ar   
    39   21   19 ar   
    40   39   22 1    
@<TRIPOS>SUBSTRUCTURE
     1 XNW1144     1 GROUP   
@<TRIPOS>SET

