#    Name: 2bxa_C1F_4_INTS_M
#    Modification time : Mon Mar 24 21:50:03 2014

@<TRIPOS>MOLECULE
2bxa_C1F_4_INTS_M
   47     0     9     0     0
SMALL
NO_CHARGES


@<TRIPOS>ATOM
      1 CA         53.5980   35.4455   76.9995 C.3       3 GLC5        0.0000 
      2 CA         55.1960   33.9490   76.6660 C.3       9 GLL5        0.0000 
      3 CA         52.0000   36.9420   77.3330 C.3       6 GLP5        0.0000 
      4 CA         57.0655   33.0470   75.9515 C.3       3 GLC5        0.0000 
      5 CA         58.9350   32.1450   75.2370 C.3       6 GLP5        0.0000 
      6 CA         56.6910   32.7055   78.8825 C.3       3 GLC5        0.0000 
      7 CA         55.7660   34.2170   78.0720 C.3       9 GLL5        0.0000 
      8 CA         57.6160   31.1940   79.6930 C.3       6 GLP5        0.0000 
      9 CA         53.4145   30.4710   74.5400 C.3       3 GLC5        0.0000 
     10 CA         53.2490   32.5440   73.8460 C.3       9 GLL5        0.0000 
     11 CA         53.5800   28.3980   75.2340 C.3       6 GLP5        0.0000 
     12 CA         53.7715   31.3650   72.1020 C.3       3 GLC5        0.0000 
     13 CA         54.2940   30.1860   70.3580 C.3       6 GLP5        0.0000 
     14 CA         53.3295   33.1465   71.9290 C.3       3 GLC5        0.0000 
     15 CA         53.4100   33.7490   70.0120 C.3       6 GLP5        0.0000 
     16 CA         54.1700   38.8135   72.2390 C.3       3 GLC5        0.0000 
     17 CA         55.8090   37.3060   72.4760 C.3       9 GLL5        0.0000 
     18 CA         52.5310   40.3210   72.0020 C.3       6 GLP5        0.0000 
     19 CA         53.3795   35.9525   78.1485 C.3       3 GLC5        0.0000 
     20 CA         54.7590   34.9630   78.9640 C.3       9 GLL5        0.0000 
     21 CA         54.3840   34.3595   71.6470 C.3       3 GLC5        0.0000 
     22 CA         55.3580   34.9700   73.2820 C.3       9 GLL5        0.0000 
     23 CA         56.9835   33.2125   74.9280 C.3       3 GLC5        0.0000 
     24 CA         55.0320   34.2800   74.6190 C.3       9 GLL5        0.0000 
     25 CA         53.2030   37.1520   74.1355 C.3       3 GLC5        0.0000 
     26 CA         54.8300   36.3980   73.2130 C.3       9 GLL5        0.0000 
     27 CA         51.5760   37.9060   75.0580 C.3       6 GLP5        0.0000 
     28 NZ         53.3320   30.5330   79.0605 N.4       2 LYC4        0.0000 
     29 NZ         53.6540   31.9260   78.3390 N.4       8 LYL4        0.0000 
     30 NZ         53.0100   29.1400   79.7820 N.4       5 LYP4        0.0000 
     31 N          53.3320   30.5330   79.0605 N.am      1 SEC2        0.0000 
     32 N          53.6540   31.9260   78.3390 N.am      7 SEL2        0.0000 
     33 N          53.0100   29.1400   79.7820 N.am      4 SEP2        0.0000 
     34 NZ         52.8560   30.1590   78.2095 N.4       2 LYC4        0.0000 
     35 NZ         52.7020   31.1780   76.6370 N.4       8 LYL4        0.0000 
     36 N          52.6275   30.2370   75.9005 N.am      1 SEC2        0.0000 
     37 N          52.7020   31.1780   76.6370 N.am      7 SEL2        0.0000 
     38 N          52.5530   29.2960   75.1640 N.am      4 SEP2        0.0000 
     39 N          51.5700   32.3255   77.0100 N.am      1 SEC2        0.0000 
     40 N          50.4380   33.4730   77.3830 N.am      4 SEP2        0.0000 
     41 NZ         57.5420   34.4745   80.0280 N.4       2 LYC4        0.0000 
     42 NZ         56.2310   35.6570   80.7480 N.4       8 LYL4        0.0000 
     43 NZ         58.8530   33.2920   79.3080 N.4       5 LYP4        0.0000 
     44 CA         56.5258   37.6420   74.1008 C.3       3 GLC5        0.0000 
     45 CA         57.7320   38.4320   75.3570 C.3       6 GLP5        0.0000 
     46 CA         53.6432   36.1570   71.9878 C.3       3 GLC5        0.0000 
     47 CA         51.9670   35.4620   71.1310 C.3       6 GLP5        0.0000 
@<TRIPOS>BOND
@<TRIPOS>SUBSTRUCTURE
     1 SEC2       31 GROUP        1 X    SEC  0     ROOT SEC X 2
     2 LYC4       28 GROUP        1 X    LYC  0     **** LYC X 4
     3 GLC5        1 GROUP        1 X    GLC  0     **** GLC X 6
     4 SEP2       33 GROUP        1 Y    SEP  0     ROOT SEP Y 9
     5 LYP4       30 GROUP        1 Y    LYP  0     **** LYP Y 11
     6 GLP5        3 GROUP        1 Y    GLP  0     **** GLP Y 13
     7 SEL2       32 GROUP        1 Z    SEL  0     ROOT SEL Z 16
     8 LYL4       29 GROUP        1 Z    LYL  0     **** LYL Z 18
     9 GLL5        2 GROUP        1 Z    GLL  0     **** GLL Z 20
@<TRIPOS>SET

