#    Name: 2bxa_C1F_4_ligand
#    Modification time : Mon Mar 24 21:50:03 2014

@<TRIPOS>MOLECULE
2bxa_C1F_4_ligand
   31    31     1     0     0
SMALL
NO_CHARGES


@<TRIPOS>ATOM
      1 C1         54.1360   33.2500   74.8780 C.2       1 C1F2002     0.0000 
      2 C2         54.2450   33.0170   76.2470 C.2       1 C1F2002     0.0000 
      3 C3         55.1960   33.9490   76.6660 C.2       1 C1F2002     0.0000 
      4 C4         55.7660   34.2170   78.0720 C.3       1 C1F2002     0.0000 
      5 C6         53.2490   32.5440   73.8460 C.3       1 C1F2002     0.0000 
      6 O          55.5790   34.6110   75.6810 O.3       1 C1F2002     0.0000 
      7 C7         55.8090   37.3060   72.4760 C.3       1 C1F2002     0.0000 
      8 C9         54.7590   34.9630   78.9640 C.3       1 C1F2002     0.0000 
      9 C11        55.3580   34.9700   73.2820 C.3       1 C1F2002     0.0000 
     10 C40        55.0320   34.2800   74.6190 C.2       1 C1F2002     0.0000 
     11 C12        54.8300   36.3980   73.2130 C.3       1 C1F2002     0.0000 
     12 C70        55.2100   35.0220   80.4310 C.2       1 C1F2002     0.0000 
     13 O1         53.6540   31.9260   78.3390 O.co2     1 C1F2002     0.0000 
     14 C13        53.4840   31.9750   77.1250 C.2       1 C1F2002     0.0000 
     15 O2         52.7020   31.1780   76.6370 O.co2     1 C1F2002     0.0000 
     16 O3         54.5630   34.4650   81.3130 O.co2     1 C1F2002     0.0000 
     17 O4         56.2310   35.6570   80.7480 O.co2     1 C1F2002     0.0000 
     18 H          56.6730   34.8151   77.9798 H         1 C1F2002     0.0000 
     19 H          56.0208   33.2655   78.5396 H         1 C1F2002     0.0000 
     20 H          53.7913   34.4575   78.9077 H         1 C1F2002     0.0000 
     21 H          54.6361   35.9817   78.5867 H         1 C1F2002     0.0000 
     22 H          54.9214   34.3818   72.4668 H         1 C1F2002     0.0000 
     23 H          56.4455   34.9782   73.1462 H         1 C1F2002     0.0000 
     24 H          53.8728   36.4033   72.6918 H         1 C1F2002     0.0000 
     25 H          54.6807   36.7761   74.2243 H         1 C1F2002     0.0000 
     26 H          53.3771   32.9188   72.9278 H         1 C1F2002     0.0000 
     27 H          53.4474   31.5653   73.7934 H         1 C1F2002     0.0000 
     28 H          52.2779   32.6348   74.0668 H         1 C1F2002     0.0000 
     29 H          56.7001   37.3365   72.9288 H         1 C1F2002     0.0000 
     30 H          55.9673   36.9978   71.5379 H         1 C1F2002     0.0000 
     31 H          55.4748   38.2470   72.4229 H         1 C1F2002     0.0000 
@<TRIPOS>BOND
     1    2    1 1    
     2    5    1 1    
     3   10    1 2    
     4    3    2 2    
     5   14    2 1    
     6    4    3 1    
     7    6    3 1    
     8    8    4 1    
     9   18    4 1    
    10   19    4 1    
    11   26    5 1    
    12   27    5 1    
    13   28    5 1    
    14   10    6 1    
    15   11    7 1    
    16   29    7 1    
    17   30    7 1    
    18   31    7 1    
    19   12    8 1    
    20   20    8 1    
    21   21    8 1    
    22   10    9 1    
    23   11    9 1    
    24   22    9 1    
    25   23    9 1    
    26   24   11 1    
    27   25   11 1    
    28   16   12 ar   
    29   17   12 ar   
    30   14   13 ar   
    31   15   14 ar   
@<TRIPOS>SUBSTRUCTURE
     1 C1F2002     1 GROUP   
@<TRIPOS>SET

