#    Name: 4bch_T7Z_1_INTS_M
#    Modification time : Tue Mar 25 07:31:38 2014

@<TRIPOS>MOLECULE
4bch_T7Z_1_INTS_M
   53     0     9     0     0
SMALL
NO_CHARGES


@<TRIPOS>ATOM
      1 CA         49.9075  -20.8125  -12.7770 C.3       3 GLC5        0.0000 
      2 CA         49.3510  -19.2010  -11.3300 C.3       9 GLL5        0.0000 
      3 CA         50.4640  -22.4240  -14.2240 C.3       6 GLP5        0.0000 
      4 CA         48.6795  -18.4340   -9.9960 C.3       3 GLC5        0.0000 
      5 CA         48.0080  -17.6670   -8.6620 C.3       6 GLP5        0.0000 
      6 CA         52.0415  -17.8110  -14.7600 C.3       3 GLC5        0.0000 
      7 CA         51.8330  -16.0720  -13.5630 C.3       9 GLL5        0.0000 
      8 CA         52.2500  -19.5500  -15.9570 C.3       6 GLP5        0.0000 
      9 CA         52.2725  -16.7330  -15.6840 C.3       3 GLC5        0.0000 
     10 CA         51.6050  -14.9380  -14.5190 C.3       9 GLL5        0.0000 
     11 CA         52.9400  -18.5280  -16.8490 C.3       6 GLP5        0.0000 
     12 CA         53.0185  -14.1030  -15.4400 C.3       3 GLC5        0.0000 
     13 CA         54.4320  -13.2680  -16.3610 C.3       6 GLP5        0.0000 
     14 CA         50.7880  -13.4145  -14.9760 C.3       3 GLC5        0.0000 
     15 CA         49.9710  -11.8910  -15.4330 C.3       6 GLP5        0.0000 
     16 CA         56.8780  -16.2520  -14.3820 C.3       3 GLC5        0.0000 
     17 CA         56.5300  -15.0800  -12.6620 C.3       9 GLL5        0.0000 
     18 CA         57.2260  -17.4240  -16.1020 C.3       6 GLP5        0.0000 
     19 CA         57.2680  -13.5160  -11.3520 C.3       3 GLC5        0.0000 
     20 CA         58.0060  -11.9520  -10.0420 C.3       6 GLP5        0.0000 
     21 CA         55.7455  -14.6290  -11.0450 C.3       3 GLC5        0.0000 
     22 CA         54.9610  -14.1780   -9.4280 C.3       6 GLP5        0.0000 
     23 O          58.7510  -14.7750  -12.1765 O.2       1 ALC1        0.0000 
     24 O          57.8580  -15.6510  -12.6560 O.2       7 ALL1        0.0000 
     25 O          59.6440  -13.8990  -11.6970 O.2       4 ALP1        0.0000 
     26 CA         53.7130  -23.0365  -11.4945 C.3       3 GLC5        0.0000 
     27 CA         54.9250  -22.9760   -9.8670 C.3       9 GLL5        0.0000 
     28 CA         52.5010  -23.0970  -13.1220 C.3       6 GLP5        0.0000 
     29 CA         54.4860  -23.5895  -12.2470 C.3       3 GLC5        0.0000 
     30 CA         56.4710  -24.0820  -11.3720 C.3       9 GLL5        0.0000 
     31 N          57.3405  -12.6130  -12.5530 N.am      2 SEC2        0.0000 
     32 N          56.3980  -13.7400  -12.6440 N.am      8 SEL2        0.0000 
     33 N          58.2830  -11.4860  -12.4620 N.am      5 SEP2        0.0000 
     34 CA         56.3625  -11.7400  -13.5505 C.3       3 GLC5        0.0000 
     35 CA         55.1630  -13.1700  -12.6170 C.3       9 GLL5        0.0000 
     36 CA         57.5620  -10.3100  -14.4840 C.3       6 GLP5        0.0000 
     37 CA         56.5845  -12.5610  -11.3295 C.3       3 GLC5        0.0000 
     38 CA         53.5255  -13.3470  -14.4605 C.3       3 GLC5        0.0000 
     39 CA         52.6190  -13.4260  -12.5600 C.3       9 GLL5        0.0000 
     40 CA         52.3550  -12.1275  -11.2920 C.3       3 GLC5        0.0000 
     41 CA         52.0910  -10.8290  -10.0240 C.3       6 GLP5        0.0000 
     42 CA         52.1910  -11.8665  -13.6410 C.3       3 GLC5        0.0000 
     43 CA         51.7630  -10.3070  -14.7220 C.3       6 GLP5        0.0000 
     44 CA         54.2700  -14.9908  -11.0533 C.3       3 GLC5        0.0000 
     45 CA         54.1850  -15.3490  -12.6580 C.3       9 GLL5        0.0000 
     46 CA         57.4490  -17.4715  -14.2090 C.3       3 GLC5        0.0000 
     47 CA         57.1690  -17.9960  -12.3130 C.3       9 GLL5        0.0000 
     48 CA         54.6382  -22.6040   -7.9620 C.3       3 GLC5        0.0000 
     49 CA         55.8360  -21.7720   -9.8850 C.3       9 GLL5        0.0000 
     50 CA         53.8960  -22.8340   -6.0480 C.3       6 GLP5        0.0000 
     51 CA         54.5290  -13.5929  -14.4954 C.3       3 GLC5        0.0000 
     52 CA         54.2797  -13.8395  -11.0095 C.3       3 GLC5        0.0000 
     53 CA         53.9930  -13.9820  -12.6270 C.3       9 GLL5        0.0000 
@<TRIPOS>BOND
@<TRIPOS>SUBSTRUCTURE
     1 ALC1       23 GROUP        1 X    ALC  0     ROOT ALC X 1
     2 SEC2       31 GROUP        1 X    SEC  0     **** SEC X 2
     3 GLC5        1 GROUP        1 X    GLC  0     **** GLC X 6
     4 ALP1       25 GROUP        1 Y    ALP  0     ROOT ALP Y 8
     5 SEP2       33 GROUP        1 Y    SEP  0     **** SEP Y 9
     6 GLP5        3 GROUP        1 Y    GLP  0     **** GLP Y 13
     7 ALL1       24 GROUP        1 Z    ALL  0     ROOT ALL Z 15
     8 SEL2       32 GROUP        1 Z    SEL  0     **** SEL Z 16
     9 GLL5        2 GROUP        1 Z    GLL  0     **** GLL Z 20
@<TRIPOS>SET

