#    Name: 4bch_T7Z_1_ligand
#    Modification time : Tue Mar 25 07:31:38 2014

@<TRIPOS>MOLECULE
4bch_T7Z_1_ligand
   56    59     1     0     0
SMALL
NO_CHARGES


@<TRIPOS>ATOM
      1 C01        49.3510  -19.2010  -11.3300 C.3       1 T7Z1328     0.0000 
      2 N02        50.6190  -19.2770  -11.9540 N.2       1 T7Z1328     0.0000 
      3 C03        51.3050  -18.0770  -12.3950 C.2       1 T7Z1328     0.0000 
      4 N04        50.8380  -17.1700  -13.3770 N.pl3     1 T7Z1328     0.0000 
      5 C05        51.8330  -16.0720  -13.5630 C.2       1 T7Z1328     0.0000 
      6 C06        51.6050  -14.9380  -14.5190 C.3       1 T7Z1328     0.0000 
      7 C07        52.9730  -16.2580  -12.6990 C.2       1 T7Z1328     0.0000 
      8 C08        54.1850  -15.3490  -12.6580 C.ar      1 T7Z1328     0.0000 
      9 N09        55.4360  -15.8870  -12.6920 N.ar      1 T7Z1328     0.0000 
     10 C10        56.5300  -15.0800  -12.6620 C.ar      1 T7Z1328     0.0000 
     11 N11        57.8580  -15.6510  -12.6560 N.pl3     1 T7Z1328     0.0000 
     12 C12        58.1750  -17.0420  -12.3190 C.ar      1 T7Z1328     0.0000 
     13 C13        57.1690  -17.9960  -12.3130 C.ar      1 T7Z1328     0.0000 
     14 C14        57.4720  -19.3500  -12.0230 C.ar      1 T7Z1328     0.0000 
     15 S15        56.1260  -20.5550  -12.0120 S.o2      1 T7Z1328     0.0000 
     16 N16        56.5960  -21.7600  -11.0070 N.pl3     1 T7Z1328     0.0000 
     17 C17        55.8360  -21.7720   -9.8850 C.3       1 T7Z1328     0.0000 
     18 C18        54.9250  -22.9760   -9.8670 C.3       1 T7Z1328     0.0000 
     19 O19        55.6360  -24.2210  -10.1620 O.3       1 T7Z1328     0.0000 
     20 C20        56.4710  -24.0820  -11.3720 C.3       1 T7Z1328     0.0000 
     21 C21        57.2980  -22.8320  -11.4500 C.3       1 T7Z1328     0.0000 
     22 O22        54.9430  -19.9590  -11.4790 O.2       1 T7Z1328     0.0000 
     23 O23        55.8210  -21.0580  -13.3300 O.2       1 T7Z1328     0.0000 
     24 C24        58.7960  -19.7370  -11.7320 C.ar      1 T7Z1328     0.0000 
     25 C25        59.1410  -21.1500  -11.4210 C.3       1 T7Z1328     0.0000 
     26 C26        59.8160  -18.7990  -11.7550 C.ar      1 T7Z1328     0.0000 
     27 C27        59.4990  -17.4470  -12.0550 C.ar      1 T7Z1328     0.0000 
     28 N28        56.3980  -13.7400  -12.6440 N.ar      1 T7Z1328     0.0000 
     29 C29        55.1630  -13.1700  -12.6170 C.ar      1 T7Z1328     0.0000 
     30 C30        53.9930  -13.9820  -12.6270 C.ar      1 T7Z1328     0.0000 
     31 C31        52.6190  -13.4260  -12.5600 C.1       1 T7Z1328     0.0000 
     32 N32        51.5350  -12.9940  -12.5140 N.1       1 T7Z1328     0.0000 
     33 S33        52.7730  -17.5950  -11.8280 S.3       1 T7Z1328     0.0000 
     34 H          50.0381  -17.2140  -13.8580 H         1 T7Z1328     0.0000 
     35 H          58.6588  -15.0311  -12.9102 H         1 T7Z1328     0.0000 
     36 H          56.1980  -17.7350  -12.5173 H         1 T7Z1328     0.0000 
     37 H          55.1866  -20.8746   -9.7883 H         1 T7Z1328     0.0000 
     38 H          56.4379  -21.8088   -8.9507 H         1 T7Z1328     0.0000 
     39 H          54.1154  -22.8134  -10.6015 H         1 T7Z1328     0.0000 
     40 H          54.4431  -23.0356   -8.8743 H         1 T7Z1328     0.0000 
     41 H          55.8212  -24.1346  -12.2806 H         1 T7Z1328     0.0000 
     42 H          57.1529  -24.9643  -11.4570 H         1 T7Z1328     0.0000 
     43 H          58.2252  -23.0161  -10.8626 H         1 T7Z1328     0.0000 
     44 H          57.6312  -22.7257  -12.5066 H         1 T7Z1328     0.0000 
     45 H          60.7799  -19.0581  -11.5627 H         1 T7Z1328     0.0000 
     46 H          60.2581  -16.7499  -12.0790 H         1 T7Z1328     0.0000 
     47 H          55.0434  -12.1461  -12.5889 H         1 T7Z1328     0.0000 
     48 H          49.3823  -18.6592  -10.4901 H         1 T7Z1328     0.0000 
     49 H          48.6684  -18.7784  -11.9262 H         1 T7Z1328     0.0000 
     50 H          49.0041  -20.1056  -11.0825 H         1 T7Z1328     0.0000 
     51 H          52.3706  -14.2946  -14.5214 H         1 T7Z1328     0.0000 
     52 H          51.4910  -15.2614  -15.4584 H         1 T7Z1328     0.0000 
     53 H          50.7842  -14.4160  -14.2870 H         1 T7Z1328     0.0000 
     54 H          60.1174  -21.2619  -11.2363 H         1 T7Z1328     0.0000 
     55 H          58.6503  -21.4836  -10.6161 H         1 T7Z1328     0.0000 
     56 H          58.9137  -21.7630  -12.1777 H         1 T7Z1328     0.0000 
@<TRIPOS>BOND
     1    2    1 1    
     2   48    1 1    
     3   49    1 1    
     4   50    1 1    
     5    3    2 2    
     6    4    3 1    
     7   33    3 1    
     8    5    4 1    
     9   34    4 1    
    10    6    5 1    
    11    7    5 2    
    12   51    6 1    
    13   52    6 1    
    14   53    6 1    
    15    8    7 1    
    16   33    7 1    
    17    9    8 ar   
    18   30    8 ar   
    19   10    9 ar   
    20   11   10 1    
    21   28   10 ar   
    22   12   11 1    
    23   35   11 1    
    24   13   12 ar   
    25   27   12 ar   
    26   14   13 ar   
    27   36   13 1    
    28   15   14 1    
    29   24   14 ar   
    30   16   15 1    
    31   22   15 2    
    32   23   15 2    
    33   17   16 1    
    34   21   16 1    
    35   18   17 1    
    36   37   17 1    
    37   38   17 1    
    38   19   18 1    
    39   39   18 1    
    40   40   18 1    
    41   20   19 1    
    42   21   20 1    
    43   41   20 1    
    44   42   20 1    
    45   43   21 1    
    46   44   21 1    
    47   25   24 1    
    48   26   24 ar   
    49   54   25 1    
    50   55   25 1    
    51   56   25 1    
    52   27   26 ar   
    53   45   26 1    
    54   46   27 1    
    55   29   28 ar   
    56   30   29 ar   
    57   47   29 1    
    58   31   30 1    
    59   32   31 3    
@<TRIPOS>SUBSTRUCTURE
     1 T7Z1328     1 GROUP   
@<TRIPOS>SET

