#    Name: 1kq4_FAD_4_INTS_M
#    Modification time : Tue Mar 25 10:22:19 2014

@<TRIPOS>MOLECULE
1kq4_FAD_4_INTS_M
   78     0    12     0     0
SMALL
NO_CHARGES


@<TRIPOS>ATOM
      1 N          38.5035   43.2505  121.1310 N.am      2 SEC2        0.0000 
      2 N          39.9940   43.5450  121.4560 N.am     10 SEL2        0.0000 
      3 N          37.0130   42.9560  120.8060 N.am      6 SEP2        0.0000 
      4 N          40.8855   42.5860  122.2270 N.am      2 SEC2        0.0000 
      5 N          41.7770   41.6270  122.9980 N.am      6 SEP2        0.0000 
      6 NZ         39.0700   47.1905  120.3470 N.4       3 LYC4        0.0000 
      7 NZ         39.7280   46.0360  120.8960 N.4      11 LYL4        0.0000 
      8 NZ         39.1030   48.9600  118.8450 N.4       7 LYP4        0.0000 
      9 N          38.6515   45.6285  121.6910 N.am      2 SEC2        0.0000 
     10 N          39.7280   46.0360  120.8960 N.am     10 SEL2        0.0000 
     11 N          37.5750   45.2210  122.4860 N.am      6 SEP2        0.0000 
     12 N          39.0700   47.1905  120.3470 N.am      2 SEC2        0.0000 
     13 N          38.4120   48.3450  119.7980 N.am      6 SEP2        0.0000 
     14 CA         42.7350   41.7440  116.4425 C.3       4 GLC5        0.0000 
     15 CA         42.6230   43.3590  117.7100 C.3      12 GLL5        0.0000 
     16 CA         42.8470   40.1290  115.1750 C.3       8 GLP5        0.0000 
     17 CA         44.4860   46.7430  115.5930 C.3       4 GLC5        0.0000 
     18 CA         43.5270   45.0760  116.2340 C.3      12 GLL5        0.0000 
     19 CA         45.4450   48.4100  114.9520 C.3       8 GLP5        0.0000 
     20 CA         40.5390   50.1875  114.8845 C.3       4 GLC5        0.0000 
     21 CA         39.0490   48.6220  114.6520 C.3      12 GLL5        0.0000 
     22 CA         42.0290   51.7530  115.1170 C.3       8 GLP5        0.0000 
     23 N          39.9045   50.0300  112.7920 N.am      2 SEC2        0.0000 
     24 N          39.9930   49.1550  113.7620 N.am     10 SEL2        0.0000 
     25 N          39.8160   50.9050  111.8220 N.am      6 SEP2        0.0000 
     26 CA         41.6345   50.1770  114.3670 C.3       4 GLC5        0.0000 
     27 CA         41.2400   48.6010  113.6170 C.3      12 GLL5        0.0000 
     28 CA         39.9745   47.4190  112.8035 C.3       4 GLC5        0.0000 
     29 CA         38.7090   46.2370  111.9900 C.3       8 GLP5        0.0000 
     30 CA         43.0400   49.3705  113.3655 C.3       4 GLC5        0.0000 
     31 CA         44.8400   50.1400  113.1140 C.3       8 GLP5        0.0000 
     32 CA         41.6195   48.0825  111.6330 C.3       4 GLC5        0.0000 
     33 CA         41.9990   47.5640  109.6490 C.3       8 GLP5        0.0000 
     34 N          42.3575   53.4605  125.8165 N.am      2 SEC2        0.0000 
     35 N          43.9630   53.5870  125.6820 N.am     10 SEL2        0.0000 
     36 N          40.7520   53.3340  125.9510 N.am      6 SEP2        0.0000 
     37 N          41.8415   56.3205  124.7220 N.am      2 SEC2        0.0000 
     38 N          42.6100   55.0440  124.6670 N.am     10 SEL2        0.0000 
     39 N          41.0730   57.5970  124.7770 N.am      6 SEP2        0.0000 
     40 N          41.6810   54.1890  125.3090 N.am      2 SEC2        0.0000 
     41 N          41.7335   53.9505  124.1820 N.am      2 SEC2        0.0000 
     42 N          40.8570   52.8570  123.6970 N.am      6 SEP2        0.0000 
     43 O          43.7825   57.2265  126.0025 O.2       1 ALC1        0.0000 
     44 O          44.4350   55.9340  125.6260 O.2       9 ALL1        0.0000 
     45 O          43.1300   58.5190  126.3790 O.2       5 ALP1        0.0000 
     46 CA         52.1020   49.9960  130.1015 C.3       4 GLC5        0.0000 
     47 CA         50.3670   51.3490  129.8720 C.3      12 GLL5        0.0000 
     48 CA         53.8370   48.6430  130.3310 C.3       8 GLP5        0.0000 
     49 CA         49.2390   48.2995  130.8695 C.3       4 GLC5        0.0000 
     50 CA         48.6470   48.9340  129.1990 C.3      12 GLL5        0.0000 
     51 CA         49.8310   47.6650  132.5400 C.3       8 GLP5        0.0000 
     52 CA         43.5060   50.0725  121.9965 C.3       4 GLC5        0.0000 
     53 CA         43.3110   48.9180  123.7090 C.3      12 GLL5        0.0000 
     54 CA         43.7010   51.2270  120.2840 C.3       8 GLP5        0.0000 
     55 CA         40.7880   46.3170  123.9950 C.3       4 GLC5        0.0000 
     56 CA         42.4980   47.6210  123.6460 C.3      12 GLL5        0.0000 
     57 CA         39.0780   45.0130  124.3440 C.3       8 GLP5        0.0000 
     58 NZ         43.1930   47.8865  119.2565 N.4       3 LYC4        0.0000 
     59 NZ         42.6810   47.2320  120.3290 N.4      11 LYL4        0.0000 
     60 NZ         44.6050   48.2080  117.2680 N.4       7 LYP4        0.0000 
     61 N          43.1930   47.8865  119.2565 N.am      2 SEC2        0.0000 
     62 N          42.6810   47.2320  120.3290 N.am     10 SEL2        0.0000 
     63 N          43.7050   48.5410  118.1840 N.am      6 SEP2        0.0000 
     64 N          41.5410   47.9710  119.5155 N.am      2 SEC2        0.0000 
     65 N          40.4010   48.7100  118.7020 N.am      6 SEP2        0.0000 
     66 N          44.2330   44.1155  121.2825 N.am      2 SEC2        0.0000 
     67 N          44.3210   45.5380  120.9350 N.am     10 SEL2        0.0000 
     68 N          44.1450   42.6930  121.6300 N.am      6 SEP2        0.0000 
     69 CA         40.2680   42.7668  118.3713 C.3       4 GLC5        0.0000 
     70 CA         41.7990   43.1900  119.0290 C.3      12 GLL5        0.0000 
     71 CA         38.3250   42.2590  118.3730 C.3       8 GLP5        0.0000 
     72 CA         42.6608   43.5000  114.9062 C.3       4 GLC5        0.0000 
     73 CA         41.9300   45.0100  116.2530 C.3      12 GLL5        0.0000 
     74 CA         42.5930   41.9570  113.5690 C.3       8 GLP5        0.0000 
     75 CA         39.3476   46.8728  113.5541 C.3       4 GLC5        0.0000 
     76 CA         39.4040   47.4800  115.4210 C.3      12 GLL5        0.0000 
     77 CA         41.3667   48.7542  125.0023 C.3       4 GLC5        0.0000 
     78 CA         39.8290   49.2390  126.3270 C.3       8 GLP5        0.0000 
@<TRIPOS>BOND
@<TRIPOS>SUBSTRUCTURE
     1 ALC1       43 GROUP        1 X    ALC  0     ROOT ALC X 1
     2 SEC2        1 GROUP        1 X    SEC  0     **** SEC X 2
     3 LYC4        6 GROUP        1 X    LYC  0     **** LYC X 4
     4 GLC5       14 GROUP        1 X    GLC  0     **** GLC X 6
     5 ALP1       45 GROUP        1 Y    ALP  0     ROOT ALP Y 8
     6 SEP2        3 GROUP        1 Y    SEP  0     **** SEP Y 9
     7 LYP4        8 GROUP        1 Y    LYP  0     **** LYP Y 11
     8 GLP5       16 GROUP        1 Y    GLP  0     **** GLP Y 13
     9 ALL1       44 GROUP        1 Z    ALL  0     ROOT ALL Z 15
    10 SEL2        2 GROUP        1 Z    SEL  0     **** SEL Z 16
    11 LYL4        7 GROUP        1 Z    LYL  0     **** LYL Z 18
    12 GLL5       15 GROUP        1 Z    GLL  0     **** GLL Z 20
@<TRIPOS>SET

