#    Name: 1kq4_FAD_4_ligand
#    Modification time : Tue Mar 25 10:22:19 2014

@<TRIPOS>MOLECULE
1kq4_FAD_4_ligand
   84    89     1     0     0
SMALL
NO_CHARGES


@<TRIPOS>ATOM
      1 PA         40.5620   44.7690  120.8060 P.3       1 FAD300      0.0000 
      2 O1A        39.9940   43.5450  121.4560 O.co2     1 FAD300      0.0000 
      3 O2A        39.7280   46.0360  120.8960 O.co2     1 FAD300      0.0000 
      4 O5B        40.9570   44.4160  119.3790 O.3       1 FAD300      0.0000 
      5 C5B        41.7990   43.1900  119.0290 C.3       1 FAD300      0.0000 
      6 C4B        42.6230   43.3590  117.7100 C.3       1 FAD300      0.0000 
      7 O4B        41.6100   43.6900  116.7190 O.3       1 FAD300      0.0000 
      8 C3B        43.5530   44.5640  117.7180 C.3       1 FAD300      0.0000 
      9 O3B        44.8840   44.3990  118.2650 O.3       1 FAD300      0.0000 
     10 C2B        43.5270   45.0760  116.2340 C.3       1 FAD300      0.0000 
     11 O2B        44.4080   44.3680  115.3620 O.3       1 FAD300      0.0000 
     12 C1B        41.9300   45.0100  116.2530 C.3       1 FAD300      0.0000 
     13 N9A        40.8250   45.9050  116.0370 N.pl3     1 FAD300      0.0000 
     14 C8A        39.6110   45.8130  116.6940 C.2       1 FAD300      0.0000 
     15 N7A        38.7670   46.7170  116.3540 N.2       1 FAD300      0.0000 
     16 C5A        39.4040   47.4800  115.4210 C.ar      1 FAD300      0.0000 
     17 C6A        39.0490   48.6220  114.6520 C.ar      1 FAD300      0.0000 
     18 N6A        37.8260   49.1650  114.7900 N.pl3     1 FAD300      0.0000 
     19 N1A        39.9930   49.1550  113.7620 N.ar      1 FAD300      0.0000 
     20 C2A        41.2400   48.6010  113.6170 C.ar      1 FAD300      0.0000 
     21 N3A        41.6960   47.5090  114.2950 N.ar      1 FAD300      0.0000 
     22 C4A        40.7460   46.9660  115.2000 C.ar      1 FAD300      0.0000 
     23 N1         43.9630   53.5870  125.6820 N.2       1 FAD300      0.0000 
     24 C2         43.6320   54.8340  125.3040 C.2       1 FAD300      0.0000 
     25 O2         42.6100   55.0440  124.6670 O.2       1 FAD300      0.0000 
     26 N3         44.4350   55.9340  125.6260 N.am      1 FAD300      0.0000 
     27 C4         45.6310   55.8020  126.3610 C.2       1 FAD300      0.0000 
     28 O4         46.3040   56.8010  126.6200 O.2       1 FAD300      0.0000 
     29 C4X        45.9970   54.4510  126.7790 C.2       1 FAD300      0.0000 
     30 N5         47.1500   54.2350  127.5040 N.2       1 FAD300      0.0000 
     31 C5X        47.4800   52.9510  127.8910 C.ar      1 FAD300      0.0000 
     32 C6         48.6780   52.7790  128.6390 C.ar      1 FAD300      0.0000 
     33 C7         49.0840   51.4870  129.0780 C.ar      1 FAD300      0.0000 
     34 C7M        50.3670   51.3490  129.8720 C.3       1 FAD300      0.0000 
     35 C8         48.2580   50.3310  128.7540 C.ar      1 FAD300      0.0000 
     36 C8M        48.6470   48.9340  129.1990 C.3       1 FAD300      0.0000 
     37 C9         47.0620   50.5070  128.0040 C.ar      1 FAD300      0.0000 
     38 C9A        46.6460   51.8050  127.5560 C.ar      1 FAD300      0.0000 
     39 N10        45.4640   52.0410  126.8060 N.pl3     1 FAD300      0.0000 
     40 C10        45.1160   53.3500  126.4080 C.2       1 FAD300      0.0000 
     41 C1'        44.5700   50.9220  126.4330 C.3       1 FAD300      0.0000 
     42 C2'        45.0360   50.2470  125.1360 C.3       1 FAD300      0.0000 
     43 O2'        44.8670   51.1690  124.0410 O.3       1 FAD300      0.0000 
     44 C3'        44.1910   48.9650  124.9820 C.3       1 FAD300      0.0000 
     45 O3'        45.0820   47.8430  124.9410 O.3       1 FAD300      0.0000 
     46 C4'        43.3110   48.9180  123.7090 C.3       1 FAD300      0.0000 
     47 O4'        42.4100   50.0260  123.7300 O.3       1 FAD300      0.0000 
     48 C5'        42.4980   47.6210  123.6460 C.3       1 FAD300      0.0000 
     49 O5'        43.1770   46.6910  122.7090 O.3       1 FAD300      0.0000 
     50 P          43.0380   46.1770  121.2880 P.3       1 FAD300      0.0000 
     51 O1P        42.6810   47.2320  120.3290 O.co2     1 FAD300      0.0000 
     52 O2P        44.3210   45.5380  120.9350 O.co2     1 FAD300      0.0000 
     53 O3P        41.9410   45.1370  121.3960 O.3       1 FAD300      0.0000 
     54 H          41.1465   42.3171  118.9140 H         1 FAD300      0.0000 
     55 H          42.5002   42.9811  119.8448 H         1 FAD300      0.0000 
     56 H          43.1133   42.4859  117.4745 H         1 FAD300      0.0000 
     57 H          42.9956   45.3676  118.2764 H         1 FAD300      0.0000 
     58 H          43.7361   46.1496  116.3762 H         1 FAD300      0.0000 
     59 H          41.9330   44.5057  114.9256 H         1 FAD300      0.0000 
     60 H          39.4553   45.0819  117.3703 H         1 FAD300      0.0000 
     61 H          37.6498   49.9934  114.2582 H         1 FAD300      0.0000 
     62 H          37.2021   48.6919  115.4120 H         1 FAD300      0.0000 
     63 H          41.9044   49.0645  112.9162 H         1 FAD300      0.0000 
     64 H          44.1438   56.8820  125.3149 H         1 FAD300      0.0000 
     65 H          49.2549   53.5933  128.8643 H         1 FAD300      0.0000 
     66 H          46.4818   49.6928  127.7763 H         1 FAD300      0.0000 
     67 H          43.5466   51.2826  126.2843 H         1 FAD300      0.0000 
     68 H          44.5506   50.1666  127.2258 H         1 FAD300      0.0000 
     69 H          46.0597   49.9597  125.2730 H         1 FAD300      0.0000 
     70 H          43.5376   48.8830  125.8442 H         1 FAD300      0.0000 
     71 H          43.9591   48.9581  122.8537 H         1 FAD300      0.0000 
     72 H          41.5001   47.8534  123.2964 H         1 FAD300      0.0000 
     73 H          42.4491   47.1932  124.6393 H         1 FAD300      0.0000 
     74 H          51.1601   51.6713  129.3551 H         1 FAD300      0.0000 
     75 H          50.3367   51.8761  130.7213 H         1 FAD300      0.0000 
     76 H          50.5477   50.3982  130.1235 H         1 FAD300      0.0000 
     77 H          49.5337   48.6592  128.8272 H         1 FAD300      0.0000 
     78 H          48.7128   48.8662  130.1945 H         1 FAD300      0.0000 
     79 H          47.9802   48.2505  128.9021 H         1 FAD300      0.0000 
     80 H          44.8333   44.7800  119.1882 H         1 FAD300      0.0000 
     81 H          44.2145   44.7292  114.4498 H         1 FAD300      0.0000 
     82 H          43.9578   50.9715  123.6745 H         1 FAD300      0.0000 
     83 H          44.7090   47.2421  124.2340 H         1 FAD300      0.0000 
     84 H          41.8641   49.8998  124.5582 H         1 FAD300      0.0000 
@<TRIPOS>BOND
     1    2    1 ar   
     2    3    1 ar   
     3    4    1 1    
     4   53    1 1    
     5    5    4 1    
     6    6    5 1    
     7   54    5 1    
     8   55    5 1    
     9    7    6 1    
    10    8    6 1    
    11   56    6 1    
    12   12    7 1    
    13    9    8 1    
    14   10    8 1    
    15   57    8 1    
    16   80    9 1    
    17   11   10 1    
    18   12   10 1    
    19   58   10 1    
    20   81   11 1    
    21   13   12 1    
    22   59   12 1    
    23   14   13 1    
    24   22   13 1    
    25   15   14 2    
    26   60   14 1    
    27   16   15 1    
    28   17   16 ar   
    29   22   16 ar   
    30   18   17 1    
    31   19   17 ar   
    32   61   18 1    
    33   62   18 1    
    34   20   19 ar   
    35   21   20 ar   
    36   63   20 1    
    37   22   21 ar   
    38   24   23 1    
    39   40   23 2    
    40   25   24 2    
    41   26   24 am   
    42   27   26 am   
    43   64   26 1    
    44   28   27 2    
    45   29   27 1    
    46   30   29 2    
    47   40   29 1    
    48   31   30 1    
    49   32   31 ar   
    50   38   31 ar   
    51   33   32 ar   
    52   65   32 1    
    53   34   33 1    
    54   35   33 ar   
    55   74   34 1    
    56   75   34 1    
    57   76   34 1    
    58   36   35 1    
    59   37   35 ar   
    60   77   36 1    
    61   78   36 1    
    62   79   36 1    
    63   38   37 ar   
    64   66   37 1    
    65   39   38 1    
    66   40   39 1    
    67   41   39 1    
    68   42   41 1    
    69   67   41 1    
    70   68   41 1    
    71   43   42 1    
    72   44   42 1    
    73   69   42 1    
    74   82   43 1    
    75   45   44 1    
    76   46   44 1    
    77   70   44 1    
    78   83   45 1    
    79   47   46 1    
    80   48   46 1    
    81   71   46 1    
    82   84   47 1    
    83   49   48 1    
    84   72   48 1    
    85   73   48 1    
    86   50   49 1    
    87   51   50 ar   
    88   52   50 ar   
    89   53   50 1    
@<TRIPOS>SUBSTRUCTURE
     1 FAD300      1 GROUP   
@<TRIPOS>SET

