#    Name: 6nse_GGB_1_INTS_M
#    Modification time : Tue Mar 25 13:55:09 2014

@<TRIPOS>MOLECULE
6nse_GGB_1_INTS_M
   34     0    12     0     0
SMALL
NO_CHARGES


@<TRIPOS>ATOM
      1 OD1         6.7195   14.7600   34.6875 O.co2     3 ASC3        0.0000 
      2 OD1         7.8150   15.5580   35.2290 O.co2    11 ASL3        0.0000 
      3 OD1         5.6240   13.9620   34.1460 O.co2     7 ASP3        0.0000 
      4 O           6.7195   14.7600   34.6875 O.2       1 ALC1        0.0000 
      5 O           7.8150   15.5580   35.2290 O.2       9 ALL1        0.0000 
      6 O           5.6240   13.9620   34.1460 O.2       5 ALP1        0.0000 
      7 CA          7.1395   15.0385   30.8140 C.3       4 GLC5        0.0000 
      8 CA          8.1370   15.0070   32.8080 C.3      12 GLL5        0.0000 
      9 CA          6.1420   15.0700   28.8200 C.3       8 GLP5        0.0000 
     10 CA         10.4840   13.3705   31.8525 C.3       4 GLC5        0.0000 
     11 CA          8.8230   13.6510   33.0310 C.3      12 GLL5        0.0000 
     12 CA         12.1450   13.0900   30.6740 C.3       8 GLP5        0.0000 
     13 O           6.2850   13.3705   33.1045 O.2       1 ALC1        0.0000 
     14 O           6.9460   12.7790   32.0630 O.2       9 ALL1        0.0000 
     15 OD1         6.2850   13.3705   33.1045 O.co2     3 ASC3        0.0000 
     16 OD1         6.2370   11.9290   31.3000 O.co2    11 ASL3        0.0000 
     17 OD1         4.2520   12.5950   32.5430 O.co2     3 ASC3        0.0000 
     18 OD1         3.5860   13.2650   33.7100 O.co2     7 ASP3        0.0000 
     19 O           3.7255   11.6750   30.6290 O.2       1 ALC1        0.0000 
     20 O           4.9180   11.9250   31.3760 O.2       9 ALL1        0.0000 
     21 O           2.5330   11.4250   29.8820 O.2       5 ALP1        0.0000 
     22 O           4.2520   12.5950   32.5430 O.2       1 ALC1        0.0000 
     23 O           3.5860   13.2650   33.7100 O.2       5 ALP1        0.0000 
     24 N           6.0045   18.9690   34.3475 N.am      2 SEC2        0.0000 
     25 N           6.5730   17.6710   34.2050 N.am     10 SEL2        0.0000 
     26 N           5.4360   20.2670   34.4900 N.am      6 SEP2        0.0000 
     27 N           9.1740   17.8525   31.9290 N.am      2 SEC2        0.0000 
     28 N           8.0090   18.0380   32.5950 N.am     10 SEL2        0.0000 
     29 N          10.3390   17.6670   31.2630 N.am      6 SEP2        0.0000 
     30 N           6.9955   18.3855   31.6280 N.am      2 SEC2        0.0000 
     31 N           5.9820   18.7330   30.6610 N.am      6 SEP2        0.0000 
     32 CA          6.5340   16.2218   32.5108 C.3       4 GLC5        0.0000 
     33 CA          8.3310   16.0640   33.9210 C.3      12 GLL5        0.0000 
     34 CA          4.8340   16.9080   31.6570 C.3       8 GLP5        0.0000 
@<TRIPOS>BOND
@<TRIPOS>SUBSTRUCTURE
     1 ALC1        4 GROUP        1 X    ALC  0     ROOT ALC X 1
     2 SEC2       24 GROUP        1 X    SEC  0     **** SEC X 2
     3 ASC3        1 GROUP        1 X    ASC  0     **** ASC X 3
     4 GLC5        7 GROUP        1 X    GLC  0     **** GLC X 6
     5 ALP1        6 GROUP        1 Y    ALP  0     ROOT ALP Y 8
     6 SEP2       26 GROUP        1 Y    SEP  0     **** SEP Y 9
     7 ASP3        3 GROUP        1 Y    ASP  0     **** ASP Y 10
     8 GLP5        9 GROUP        1 Y    GLP  0     **** GLP Y 13
     9 ALL1        5 GROUP        1 Z    ALL  0     ROOT ALL Z 15
    10 SEL2       25 GROUP        1 Z    SEL  0     **** SEL Z 16
    11 ASL3        2 GROUP        1 Z    ASL  0     **** ASL Z 17
    12 GLL5        8 GROUP        1 Z    GLL  0     **** GLL Z 20
@<TRIPOS>SET

