#    Name: 6nse_GGB_1_ligand
#    Modification time : Tue Mar 25 13:55:09 2014

@<TRIPOS>MOLECULE
6nse_GGB_1_ligand
   25    24     1     0     0
SMALL
NO_CHARGES


@<TRIPOS>ATOM
      1 N           7.8150   15.5580   35.2290 N.4       1 GGB720      0.0000 
      2 CA          8.3310   16.0640   33.9210 C.3       1 GGB720      0.0000 
      3 CB          8.1370   15.0070   32.8080 C.3       1 GGB720      0.0000 
      4 CG          8.8230   13.6510   33.0310 C.3       1 GGB720      0.0000 
      5 C           7.5850   17.3500   33.5460 C.2       1 GGB720      0.0000 
      6 OD          8.2530   12.6010   32.2200 O.3       1 GGB720      0.0000 
      7 NE          6.9460   12.7790   32.0630 N.pl3     1 GGB720      0.0000 
      8 CZ          6.2370   11.9290   31.3000 C.cat     1 GGB720      0.0000 
      9 NH1         6.8300   11.0790   30.4810 N.pl3     1 GGB720      0.0000 
     10 NH2         4.9180   11.9250   31.3760 N.pl3     1 GGB720      0.0000 
     11 OA1         6.5730   17.6710   34.2050 O.co2     1 GGB720      0.0000 
     12 OA2         8.0090   18.0380   32.5950 O.co2     1 GGB720      0.0000 
     13 H           9.3780   16.2878   33.9995 H         1 GGB720      0.0000 
     14 H           8.4995   15.4373   31.8513 H         1 GGB720      0.0000 
     15 H           7.0484   14.8383   32.6731 H         1 GGB720      0.0000 
     16 H           8.7447   13.4114   34.1072 H         1 GGB720      0.0000 
     17 H           9.8989   13.7829   32.8150 H         1 GGB720      0.0000 
     18 H           6.4607   13.5800   32.5310 H         1 GGB720      0.0000 
     19 H           7.8279   11.1295   30.4415 H         1 GGB720      0.0000 
     20 H           6.2271   10.4622   29.9749 H         1 GGB720      0.0000 
     21 H           4.5097   12.6139   31.9749 H         1 GGB720      0.0000 
     22 H           4.4478   11.2334   30.8277 H         1 GGB720      0.0000 
     23 H           8.5225   15.0760   35.7460 H         1 GGB720      0.0000 
     24 H           7.4827   16.3012   35.8097 H         1 GGB720      0.0000 
     25 H           7.0551   14.9195   35.1065 H         1 GGB720      0.0000 
@<TRIPOS>BOND
     1    2    1 1    
     2   23    1 1    
     3   24    1 1    
     4   25    1 1    
     5    3    2 1    
     6    5    2 1    
     7   13    2 1    
     8    4    3 1    
     9   14    3 1    
    10   15    3 1    
    11    6    4 1    
    12   16    4 1    
    13   17    4 1    
    14   11    5 ar   
    15   12    5 ar   
    16    7    6 1    
    17    8    7 ar   
    18   18    7 1    
    19    9    8 ar   
    20   10    8 ar   
    21   19    9 1    
    22   20    9 1    
    23   21   10 1    
    24   22   10 1    
@<TRIPOS>SUBSTRUCTURE
     1 GGB720      1 GROUP   
@<TRIPOS>SET

