#    Name: 1z6x_GDP_1_INTS_M
#    Modification time : Tue Mar 25 11:33:04 2014

@<TRIPOS>MOLECULE
1z6x_GDP_1_INTS_M
   54     0    15     0     0
SMALL
NO_CHARGES


@<TRIPOS>ATOM
      1 Zn          5.2485  -16.1040  -11.4890 Zn        4 ZIC7        0.0000 
      2 Zn          5.9060  -15.7530  -12.5290 Zn       14 ZIL7        0.0000 
      3 Zn          4.5910  -16.4550  -10.4490 Zn        9 ZIP7        0.0000 
      4 N           6.6225  -14.5740  -12.3085 N.am      2 SEC2        0.0000 
      5 N           5.9060  -15.7530  -12.5290 N.am     12 SEL2        0.0000 
      6 N           7.3390  -13.3950  -12.0880 N.am      7 SEP2        0.0000 
      7 NZ          3.3065  -15.4085  -14.5150 N.4       3 LYC4        0.0000 
      8 NZ          4.5560  -15.6860  -14.5830 N.4      13 LYL4        0.0000 
      9 NZ          2.0570  -15.1310  -14.4470 N.4       8 LYP4        0.0000 
     10 N           5.5615  -15.3950  -15.8080 N.am      2 SEC2        0.0000 
     11 N           4.5560  -15.6860  -14.5830 N.am     12 SEL2        0.0000 
     12 N           6.5670  -15.1040  -17.0330 N.am      7 SEP2        0.0000 
     13 N           5.5455  -14.5470  -14.7625 N.am      2 SEC2        0.0000 
     14 N           6.5350  -13.4080  -14.9420 N.am      7 SEP2        0.0000 
     15 N           3.3065  -15.4085  -14.5150 N.am      2 SEC2        0.0000 
     16 N           2.0570  -15.1310  -14.4470 N.am      7 SEP2        0.0000 
     17 N           4.2980  -18.4345  -14.5010 N.am      2 SEC2        0.0000 
     18 N           4.8260  -17.8310  -13.3720 N.am     12 SEL2        0.0000 
     19 N           3.7700  -19.0380  -15.6300 N.am      7 SEP2        0.0000 
     20 N           9.6505  -14.6775  -13.4405 N.am      2 SEC2        0.0000 
     21 N           9.1560  -15.9790  -14.3500 N.am     12 SEL2        0.0000 
     22 N          10.1450  -13.3760  -12.5310 N.am      7 SEP2        0.0000 
     23 N          10.3970  -15.5565  -14.2450 N.am      2 SEC2        0.0000 
     24 N          11.6380  -15.1340  -14.1400 N.am      7 SEP2        0.0000 
     25 CA          6.8570  -18.9100  -16.2615 C.3       5 GLC5        0.0000 
     26 CA          8.6790  -18.5660  -16.1880 C.3      15 GLL5        0.0000 
     27 CA          5.0350  -19.2540  -16.3350 C.3      10 GLP5        0.0000 
     28 CA          8.2560  -16.5130  -16.4340 C.3       5 GLC5        0.0000 
     29 CA          7.8330  -14.4600  -16.6800 C.3      10 GLP5        0.0000 
     30 CA         10.1900  -18.1630  -19.1220 C.3       5 GLC5        0.0000 
     31 CA         11.6620  -18.5800  -17.5630 C.3      15 GLL5        0.0000 
     32 CA          8.7180  -17.7460  -20.6810 C.3      10 GLP5        0.0000 
     33 N          10.4355  -14.0065  -19.1355 N.am      2 SEC2        0.0000 
     34 N          11.5960  -15.0470  -18.4800 N.am     12 SEL2        0.0000 
     35 N           9.2750  -12.9660  -19.7910 N.am      7 SEP2        0.0000 
     36 CA         12.0570  -13.5800  -18.7515 C.3       5 GLC5        0.0000 
     37 CA         12.1780  -15.5540  -19.5790 C.3      15 GLL5        0.0000 
     38 CA         11.9360  -11.6060  -17.9240 C.3      10 GLP5        0.0000 
     39 N          11.4375  -13.6975  -22.3505 N.am      2 SEC2        0.0000 
     40 N          12.6520  -13.8050  -21.1030 N.am     12 SEL2        0.0000 
     41 N          10.2230  -13.5900  -23.5980 N.am      7 SEP2        0.0000 
     42 O          13.7460  -15.6325  -22.9250 O.2       1 ALC1        0.0000 
     43 O          13.2370  -15.8960  -21.7300 O.2      11 ALL1        0.0000 
     44 O          14.2550  -15.3690  -24.1200 O.2       6 ALP1        0.0000 
     45 O          14.0505  -16.7095  -23.2570 O.2       1 ALC1        0.0000 
     46 O          13.8460  -18.0500  -22.3940 O.2      11 ALL1        0.0000 
     47 O          14.7825  -17.5235  -23.2950 O.2       1 ALC1        0.0000 
     48 O          15.7190  -16.9970  -24.1960 O.2       6 ALP1        0.0000 
     49 CA         13.3985  -17.3388  -17.2473 C.3       5 GLC5        0.0000 
     50 CA         15.0210  -16.1110  -17.6810 C.3      10 GLP5        0.0000 
     51 CA         11.0898  -16.3152  -20.9068 C.3       5 GLC5        0.0000 
     52 CA         12.2810  -16.9970  -19.3640 C.3      15 GLL5        0.0000 
     53 CA          9.9500  -16.3550  -22.3420 C.3      10 GLP5        0.0000 
     54 CA         13.6253  -16.1932  -18.5763 C.3       5 GLC5        0.0000 
@<TRIPOS>BOND
@<TRIPOS>SUBSTRUCTURE
     1 ALC1       42 GROUP        1 X    ALC  0     ROOT ALC X 1
     2 SEC2        4 GROUP        1 X    SEC  0     **** SEC X 2
     3 LYC4        7 GROUP        1 X    LYC  0     **** LYC X 4
     4 ZIC7        1 GROUP        1 X    ZIC  0     **** ZIC X 5
     5 GLC5       25 GROUP        1 X    GLC  0     **** GLC X 6
     6 ALP1       44 GROUP        1 Y    ALP  0     ROOT ALP Y 8
     7 SEP2        6 GROUP        1 Y    SEP  0     **** SEP Y 9
     8 LYP4        9 GROUP        1 Y    LYP  0     **** LYP Y 11
     9 ZIP7        3 GROUP        1 Y    ZIP  0     **** ZIP Y 12
    10 GLP5       27 GROUP        1 Y    GLP  0     **** GLP Y 13
    11 ALL1       43 GROUP        1 Z    ALL  0     ROOT ALL Z 15
    12 SEL2        5 GROUP        1 Z    SEL  0     **** SEL Z 16
    13 LYL4        8 GROUP        1 Z    LYL  0     **** LYL Z 18
    14 ZIL7        2 GROUP        1 Z    ZIL  0     **** ZIL Z 19
    15 GLL5       26 GROUP        1 Z    GLL  0     **** GLL Z 20
@<TRIPOS>SET

