#    Name: 1z6x_GDP_1_ligand
#    Modification time : Tue Mar 25 11:33:04 2014

@<TRIPOS>MOLECULE
1z6x_GDP_1_ligand
   40    42     1     0     0
SMALL
NO_CHARGES


@<TRIPOS>ATOM
      1 PB          5.4940  -16.5270  -13.7570 P.3       1 GDP201      0.0000 
      2 O1B         5.9060  -15.7530  -12.5290 O.co2     1 GDP201      0.0000 
      3 O2B         4.5560  -15.6860  -14.5830 O.co2     1 GDP201      0.0000 
      4 O3B         4.8260  -17.8310  -13.3720 O.co2     1 GDP201      0.0000 
      5 O3A         6.7800  -16.8510  -14.6650 O.3       1 GDP201      0.0000 
      6 PA          8.2310  -17.1220  -14.0380 P.3       1 GDP201      0.0000 
      7 O1A         9.1560  -15.9790  -14.3500 O.co2     1 GDP201      0.0000 
      8 O2A         8.1200  -17.4110  -12.5580 O.co2     1 GDP201      0.0000 
      9 O5'         8.7470  -18.4360  -14.7790 O.3       1 GDP201      0.0000 
     10 C5'         8.6790  -18.5660  -16.1880 C.3       1 GDP201      0.0000 
     11 C4'         9.7650  -19.5420  -16.5800 C.3       1 GDP201      0.0000 
     12 O4'        10.3420  -19.0700  -17.7870 O.3       1 GDP201      0.0000 
     13 C3'        10.8750  -19.5540  -15.5470 C.3       1 GDP201      0.0000 
     14 O3'        11.4310  -20.8680  -15.4680 O.3       1 GDP201      0.0000 
     15 C2'        11.8900  -18.5530  -16.0640 C.3       1 GDP201      0.0000 
     16 O2'        13.2350  -18.9120  -15.7350 O.3       1 GDP201      0.0000 
     17 C1'        11.6620  -18.5800  -17.5630 C.3       1 GDP201      0.0000 
     18 N9         11.7600  -17.2320  -18.1640 N.pl3     1 GDP201      0.0000 
     19 C8         11.3410  -16.0710  -17.6310 C.2       1 GDP201      0.0000 
     20 N7         11.5960  -15.0470  -18.4800 N.2       1 GDP201      0.0000 
     21 C5         12.1780  -15.5540  -19.5790 C.2       1 GDP201      0.0000 
     22 C6         12.7060  -15.0260  -20.8550 C.2       1 GDP201      0.0000 
     23 O6         12.6520  -13.8050  -21.1030 O.2       1 GDP201      0.0000 
     24 N1         13.2370  -15.8960  -21.7300 N.am      1 GDP201      0.0000 
     25 C2         13.3000  -17.2210  -21.4770 C.2       1 GDP201      0.0000 
     26 N2         13.8460  -18.0500  -22.3940 N.pl3     1 GDP201      0.0000 
     27 N3         12.8410  -17.7670  -20.3260 N.2       1 GDP201      0.0000 
     28 C4         12.2810  -16.9970  -19.3640 C.2       1 GDP201      0.0000 
     29 H           8.8676  -17.6250  -16.6958 H         1 GDP201      0.0000 
     30 H           7.7254  -18.9678  -16.5167 H         1 GDP201      0.0000 
     31 H           9.3632  -20.5105  -16.6837 H         1 GDP201      0.0000 
     32 H          10.4828  -19.2061  -14.6281 H         1 GDP201      0.0000 
     33 H          11.6101  -17.5841  -15.7096 H         1 GDP201      0.0000 
     34 H          12.3869  -19.2347  -18.0086 H         1 GDP201      0.0000 
     35 H          10.9135  -15.9741  -16.7576 H         1 GDP201      0.0000 
     36 H          13.6188  -15.5347  -22.6475 H         1 GDP201      0.0000 
     37 H          14.2270  -17.6143  -23.2095 H         1 GDP201      0.0000 
     38 H          13.8206  -19.0255  -22.1757 H         1 GDP201      0.0000 
     39 H          12.3891  -20.7599  -15.7334 H         1 GDP201      0.0000 
     40 H          13.7951  -18.5063  -16.4573 H         1 GDP201      0.0000 
@<TRIPOS>BOND
     1    2    1 ar   
     2    3    1 ar   
     3    4    1 ar   
     4    5    1 1    
     5    6    5 1    
     6    7    6 ar   
     7    8    6 ar   
     8    9    6 1    
     9   10    9 1    
    10   11   10 1    
    11   29   10 1    
    12   30   10 1    
    13   12   11 1    
    14   13   11 1    
    15   31   11 1    
    16   17   12 1    
    17   14   13 1    
    18   15   13 1    
    19   32   13 1    
    20   39   14 1    
    21   16   15 1    
    22   17   15 1    
    23   33   15 1    
    24   40   16 1    
    25   18   17 1    
    26   34   17 1    
    27   19   18 1    
    28   28   18 1    
    29   20   19 2    
    30   35   19 1    
    31   21   20 1    
    32   22   21 1    
    33   28   21 2    
    34   23   22 2    
    35   24   22 am   
    36   25   24 1    
    37   36   24 1    
    38   26   25 1    
    39   27   25 2    
    40   37   26 1    
    41   38   26 1    
    42   28   27 1    
@<TRIPOS>SUBSTRUCTURE
     1 GDP201      1 GROUP   
@<TRIPOS>SET

