#    Name: 1w96_S1A_1_INTS_M
#    Modification time : Tue Mar 25 08:50:12 2014

@<TRIPOS>MOLECULE
1w96_S1A_1_INTS_M
   91     0     9     0     0
SMALL
NO_CHARGES


@<TRIPOS>ATOM
      1 CA         16.4900   28.8395  114.6370 C.3       3 GLC5        0.0000 
      2 CA         15.8690   27.0470  113.7130 C.3       9 GLL5        0.0000 
      3 CA         17.1110   30.6320  115.5610 C.3       6 GLP5        0.0000 
      4 CA         18.4720   26.8525  112.8090 C.3       3 GLC5        0.0000 
      5 CA         16.9020   25.8850  113.4930 C.3       9 GLL5        0.0000 
      6 CA         20.0420   27.8200  112.1250 C.3       6 GLP5        0.0000 
      7 CA         17.7020   23.0650  113.7085 C.3       3 GLC5        0.0000 
      8 CA         16.1840   24.5490  113.2420 C.3       9 GLL5        0.0000 
      9 CA         19.2200   21.5810  114.1750 C.3       6 GLP5        0.0000 
     10 CA         15.2115   22.8670  118.8670 C.3       3 GLC5        0.0000 
     11 CA         13.0680   22.2160  118.7790 C.3       9 GLL5        0.0000 
     12 CA         17.3550   23.5180  118.9550 C.3       6 GLP5        0.0000 
     13 CA         11.8645   22.1685  120.2430 C.3       3 GLC5        0.0000 
     14 CA         10.6610   22.1210  121.7070 C.3       6 GLP5        0.0000 
     15 CA         15.3200   24.2850  118.6050 C.3       3 GLC5        0.0000 
     16 CA         13.5800   23.6610  118.8340 C.3       9 GLL5        0.0000 
     17 CA         17.0600   24.9090  118.3760 C.3       6 GLP5        0.0000 
     18 CA         12.6020   23.2895  120.5525 C.3       3 GLC5        0.0000 
     19 CA         11.6240   22.9180  122.2710 C.3       6 GLP5        0.0000 
     20 CA         15.0135   25.4985  118.6975 C.3       3 GLC5        0.0000 
     21 CA         12.9670   26.0880  119.0190 C.3       9 GLL5        0.0000 
     22 CA         11.6970   27.8370  120.8770 C.3       3 GLC5        0.0000 
     23 CA         11.8250   27.0920  118.9590 C.3       9 GLL5        0.0000 
     24 CA         11.5690   28.5820  122.7950 C.3       6 GLP5        0.0000 
     25 CA         15.6030   29.8375  115.3275 C.3       3 GLC5        0.0000 
     26 CA         14.0950   29.0430  115.0940 C.3       9 GLL5        0.0000 
     27 CA         13.7935   30.9725  114.8510 C.3       3 GLC5        0.0000 
     28 CA         13.4920   32.9020  114.6080 C.3       6 GLP5        0.0000 
     29 CA         16.5940   29.5905  113.7305 C.3       3 GLC5        0.0000 
     30 CA         16.0770   28.5490  111.9000 C.3       9 GLL5        0.0000 
     31 CA         18.0595   28.1845  112.0125 C.3       3 GLC5        0.0000 
     32 CA         15.7160   22.8915  110.6785 C.3       3 GLC5        0.0000 
     33 CA         15.5460   24.5410  111.8500 C.3       9 GLL5        0.0000 
     34 CA         15.8860   21.2420  109.5070 C.3       6 GLP5        0.0000 
     35 CA         15.9065   20.3205  115.2110 C.3       3 GLC5        0.0000 
     36 CA         15.3650   21.8070  114.1170 C.3       9 GLL5        0.0000 
     37 CA         16.4480   18.8340  116.3050 C.3       6 GLP5        0.0000 
     38 CA         17.2925   21.6940  114.1460 C.3       3 GLC5        0.0000 
     39 CA         16.0965   21.1290  112.2660 C.3       3 GLC5        0.0000 
     40 CA         16.8280   20.4510  110.4150 C.3       6 GLP5        0.0000 
     41 CA         12.6645   19.3400  117.0060 C.3       3 GLC5        0.0000 
     42 CA         10.8780   20.4620  116.3770 C.3       9 GLL5        0.0000 
     43 CA         14.4510   18.2180  117.6350 C.3       6 GLP5        0.0000 
     44 CA         14.8810   21.4145  122.2660 C.3       3 GLC5        0.0000 
     45 CA         14.3920   21.1940  120.4480 C.3       9 GLL5        0.0000 
     46 CA         15.3700   21.6350  124.0840 C.3       6 GLP5        0.0000 
     47 CA         15.1180   19.3160  120.8485 C.3       3 GLC5        0.0000 
     48 CA         15.8440   17.4380  121.2490 C.3       6 GLP5        0.0000 
     49 CA         15.8735   22.3560  119.7015 C.3       3 GLC5        0.0000 
     50 CA         14.4215   19.7060  119.0415 C.3       3 GLC5        0.0000 
     51 CA         13.0080   22.0560  121.3595 C.3       3 GLC5        0.0000 
     52 CA         10.4210   32.5160  119.1115 C.3       3 GLC5        0.0000 
     53 CA          9.9010   30.8970  118.1430 C.3       9 GLL5        0.0000 
     54 CA         10.9410   34.1350  120.0800 C.3       6 GLP5        0.0000 
     55 CA          7.4440   31.7925  119.6070 C.3       3 GLC5        0.0000 
     56 CA          8.5380   30.6230  118.2310 C.3       9 GLL5        0.0000 
     57 CA          6.3500   32.9620  120.9830 C.3       6 GLP5        0.0000 
     58 CA          7.7520   32.2425  117.2925 C.3       3 GLC5        0.0000 
     59 CA          6.9660   33.8620  116.3540 C.3       6 GLP5        0.0000 
     60 CA          6.2340   29.2145  119.0545 C.3       3 GLC5        0.0000 
     61 CA          8.0690   29.3230  118.0180 C.3       9 GLL5        0.0000 
     62 CA          4.3990   29.1060  120.0910 C.3       6 GLP5        0.0000 
     63 N          18.2840   24.5930  115.1700 N.am      2 SEC2        0.0000 
     64 N          17.7640   25.7600  114.6300 N.am      8 SEL2        0.0000 
     65 N          18.8040   23.4260  115.7100 N.am      5 SEP2        0.0000 
     66 O          18.4300   26.8045  115.0755 O.2       1 ALC1        0.0000 
     67 O          17.7640   25.7600  114.6300 O.2       7 ALL1        0.0000 
     68 O          19.0960   27.8490  115.5210 O.2       4 ALP1        0.0000 
     69 N          12.0775   19.6025  118.4140 N.am      2 SEC2        0.0000 
     70 N          11.8630   20.6000  117.4350 N.am      8 SEL2        0.0000 
     71 N          12.2920   18.6050  119.3930 N.am      5 SEP2        0.0000 
     72 N          13.2170   19.9525  119.2090 N.am      2 SEC2        0.0000 
     73 N          14.1420   21.3000  119.0250 N.am      8 SEL2        0.0000 
     74 CA         13.7363   20.1516  117.7256 C.3       3 GLC5        0.0000 
     75 CA         12.4390   21.9120  117.4080 C.3       9 GLL5        0.0000 
     76 CA         13.7490   27.8500  119.3860 C.3       3 GLC5        0.0000 
     77 CA         15.1020   29.1100  119.7830 C.3       6 GLP5        0.0000 
     78 CA         11.3589   25.5980  120.2660 C.3       3 GLC5        0.0000 
     79 CA         10.4420   24.9520  121.6330 C.3       6 GLP5        0.0000 
     80 CA         10.3202   29.7437  119.7080 C.3       3 GLC5        0.0000 
     81 CA         10.3240   28.5630  117.6260 C.3       9 GLL5        0.0000 
     82 CA         10.0820   30.2700  121.6820 C.3       6 GLP5        0.0000 
     83 CA          9.9340   30.4348  116.4038 C.3       3 GLC5        0.0000 
     84 CA         10.7930   29.8720  117.8420 C.3       9 GLL5        0.0000 
     85 CA          9.5210   30.4850  114.8150 C.3       6 GLP5        0.0000 
     86 CA          8.9123   30.2290  116.4698 C.3       3 GLC5        0.0000 
     87 CA          8.0735   27.3098  118.9890 C.3       3 GLC5        0.0000 
     88 CA          7.6310   25.8110  120.1100 C.3       6 GLP5        0.0000 
     89 CA          9.3631   30.1558  119.8922 C.3       3 GLC5        0.0000 
     90 CA          9.7081   29.3117  116.2332 C.3       3 GLC5        0.0000 
     91 CA          8.9630   28.2940  117.7180 C.3       9 GLL5        0.0000 
@<TRIPOS>BOND
@<TRIPOS>SUBSTRUCTURE
     1 ALC1       66 GROUP        1 X    ALC  0     ROOT ALC X 1
     2 SEC2       63 GROUP        1 X    SEC  0     **** SEC X 2
     3 GLC5        1 GROUP        1 X    GLC  0     **** GLC X 6
     4 ALP1       68 GROUP        1 Y    ALP  0     ROOT ALP Y 8
     5 SEP2       65 GROUP        1 Y    SEP  0     **** SEP Y 9
     6 GLP5        3 GROUP        1 Y    GLP  0     **** GLP Y 13
     7 ALL1       67 GROUP        1 Z    ALL  0     ROOT ALL Z 15
     8 SEL2       64 GROUP        1 Z    SEL  0     **** SEL Z 16
     9 GLL5        2 GROUP        1 Z    GLL  0     **** GLL Z 20
@<TRIPOS>SET

