#    Name: 1w96_S1A_1_ligand
#    Modification time : Tue Mar 25 08:50:12 2014

@<TRIPOS>MOLECULE
1w96_S1A_1_ligand
   81    83     1     0     0
SMALL
NO_CHARGES


@<TRIPOS>ATOM
      1 C1         12.4590   27.2090  115.5470 C.2       1 S1A1567     0.0000 
      2 C2         13.5850   27.6850  114.6350 C.3       1 S1A1567     0.0000 
      3 C3         14.7140   26.6270  114.6790 C.3       1 S1A1567     0.0000 
      4 C4         15.8690   27.0470  113.7130 C.3       1 S1A1567     0.0000 
      5 C5         16.9020   25.8850  113.4930 C.3       1 S1A1567     0.0000 
      6 C6         16.1840   24.5490  113.2420 C.3       1 S1A1567     0.0000 
      7 C7         15.1240   24.3230  114.3330 C.3       1 S1A1567     0.0000 
      8 C8         14.3960   22.9840  114.1090 C.3       1 S1A1567     0.0000 
      9 C9         13.2960   22.8050  115.1880 C.2       1 S1A1567     0.0000 
     10 C10        13.5110   21.9970  116.2990 C.2       1 S1A1567     0.0000 
     11 C11        12.4390   21.9120  117.4080 C.3       1 S1A1567     0.0000 
     12 C12        13.0680   22.2160  118.7790 C.3       1 S1A1567     0.0000 
     13 C13        13.5800   23.6610  118.8340 C.3       1 S1A1567     0.0000 
     14 C14        12.4860   24.7040  118.6590 C.3       1 S1A1567     0.0000 
     15 C15        12.9670   26.0880  119.0190 C.3       1 S1A1567     0.0000 
     16 C16        11.8250   27.0920  118.9590 C.3       1 S1A1567     0.0000 
     17 C17        11.3310   27.4030  117.5440 C.3       1 S1A1567     0.0000 
     18 C19        14.0950   29.0430  115.0940 C.3       1 S1A1567     0.0000 
     19 C20        16.0770   28.5490  111.9000 C.3       1 S1A1567     0.0000 
     20 C21        15.5460   24.5410  111.8500 C.3       1 S1A1567     0.0000 
     21 C22        15.3650   21.8070  114.1170 C.3       1 S1A1567     0.0000 
     22 C23        10.8780   20.4620  116.3770 C.3       1 S1A1567     0.0000 
     23 C24        14.3920   21.1940  120.4480 C.3       1 S1A1567     0.0000 
     24 C25        10.3240   28.5630  117.6260 C.ar      1 S1A1567     0.0000 
     25 C26        10.7930   29.8720  117.8420 C.ar      1 S1A1567     0.0000 
     26 C27         9.9010   30.8970  118.1430 C.ar      1 S1A1567     0.0000 
     27 C28         8.5380   30.6230  118.2310 C.ar      1 S1A1567     0.0000 
     28 C29         8.0690   29.3230  118.0180 C.ar      1 S1A1567     0.0000 
     29 C30         8.9630   28.2940  117.7180 C.ar      1 S1A1567     0.0000 
     30 O1         11.5750   26.3450  115.3440 O.2       1 S1A1567     0.0000 
     31 O3         15.2160   26.5260  116.0160 O.3       1 S1A1567     0.0000 
     32 O4         15.3150   27.4450  112.4540 O.3       1 S1A1567     0.0000 
     33 O5         17.7640   25.7600  114.6300 O.3       1 S1A1567     0.0000 
     34 O7         14.1570   25.3740  114.2690 O.3       1 S1A1567     0.0000 
     35 O11        11.8630   20.6000  117.4350 O.3       1 S1A1567     0.0000 
     36 O12        14.1420   21.3000  119.0250 O.3       1 S1A1567     0.0000 
     37 O18        12.4480   27.7970  116.7310 O.3       1 S1A1567     0.0000 
     38 H          13.2192   27.7504  113.6337 H         1 S1A1567     0.0000 
     39 H          16.4008   27.8679  114.1792 H         1 S1A1567     0.0000 
     40 H          17.4697   26.1293  112.6007 H         1 S1A1567     0.0000 
     41 H          16.9108   23.7555  113.2998 H         1 S1A1567     0.0000 
     42 H          15.6095   24.2900  115.2831 H         1 S1A1567     0.0000 
     43 H          13.9018   23.0274  113.1423 H         1 S1A1567     0.0000 
     44 H          12.4375   23.3103  115.0187 H         1 S1A1567     0.0000 
     45 H          14.3370   21.4447  116.4430 H         1 S1A1567     0.0000 
     46 H          11.6936   22.6636  117.2098 H         1 S1A1567     0.0000 
     47 H          12.2909   22.1081  119.5274 H         1 S1A1567     0.0000 
     48 H          14.3389   23.7969  118.0479 H         1 S1A1567     0.0000 
     49 H          14.0818   23.8213  119.8009 H         1 S1A1567     0.0000 
     50 H          11.6333   24.4364  119.2932 H         1 S1A1567     0.0000 
     51 H          12.1469   24.6939  117.6169 H         1 S1A1567     0.0000 
     52 H          13.7504   26.3962  118.3238 H         1 S1A1567     0.0000 
     53 H          13.3832   26.0804  120.0283 H         1 S1A1567     0.0000 
     54 H          12.1477   28.0342  119.4366 H         1 S1A1567     0.0000 
     55 H          10.9768   26.7094  119.5542 H         1 S1A1567     0.0000 
     56 H          10.8334   26.5470  117.1581 H         1 S1A1567     0.0000 
     57 H          11.8001   30.0650  117.7756 H         1 S1A1567     0.0000 
     58 H          10.2452   31.8506  118.2995 H         1 S1A1567     0.0000 
     59 H           7.8746   31.3754  118.4525 H         1 S1A1567     0.0000 
     60 H           7.0625   29.1257  118.0828 H         1 S1A1567     0.0000 
     61 H           8.6137   27.3405  117.5659 H         1 S1A1567     0.0000 
     62 H          14.4528   29.0093  116.0272 H         1 S1A1567     0.0000 
     63 H          14.8329   29.3797  114.5091 H         1 S1A1567     0.0000 
     64 H          13.3727   29.7345  115.0818 H         1 S1A1567     0.0000 
     65 H          17.0337   28.3007  111.7483 H         1 S1A1567     0.0000 
     66 H          15.7091   28.8496  111.0201 H         1 S1A1567     0.0000 
     67 H          16.0731   29.3442  112.5064 H         1 S1A1567     0.0000 
     68 H          16.2270   24.6672  111.1286 H         1 S1A1567     0.0000 
     69 H          15.0760   23.6786  111.6618 H         1 S1A1567     0.0000 
     70 H          14.8708   25.2714  111.7467 H         1 S1A1567     0.0000 
     71 H          16.0573   21.8910  113.4003 H         1 S1A1567     0.0000 
     72 H          15.8517   21.7325  114.9874 H         1 S1A1567     0.0000 
     73 H          14.8941   20.9373  113.9691 H         1 S1A1567     0.0000 
     74 H          11.2816   20.6036  115.4731 H         1 S1A1567     0.0000 
     75 H          10.4621   19.5526  116.3731 H         1 S1A1567     0.0000 
     76 H          10.1346   21.1239  116.4730 H         1 S1A1567     0.0000 
     77 H          15.1371   20.5577  120.6478 H         1 S1A1567     0.0000 
     78 H          14.6442   22.0754  120.8474 H         1 S1A1567     0.0000 
     79 H          13.5869   20.8674  120.9432 H         1 S1A1567     0.0000 
     80 H          16.1660   26.2308  115.9140 H         1 S1A1567     0.0000 
     81 H          18.1781   26.6634  114.7412 H         1 S1A1567     0.0000 
@<TRIPOS>BOND
     1    2    1 1    
     2   30    1 2    
     3   37    1 1    
     4    3    2 1    
     5   18    2 1    
     6   38    2 1    
     7    4    3 1    
     8   31    3 1    
     9   34    3 1    
    10    5    4 1    
    11   32    4 1    
    12   39    4 1    
    13    6    5 1    
    14   33    5 1    
    15   40    5 1    
    16    7    6 1    
    17   20    6 1    
    18   41    6 1    
    19    8    7 1    
    20   34    7 1    
    21   42    7 1    
    22    9    8 1    
    23   21    8 1    
    24   43    8 1    
    25   10    9 2    
    26   44    9 1    
    27   11   10 1    
    28   45   10 1    
    29   12   11 1    
    30   35   11 1    
    31   46   11 1    
    32   13   12 1    
    33   36   12 1    
    34   47   12 1    
    35   14   13 1    
    36   48   13 1    
    37   49   13 1    
    38   15   14 1    
    39   50   14 1    
    40   51   14 1    
    41   16   15 1    
    42   52   15 1    
    43   53   15 1    
    44   17   16 1    
    45   54   16 1    
    46   55   16 1    
    47   24   17 1    
    48   37   17 1    
    49   56   17 1    
    50   62   18 1    
    51   63   18 1    
    52   64   18 1    
    53   32   19 1    
    54   65   19 1    
    55   66   19 1    
    56   67   19 1    
    57   68   20 1    
    58   69   20 1    
    59   70   20 1    
    60   71   21 1    
    61   72   21 1    
    62   73   21 1    
    63   35   22 1    
    64   74   22 1    
    65   75   22 1    
    66   76   22 1    
    67   36   23 1    
    68   77   23 1    
    69   78   23 1    
    70   79   23 1    
    71   25   24 ar   
    72   29   24 ar   
    73   26   25 ar   
    74   57   25 1    
    75   27   26 ar   
    76   58   26 1    
    77   28   27 ar   
    78   59   27 1    
    79   29   28 ar   
    80   60   28 1    
    81   61   29 1    
    82   80   31 1    
    83   81   33 1    
@<TRIPOS>SUBSTRUCTURE
     1 S1A1567     1 GROUP   
@<TRIPOS>SET

