#    Name: 4lsl_1YQ_1_INTS_M
#    Modification time : Tue Apr  8 00:08:08 2014

@<TRIPOS>MOLECULE
4lsl_1YQ_1_INTS_M
   68     0     6     0     0
SMALL
NO_CHARGES


@<TRIPOS>ATOM
      1 CA        495.3835  -25.5595   18.2375 C.3       2 GLC5        0.0000 
      2 CA        495.2110  -23.6290   19.3730 C.3       6 GLL5        0.0000 
      3 CA        495.5560  -27.4900   17.1020 C.3       4 GLP5        0.0000 
      4 CA        498.9970  -22.1680   22.0645 C.3       2 GLC5        0.0000 
      5 CA        497.6690  -22.8040   20.4460 C.3       6 GLL5        0.0000 
      6 CA        500.3250  -21.5320   23.6830 C.3       4 GLP5        0.0000 
      7 CA        495.1455  -24.2365   16.1655 C.3       2 GLC5        0.0000 
      8 CA        495.6790  -22.5440   16.9660 C.3       6 GLL5        0.0000 
      9 CA        494.6120  -25.9290   15.3650 C.3       4 GLP5        0.0000 
     10 CA        496.9035  -22.4330   15.8360 C.3       2 GLC5        0.0000 
     11 CA        498.1280  -22.3220   14.7060 C.3       4 GLP5        0.0000 
     12 CA        495.5385  -20.8030   17.9370 C.3       2 GLC5        0.0000 
     13 CA        495.3980  -19.0620   18.9080 C.3       4 GLP5        0.0000 
     14 CA        498.6730  -21.0120   27.0710 C.3       2 GLC5        0.0000 
     15 CA        497.7720  -22.5160   27.3340 C.3       6 GLL5        0.0000 
     16 CA        499.5740  -19.5080   26.8080 C.3       4 GLP5        0.0000 
     17 CA        497.2225  -21.7850   28.9530 C.3       2 GLC5        0.0000 
     18 CA        496.6730  -21.0540   30.5720 C.3       4 GLP5        0.0000 
     19 CA        495.7175  -26.2180   21.9055 C.3       2 GLC5        0.0000 
     20 CA        494.2110  -24.9690   22.6240 C.3       6 GLL5        0.0000 
     21 CA        497.2240  -27.4670   21.1870 C.3       4 GLP5        0.0000 
     22 CA        491.7695  -26.6140   23.4980 C.3       2 GLC5        0.0000 
     23 CA        493.2240  -26.1320   22.8000 C.3       6 GLL5        0.0000 
     24 CA        490.3150  -27.0960   24.1960 C.3       4 GLP5        0.0000 
     25 CA        496.9225  -28.2935   23.1495 C.3       2 GLC5        0.0000 
     26 CA        495.4640  -28.7400   24.1990 C.3       6 GLL5        0.0000 
     27 CA        498.3810  -27.8470   22.1000 C.3       4 GLP5        0.0000 
     28 CA        494.2530  -30.3800   24.0765 C.3       2 GLC5        0.0000 
     29 CA        493.0420  -32.0200   23.9540 C.3       4 GLP5        0.0000 
     30 CA        495.9860  -27.5315   22.6120 C.3       2 GLC5        0.0000 
     31 CA        494.7480  -27.5960   24.0370 C.3       6 GLL5        0.0000 
     32 CA        494.1725  -27.0275   26.0720 C.3       2 GLC5        0.0000 
     33 CA        493.5970  -26.4590   28.1070 C.3       4 GLP5        0.0000 
     34 CA        492.5315  -27.3460   24.1165 C.3       2 GLC5        0.0000 
     35 N         493.2405  -28.2470   19.2030 N.am      1 SEC2        0.0000 
     36 N         493.2090  -28.2360   20.8560 N.am      5 SEL2        0.0000 
     37 N         493.2720  -28.2580   17.5500 N.am      3 SEP2        0.0000 
     38 CA        500.1938  -24.3418   27.5145 C.3       2 GLC5        0.0000 
     39 CA        498.5450  -23.5330   27.7370 C.3       6 GLL5        0.0000 
     40 CA        501.4350  -25.1880   26.7000 C.3       4 GLP5        0.0000 
     41 CA        500.0823  -22.3287   27.8420 C.3       2 GLC5        0.0000 
     42 CA        501.2120  -21.1620   27.3550 C.3       4 GLP5        0.0000 
     43 CA        497.7157  -22.9542   29.7505 C.3       2 GLC5        0.0000 
     44 CA        499.3600  -23.4580   28.9210 C.3       6 GLL5        0.0000 
     45 CA        496.4790  -22.4130   31.1720 C.3       4 GLP5        0.0000 
     46 CA        497.5125  -21.4473   17.4477 C.3       2 GLC5        0.0000 
     47 CA        497.3550  -22.4850   19.1120 C.3       6 GLL5        0.0000 
     48 CA        498.2880  -20.2000   16.0480 C.3       4 GLP5        0.0000 
     49 CA        498.6810  -24.1327   18.8605 C.3       2 GLC5        0.0000 
     50 CA        499.8500  -25.6210   17.9420 C.3       4 GLP5        0.0000 
     51 CA        496.6760  -25.6092   21.0898 C.3       2 GLC5        0.0000 
     52 CA        496.7630  -23.5360   21.2700 C.3       6 GLL5        0.0000 
     53 CA        497.9620  -24.8813   23.6112 C.3       2 GLC5        0.0000 
     54 CA        496.8450  -22.9650   23.6100 C.3       6 GLL5        0.0000 
     55 CA        498.7640  -26.6780   22.9910 C.3       4 GLP5        0.0000 
     56 CA        498.3518  -21.9817   23.6197 C.3       2 GLC5        0.0000 
     57 CA        494.0160  -21.8218   23.9258 C.3       2 GLC5        0.0000 
     58 CA        495.9120  -21.8980   23.5030 C.3       6 GLL5        0.0000 
     59 CA        492.2660  -22.1520   23.7900 C.3       4 GLP5        0.0000 
     60 CA        498.8277  -22.1633   24.5527 C.3       2 GLC5        0.0000 
     61 CA        497.1860  -22.3850   25.9920 C.3       6 GLL5        0.0000 
     62 CA        495.8026  -23.3390   26.5778 C.3       2 GLC5        0.0000 
     63 CA        497.4750  -23.2040   24.8530 C.3       6 GLL5        0.0000 
     64 CA        494.5060  -24.1450   27.7700 C.3       4 GLP5        0.0000 
     65 CA        496.3322  -23.5847   27.6527 C.3       2 GLC5        0.0000 
     66 CA        492.9918  -23.8513   23.2510 C.3       2 GLC5        0.0000 
     67 CA        496.3790  -28.3275   25.6355 C.3       2 GLC5        0.0000 
     68 CA        497.6520  -28.4870   27.1530 C.3       4 GLP5        0.0000 
@<TRIPOS>BOND
@<TRIPOS>SUBSTRUCTURE
     1 SEC2       35 GROUP        1 X    SEC  0     ROOT SEC X 2
     2 GLC5        1 GROUP        1 X    GLC  0     **** GLC X 6
     3 SEP2       37 GROUP        1 Y    SEP  0     ROOT SEP Y 9
     4 GLP5        3 GROUP        1 Y    GLP  0     **** GLP Y 13
     5 SEL2       36 GROUP        1 Z    SEL  0     ROOT SEL Z 16
     6 GLL5        2 GROUP        1 Z    GLL  0     **** GLL Z 20
@<TRIPOS>SET

