#    Name: 4lsl_1YQ_1_ligand
#    Modification time : Tue Apr  8 00:08:09 2014

@<TRIPOS>MOLECULE
4lsl_1YQ_1_ligand
   45    47     1     0     0
SMALL
NO_CHARGES


@<TRIPOS>ATOM
      1 O12       496.0170  -30.8450   23.2100 O.2       1 1YQ601      0.0000 
      2 C17       499.3600  -23.4580   28.9210 C.1       1 1YQ601      0.0000 
      3 C00       495.2110  -23.6290   19.3730 C.ar      1 1YQ601      0.0000 
      4 C01       496.1190  -22.9040   18.5830 C.ar      1 1YQ601      0.0000 
      5 C02       497.3550  -22.4850   19.1120 C.ar      1 1YQ601      0.0000 
      6 C03       497.6690  -22.8040   20.4460 C.ar      1 1YQ601      0.0000 
      7 C04       496.7630  -23.5360   21.2700 C.ar      1 1YQ601      0.0000 
      8 C05       495.4930  -23.9670   20.7150 C.ar      1 1YQ601      0.0000 
      9 CL1       495.6790  -22.5440   16.9660 Cl        1 1YQ601      0.0000 
     10 O0A       497.1700  -23.7970   22.5640 O.3       1 1YQ601      0.0000 
     11 O0B       494.4240  -24.6810   21.2500 O.3       1 1YQ601      0.0000 
     12 C0C       496.8450  -22.9650   23.6100 C.ar      1 1YQ601      0.0000 
     13 C0D       495.9120  -21.8980   23.5030 C.ar      1 1YQ601      0.0000 
     14 C0E       495.6200  -21.0850   24.6200 C.ar      1 1YQ601      0.0000 
     15 C0F       496.2610  -21.3390   25.8440 C.ar      1 1YQ601      0.0000 
     16 C0G       497.1860  -22.3850   25.9920 C.ar      1 1YQ601      0.0000 
     17 C0H       497.4750  -23.2040   24.8530 C.ar      1 1YQ601      0.0000 
     18 C0M       497.7720  -22.5160   27.3340 C.2       1 1YQ601      0.0000 
     19 C0O       494.2110  -24.9690   22.6240 C.3       1 1YQ601      0.0000 
     20 C0P       493.2240  -26.1320   22.8000 C.3       1 1YQ601      0.0000 
     21 N0S       493.9540  -27.4080   22.8740 N.am      1 1YQ601      0.0000 
     22 C0V       493.8810  -28.3540   21.8820 C.2       1 1YQ601      0.0000 
     23 N0W       494.6130  -29.4750   22.0950 N.am      1 1YQ601      0.0000 
     24 C0X       495.4080  -29.7740   23.1550 C.2       1 1YQ601      0.0000 
     25 C0Y       495.4640  -28.7400   24.1990 C.2       1 1YQ601      0.0000 
     26 C0Z       494.7480  -27.5960   24.0370 C.2       1 1YQ601      0.0000 
     27 O10       493.2090  -28.2360   20.8560 O.2       1 1YQ601      0.0000 
     28 C15       498.5450  -23.5330   27.7370 C.2       1 1YQ601      0.0000 
     29 N19       499.8730  -23.4560   29.9540 N.1       1 1YQ601      0.0000 
     30 H         494.3076  -23.9257   18.9620 H         1 1YQ601      0.0000 
     31 H         498.0092  -21.9608   18.5392 H         1 1YQ601      0.0000 
     32 H         498.5710  -22.5062   20.8444 H         1 1YQ601      0.0000 
     33 H         495.4501  -21.7208   22.6070 H         1 1YQ601      0.0000 
     34 H         494.9507  -20.3226   24.5358 H         1 1YQ601      0.0000 
     35 H         496.0450  -20.7376   26.6601 H         1 1YQ601      0.0000 
     36 H         498.1472  -23.9699   24.9483 H         1 1YQ601      0.0000 
     37 H         497.5350  -21.7206   27.9937 H         1 1YQ601      0.0000 
     38 H         493.7974  -24.1032   23.1667 H         1 1YQ601      0.0000 
     39 H         495.1458  -25.2524   23.1349 H         1 1YQ601      0.0000 
     40 H         492.5361  -26.1276   21.9528 H         1 1YQ601      0.0000 
     41 H         492.6517  -25.9594   23.7130 H         1 1YQ601      0.0000 
     42 H         494.5566  -30.2405   21.3101 H         1 1YQ601      0.0000 
     43 H         496.0445  -28.9258   25.0111 H         1 1YQ601      0.0000 
     44 H         494.7630  -26.8467   24.7441 H         1 1YQ601      0.0000 
     45 H         498.5871  -24.4306   27.2017 H         1 1YQ601      0.0000 
@<TRIPOS>BOND
     1   24    1 2    
     2   28    2 1    
     3   29    2 3    
     4    4    3 ar   
     5    8    3 ar   
     6   30    3 1    
     7    5    4 ar   
     8    9    4 1    
     9    6    5 ar   
    10   31    5 1    
    11    7    6 ar   
    12   32    6 1    
    13    8    7 ar   
    14   10    7 1    
    15   11    8 1    
    16   12   10 1    
    17   19   11 1    
    18   13   12 ar   
    19   17   12 ar   
    20   14   13 ar   
    21   33   13 1    
    22   15   14 ar   
    23   34   14 1    
    24   16   15 ar   
    25   35   15 1    
    26   17   16 ar   
    27   18   16 1    
    28   36   17 1    
    29   28   18 2    
    30   37   18 1    
    31   20   19 1    
    32   38   19 1    
    33   39   19 1    
    34   21   20 1    
    35   40   20 1    
    36   41   20 1    
    37   22   21 am   
    38   26   21 1    
    39   23   22 am   
    40   27   22 2    
    41   24   23 am   
    42   42   23 1    
    43   25   24 1    
    44   26   25 2    
    45   43   25 1    
    46   44   26 1    
    47   45   28 1    
@<TRIPOS>SUBSTRUCTURE
     1 1YQ601      1 GROUP   
@<TRIPOS>SET

