#    Name: 3iod_A6D_2_INTS_M
#    Modification time : Tue Mar 25 17:00:54 2014

@<TRIPOS>MOLECULE
3iod_A6D_2_INTS_M
   80     0     9     0     0
SMALL
NO_CHARGES


@<TRIPOS>ATOM
      1 N          -1.8375   -8.1395   43.3255 N.am      2 SEC2        0.0000 
      2 N          -1.4390   -8.5580   41.9360 N.am      8 SEL2        0.0000 
      3 N          -2.2360   -7.7210   44.7150 N.am      5 SEP2        0.0000 
      4 CA         -2.9850   -9.1320   41.0060 C.3       3 GLC5        0.0000 
      5 CA         -1.5810   -7.6730   40.9400 C.3       9 GLL5        0.0000 
      6 CA         -4.3890  -10.5910   41.0720 C.3       6 GLP5        0.0000 
      7 CA         -0.6595   -6.4040   39.6305 C.3       3 GLC5        0.0000 
      8 CA          0.2620   -5.1350   38.3210 C.3       6 GLP5        0.0000 
      9 CA         -1.0445   -6.8725   42.6085 C.3       3 GLC5        0.0000 
     10 CA         -0.5080   -6.0720   44.2770 C.3       6 GLP5        0.0000 
     11 CA         -3.2760   -7.8305   42.3305 C.3       3 GLC5        0.0000 
     12 CA         -4.9710   -7.9880   43.7210 C.3       6 GLP5        0.0000 
     13 CA         -0.1815   -7.1485   38.8785 C.3       3 GLC5        0.0000 
     14 CA         -0.6250   -9.1620   39.4360 C.3       9 GLL5        0.0000 
     15 CA          1.2385   -8.6975   40.5515 C.3       3 GLC5        0.0000 
     16 CA          3.1020   -8.2330   41.6670 C.3       6 GLP5        0.0000 
     17 CA          0.0975   -8.8530   43.3360 C.3       3 GLC5        0.0000 
     18 CA         -0.8770   -9.7670   41.7300 C.3       9 GLL5        0.0000 
     19 CA          1.0720   -7.9390   44.9420 C.3       6 GLP5        0.0000 
     20 CA         -2.5700   -9.4250   43.1385 C.3       3 GLC5        0.0000 
     21 CA         -4.2630   -9.0830   44.5470 C.3       6 GLP5        0.0000 
     22 O          -1.1720  -10.3910   44.2190 O.2       1 ALC1        0.0000 
     23 O          -0.7350  -10.6040   42.7560 O.2       7 ALL1        0.0000 
     24 O          -1.6090  -10.1780   45.6820 O.2       4 ALP1        0.0000 
     25 O          -0.0180  -11.8195   42.7600 O.2       1 ALC1        0.0000 
     26 O           0.6990  -13.0350   42.7640 O.2       4 ALP1        0.0000 
     27 N           1.4475  -11.8910   40.3050 N.am      2 SEC2        0.0000 
     28 N           0.1220  -11.2040   39.9020 N.am      8 SEL2        0.0000 
     29 N           2.7730  -12.5780   40.7080 N.am      5 SEP2        0.0000 
     30 N           0.3325   -6.1575   35.9145 N.am      2 SEC2        0.0000 
     31 N           0.5070   -7.2350   34.9620 N.am      8 SEL2        0.0000 
     32 N           0.1580   -5.0800   36.8670 N.am      5 SEP2        0.0000 
     33 O          -0.3030   -7.0535   33.8960 O.2       1 ALC1        0.0000 
     34 O           0.5070   -7.2350   34.9620 O.2       7 ALL1        0.0000 
     35 O          -1.1130   -6.8720   32.8300 O.2       4 ALP1        0.0000 
     36 O           3.1070   -8.5695   37.5085 O.2       1 ALC1        0.0000 
     37 O           1.9890   -7.8030   37.2740 O.2       7 ALL1        0.0000 
     38 O           4.2250   -9.3360   37.7430 O.2       4 ALP1        0.0000 
     39 CA          5.2270  -12.8620   26.9935 C.3       3 GLC5        0.0000 
     40 CA          4.4580  -11.8700   28.4330 C.3       9 GLL5        0.0000 
     41 CA          5.9960  -13.8540   25.5540 C.3       6 GLP5        0.0000 
     42 CA          0.1020   -8.4420   30.2975 C.3       3 GLC5        0.0000 
     43 CA          1.2510   -9.3060   31.7270 C.3       9 GLL5        0.0000 
     44 CA         -1.0470   -7.5780   28.8680 C.3       6 GLP5        0.0000 
     45 CA         -0.4525  -10.4790   31.2285 C.3       3 GLC5        0.0000 
     46 CA         -2.1560  -11.6520   30.7300 C.3       6 GLP5        0.0000 
     47 CA         -0.6125  -11.4110   31.6270 C.3       3 GLC5        0.0000 
     48 CA          0.9310  -11.1700   32.5240 C.3       9 GLL5        0.0000 
     49 CA          1.3965  -12.6840   31.3760 C.3       3 GLC5        0.0000 
     50 CA          1.8620  -14.1980   30.2280 C.3       6 GLP5        0.0000 
     51 CA          5.2490   -8.8115   29.8935 C.3       3 GLC5        0.0000 
     52 CA          3.4980  -10.0950   30.3440 C.3       9 GLL5        0.0000 
     53 CA          7.0000   -7.5280   29.4430 C.3       6 GLP5        0.0000 
     54 CA         -1.5760   -8.4810   35.1780 C.3       3 GLC5        0.0000 
     55 CA          0.0630   -9.6330   34.7740 C.3       9 GLL5        0.0000 
     56 CA         -3.2150   -7.3290   35.5820 C.3       6 GLP5        0.0000 
     57 CA         -1.4615  -10.5485   36.5050 C.3       3 GLC5        0.0000 
     58 CA         -0.1250   -9.0420   37.0320 C.3       9 GLL5        0.0000 
     59 CA         -2.7980  -12.0550   35.9780 C.3       6 GLP5        0.0000 
     60 CA         -1.6700   -8.1855   36.3070 C.3       3 GLC5        0.0000 
     61 CA          1.2618  -10.3185   41.7235 C.3       3 GLC5        0.0000 
     62 CA         -0.4540  -10.1130   40.4480 C.3       9 GLL5        0.0000 
     63 CA          3.1890  -10.6970   42.3580 C.3       6 GLP5        0.0000 
     64 CA         -2.5486  -10.1466   40.9540 C.3       3 GLC5        0.0000 
     65 CA          6.7413  -10.3758   29.8560 C.3       3 GLC5        0.0000 
     66 CA          5.2030  -11.6350   29.5930 C.3       9 GLL5        0.0000 
     67 CA          8.5190   -9.5670   29.6400 C.3       6 GLP5        0.0000 
     68 CA          4.1299  -13.0691   29.9857 C.3       3 GLC5        0.0000 
     69 CA          4.7240  -10.7340   30.5510 C.3       9 GLL5        0.0000 
     70 CA          3.5490  -14.6110   30.7190 C.3       6 GLP5        0.0000 
     71 CA          4.3537  -10.5700   26.7525 C.3       3 GLC5        0.0000 
     72 CA          4.8590   -9.5930   25.1790 C.3       6 GLP5        0.0000 
     73 CA          1.9315   -7.1847   31.2135 C.3       3 GLC5        0.0000 
     74 CA          3.0230   -9.1290   31.4130 C.3       9 GLL5        0.0000 
     75 CA          1.7260   -5.1520   30.8570 C.3       6 GLP5        0.0000 
     76 CA         -1.2007  -11.1812   35.2653 C.3       3 GLC5        0.0000 
     77 CA          2.5219  -12.4567   29.6095 C.3       3 GLC5        0.0000 
     78 CA          2.7510  -10.3190   29.1820 C.3       9 GLL5        0.0000 
     79 CA          0.4313   -7.0452   37.5640 C.3       3 GLC5        0.0000 
     80 CA          1.3260   -8.8690   36.5820 C.3       9 GLL5        0.0000 
@<TRIPOS>BOND
@<TRIPOS>SUBSTRUCTURE
     1 ALC1       22 GROUP        1 X    ALC  0     ROOT ALC X 1
     2 SEC2        1 GROUP        1 X    SEC  0     **** SEC X 2
     3 GLC5        4 GROUP        1 X    GLC  0     **** GLC X 6
     4 ALP1       24 GROUP        1 Y    ALP  0     ROOT ALP Y 8
     5 SEP2        3 GROUP        1 Y    SEP  0     **** SEP Y 9
     6 GLP5        6 GROUP        1 Y    GLP  0     **** GLP Y 13
     7 ALL1       23 GROUP        1 Z    ALL  0     ROOT ALL Z 15
     8 SEL2        2 GROUP        1 Z    SEL  0     **** SEL Z 16
     9 GLL5        5 GROUP        1 Z    GLL  0     **** GLL Z 20
@<TRIPOS>SET

