#    Name: 3iod_A6D_2_ligand
#    Modification time : Tue Mar 25 17:00:54 2014

@<TRIPOS>MOLECULE
3iod_A6D_2_ligand
   48    51     1     0     0
SMALL
NO_CHARGES


@<TRIPOS>ATOM
      1 N1         -1.4390   -8.5580   41.9360 N.ar      1 A6D301      0.0000 
      2 C2         -1.5810   -7.6730   40.9400 C.ar      1 A6D301      0.0000 
      3 N3         -1.1940   -7.9630   39.7030 N.ar      1 A6D301      0.0000 
      4 C4         -0.6250   -9.1620   39.4360 C.ar      1 A6D301      0.0000 
      5 C5         -0.4540  -10.1130   40.4480 C.ar      1 A6D301      0.0000 
      6 C6         -0.8770   -9.7670   41.7300 C.ar      1 A6D301      0.0000 
      7 N6         -0.7350  -10.6040   42.7560 N.pl3     1 A6D301      0.0000 
      8 N7          0.1220  -11.2040   39.9020 N.2       1 A6D301      0.0000 
      9 C8          0.3190  -10.9390   38.6060 C.2       1 A6D301      0.0000 
     10 N9         -0.1480   -9.7080   38.3250 N.pl3     1 A6D301      0.0000 
     11 OAB         1.4020  -10.6910   26.7750 O.2       1 A6D301      0.0000 
     12 OAC         0.5070   -7.2350   34.9620 O.3       1 A6D301      0.0000 
     13 OAD         1.9890   -7.8030   37.2740 O.3       1 A6D301      0.0000 
     14 OAE         2.9010  -12.5340   26.2460 O.2       1 A6D301      0.0000 
     15 CAF         5.2030  -11.6350   29.5930 C.ar      1 A6D301      0.0000 
     16 CAG         4.7240  -10.7340   30.5510 C.ar      1 A6D301      0.0000 
     17 CAH         4.4580  -11.8700   28.4330 C.ar      1 A6D301      0.0000 
     18 CAK         2.7510  -10.3190   29.1820 C.ar      1 A6D301      0.0000 
     19 CAL         3.0230   -9.1290   31.4130 C.3       1 A6D301      0.0000 
     20 CAM         0.7300  -10.9820   34.3310 C.3       1 A6D301      0.0000 
     21 OAQ        -0.6610   -9.9110   36.0220 O.3       1 A6D301      0.0000 
     22 SAR         1.2510   -9.3060   31.7270 S.3       1 A6D301      0.0000 
     23 SAS         0.9310  -11.1700   32.5240 S.3       1 A6D301      0.0000 
     24 CAT         3.4980  -10.0950   30.3440 C.ar      1 A6D301      0.0000 
     25 CAV         3.2390  -11.2240   28.2190 C.ar      1 A6D301      0.0000 
     26 CAY         1.0980   -8.5470   35.1130 C.3       1 A6D301      0.0000 
     27 CAZ         1.3260   -8.8690   36.5820 C.3       1 A6D301      0.0000 
     28 CBA         0.0630   -9.6330   34.7740 C.3       1 A6D301      0.0000 
     29 CBB        -0.1250   -9.0420   37.0320 C.3       1 A6D301      0.0000 
     30 NBD         2.5350  -11.4740   27.1040 N.pl3     1 A6D301      0.0000 
     31 H          -2.0081   -6.7310   41.1472 H         1 A6D301      0.0000 
     32 H          -1.1162  -10.2990   43.6288 H         1 A6D301      0.0000 
     33 H          -0.2601  -11.4622   42.5612 H         1 A6D301      0.0000 
     34 H           0.7354  -11.5401   37.9612 H         1 A6D301      0.0000 
     35 H           6.0920  -12.1181   29.7408 H         1 A6D301      0.0000 
     36 H           5.2675  -10.5450   31.3960 H         1 A6D301      0.0000 
     37 H           4.8157  -12.5313   27.7249 H         1 A6D301      0.0000 
     38 H           1.8680   -9.8374   29.0310 H         1 A6D301      0.0000 
     39 H           3.4457   -9.3120   32.3783 H         1 A6D301      0.0000 
     40 H           3.1037   -8.1003   31.1314 H         1 A6D301      0.0000 
     41 H           1.7374  -11.0823   34.6899 H         1 A6D301      0.0000 
     42 H           0.1387  -11.8403   34.5909 H         1 A6D301      0.0000 
     43 H           1.9576   -8.7197   34.5780 H         1 A6D301      0.0000 
     44 H           1.8002   -9.8067   36.6438 H         1 A6D301      0.0000 
     45 H          -0.5887   -9.2995   34.0260 H         1 A6D301      0.0000 
     46 H          -0.5888   -8.1103   37.0355 H         1 A6D301      0.0000 
     47 H          -0.3771   -7.3984   34.5242 H         1 A6D301      0.0000 
     48 H           2.8719   -8.1832   37.5496 H         1 A6D301      0.0000 
@<TRIPOS>BOND
     1    2    1 ar   
     2    6    1 ar   
     3    3    2 ar   
     4   31    2 1    
     5    4    3 ar   
     6    5    4 ar   
     7   10    4 1    
     8    6    5 ar   
     9    8    5 1    
    10    7    6 1    
    11   32    7 1    
    12   33    7 1    
    13    9    8 2    
    14   10    9 1    
    15   34    9 1    
    16   29   10 1    
    17   30   11 2    
    18   26   12 1    
    19   47   12 1    
    20   27   13 1    
    21   48   13 1    
    22   30   14 2    
    23   16   15 ar   
    24   17   15 ar   
    25   35   15 1    
    26   24   16 ar   
    27   36   16 1    
    28   25   17 ar   
    29   37   17 1    
    30   24   18 ar   
    31   25   18 ar   
    32   38   18 1    
    33   22   19 1    
    34   24   19 1    
    35   39   19 1    
    36   40   19 1    
    37   23   20 1    
    38   28   20 1    
    39   41   20 1    
    40   42   20 1    
    41   28   21 1    
    42   29   21 1    
    43   23   22 1    
    44   30   25 1    
    45   27   26 1    
    46   28   26 1    
    47   43   26 1    
    48   29   27 1    
    49   44   27 1    
    50   45   28 1    
    51   46   29 1    
@<TRIPOS>SUBSTRUCTURE
     1 A6D301      1 GROUP   
@<TRIPOS>SET

