#    Name: 3mlb_LJZ_1_INTS_M
#    Modification time : Mon Mar 24 23:26:15 2014

@<TRIPOS>MOLECULE
3mlb_LJZ_1_INTS_M
  106     0     9     0     0
SMALL
NO_CHARGES


@<TRIPOS>ATOM
      1 N           9.4260  -34.2125  -10.0235 N.am      2 SEC2        0.0000 
      2 N          10.0640  -33.0340  -11.0130 N.am      8 SEL2        0.0000 
      3 N           8.7880  -35.3910   -9.0340 N.am      5 SEP2        0.0000 
      4 N          15.2895  -41.0195  -18.0630 N.am      2 SEC2        0.0000 
      5 N          16.3510  -40.3750  -17.0120 N.am      8 SEL2        0.0000 
      6 N          14.2280  -41.6640  -19.1140 N.am      5 SEP2        0.0000 
      7 CA          9.9175  -34.8245  -13.5645 C.3       3 GLC5        0.0000 
      8 CA          8.0930  -34.6060  -13.1910 C.3       9 GLL5        0.0000 
      9 CA         11.7420  -35.0430  -13.9380 C.3       6 GLP5        0.0000 
     10 CA          8.7645  -33.5900  -14.4520 C.3       3 GLC5        0.0000 
     11 CA          9.4360  -32.5740  -15.7130 C.3       6 GLP5        0.0000 
     12 CA         15.9980  -41.5495  -13.8245 C.3       3 GLC5        0.0000 
     13 CA         14.7670  -42.1090  -15.0220 C.3       9 GLL5        0.0000 
     14 CA         17.2290  -40.9900  -12.6270 C.3       6 GLP5        0.0000 
     15 CA         14.7505  -40.2870  -14.6125 C.3       3 GLC5        0.0000 
     16 CA         14.7340  -38.4650  -14.2030 C.3       6 GLP5        0.0000 
     17 CA         15.8345  -31.3860  -12.1675 C.3       3 GLC5        0.0000 
     18 CA         15.3930  -30.9800  -13.9760 C.3       9 GLL5        0.0000 
     19 CA         16.2760  -31.7920  -10.3590 C.3       6 GLP5        0.0000 
     20 CA         14.1135  -31.2740  -15.5205 C.3       3 GLC5        0.0000 
     21 CA         12.8340  -31.5680  -17.0650 C.3       6 GLP5        0.0000 
     22 CA         15.7650  -29.3665  -15.2235 C.3       3 GLC5        0.0000 
     23 CA         16.1370  -27.7530  -16.4710 C.3       6 GLP5        0.0000 
     24 CA         20.9110  -35.0705  -13.3150 C.3       3 GLC5        0.0000 
     25 CA         19.1470  -35.4090  -14.4940 C.3       9 GLL5        0.0000 
     26 CA         22.6750  -34.7320  -12.1360 C.3       6 GLP5        0.0000 
     27 CA         18.7855  -35.6565  -16.3485 C.3       3 GLC5        0.0000 
     28 CA         18.4240  -35.9040  -18.2030 C.3       6 GLP5        0.0000 
     29 CA          3.4400  -35.3090  -10.2380 C.3       3 GLC5        0.0000 
     30 CA          5.3510  -34.9910  -10.2510 C.3       9 GLL5        0.0000 
     31 CA          1.5290  -35.6270  -10.2250 C.3       6 GLP5        0.0000 
     32 CA          3.9520  -32.0260   -9.8255 C.3       3 GLC5        0.0000 
     33 CA          5.4030  -33.6970   -9.5940 C.3       9 GLL5        0.0000 
     34 CA          2.5010  -30.3550  -10.0570 C.3       6 GLP5        0.0000 
     35 CA          3.6420  -33.6405   -8.6875 C.3       3 GLC5        0.0000 
     36 CA          1.8810  -33.5840   -7.7810 C.3       6 GLP5        0.0000 
     37 CA          5.1425  -34.8435   -7.7245 C.3       3 GLC5        0.0000 
     38 CA          4.8820  -35.9900   -5.8550 C.3       6 GLP5        0.0000 
     39 CA         16.9935  -46.6925  -18.1200 C.3       3 GLC5        0.0000 
     40 CA         15.3830  -45.1910  -18.2900 C.3       9 GLL5        0.0000 
     41 CA         18.6040  -48.1940  -17.9500 C.3       6 GLP5        0.0000 
     42 CA          5.0245  -31.0635  -10.0925 C.3       3 GLC5        0.0000 
     43 CA          6.2970  -32.6610  -10.0660 C.3       9 GLL5        0.0000 
     44 CA          3.7520  -29.4660  -10.1190 C.3       6 GLP5        0.0000 
     45 CA         18.0695  -45.7220  -17.8900 C.3       3 GLC5        0.0000 
     46 CA         16.4680  -44.3610  -17.9040 C.3       9 GLL5        0.0000 
     47 CA         19.6710  -47.0830  -17.8760 C.3       6 GLP5        0.0000 
     48 CA         11.6395  -33.0680  -13.1120 C.3       3 GLC5        0.0000 
     49 CA         11.5370  -31.0930  -12.2860 C.3       9 GLL5        0.0000 
     50 CA         12.9270  -30.8480  -11.0310 C.3       3 GLC5        0.0000 
     51 CA         14.3170  -30.6030   -9.7760 C.3       6 GLP5        0.0000 
     52 CA         19.1080  -40.0325  -14.4470 C.3       3 GLC5        0.0000 
     53 CA         18.6160  -39.1500  -15.9700 C.3       9 GLL5        0.0000 
     54 CA         19.6000  -40.9150  -12.9240 C.3       6 GLP5        0.0000 
     55 CA         16.6750  -38.8075  -15.0865 C.3       3 GLC5        0.0000 
     56 CA         19.0825  -37.8525  -17.3025 C.3       3 GLC5        0.0000 
     57 CA         19.5490  -36.5550  -18.6350 C.3       6 GLP5        0.0000 
     58 CA         10.7920  -29.4825  -10.2115 C.3       3 GLC5        0.0000 
     59 CA         10.1440  -30.7760  -11.7620 C.3       9 GLL5        0.0000 
     60 CA         11.4400  -28.1890   -8.6610 C.3       6 GLP5        0.0000 
     61 CA         10.7895  -31.3785   -9.7530 C.3       3 GLC5        0.0000 
     62 CA         11.4350  -31.9810   -7.7440 C.3       6 GLP5        0.0000 
     63 CA         18.5430  -41.0670  -14.8045 C.3       3 GLC5        0.0000 
     64 CA         18.6810  -40.5490  -16.5800 C.3       9 GLL5        0.0000 
     65 CA         18.4050  -41.5850  -13.0290 C.3       6 GLP5        0.0000 
     66 CA         20.1365  -40.0790  -18.0955 C.3       3 GLC5        0.0000 
     67 CA         21.5920  -39.6090  -19.6110 C.3       6 GLP5        0.0000 
     68 CA         18.2225  -39.8825  -18.5310 C.3       3 GLC5        0.0000 
     69 CA         17.7640  -39.2160  -20.4820 C.3       6 GLP5        0.0000 
     70 O           7.4190  -30.4875  -12.4600 O.2       1 ALC1        0.0000 
     71 O           8.0020  -31.8220  -11.6040 O.2       7 ALL1        0.0000 
     72 O           6.8360  -29.1530  -13.3160 O.2       4 ALP1        0.0000 
     73 CA         14.5540  -42.6410  -17.9070 C.3       3 GLC5        0.0000 
     74 CA         16.3030  -43.4150  -16.8960 C.3       9 GLL5        0.0000 
     75 CA         12.8050  -41.8670  -18.9180 C.3       6 GLP5        0.0000 
     76 CA         18.5553  -36.2430  -12.9170 C.3       3 GLC5        0.0000 
     77 CA         18.4730  -37.6300  -11.4010 C.3       6 GLP5        0.0000 
     78 CA          6.8735  -35.5590   -9.5542 C.3       3 GLC5        0.0000 
     79 CA          8.3700  -36.7740   -9.1860 C.3       6 GLP5        0.0000 
     80 CA         13.7852  -43.4977  -18.4480 C.3       3 GLC5        0.0000 
     81 CA         14.1480  -45.0660  -17.6660 C.3       9 GLL5        0.0000 
     82 CA         13.6707  -45.1243  -19.6095 C.3       3 GLC5        0.0000 
     83 CA         12.5760  -45.1200  -21.2410 C.3       6 GLP5        0.0000 
     84 CA          5.6510  -32.5935   -8.0330 C.3       3 GLC5        0.0000 
     85 CA          5.4520  -32.0080   -6.2360 C.3       6 GLP5        0.0000 
     86 CA         16.5347  -45.0185  -20.0430 C.3       3 GLC5        0.0000 
     87 CA         17.1440  -45.2610  -21.9890 C.3       6 GLP5        0.0000 
     88 CA          7.5020  -35.7595  -10.3965 C.3       3 GLC5        0.0000 
     89 CA          7.0770  -34.2380  -11.8390 C.3       9 GLL5        0.0000 
     90 CA         13.8849  -46.4499  -17.6565 C.3       3 GLC5        0.0000 
     91 CA         13.9640  -44.1030  -16.6440 C.3       9 GLL5        0.0000 
     92 CA         13.4050  -48.2840  -18.0020 C.3       6 GLP5        0.0000 
     93 CA         13.6185  -42.6329  -17.5305 C.3       3 GLC5        0.0000 
     94 CA         16.3178  -42.5800  -18.8955 C.3       3 GLC5        0.0000 
     95 CA         16.2500  -41.2720  -20.3910 C.3       6 GLP5        0.0000 
     96 CA         14.6242  -34.8505  -13.4760 C.3       3 GLC5        0.0000 
     97 CA         16.7750  -34.5790  -14.2710 C.3       9 GLL5        0.0000 
     98 CA         12.9230  -35.6700  -12.7480 C.3       6 GLP5        0.0000 
     99 CA         15.2568  -35.6295  -14.7915 C.3       3 GLC5        0.0000 
    100 CA         15.8760  -33.4830  -14.1370 C.3       9 GLL5        0.0000 
    101 CA         14.1880  -37.2280  -15.3790 C.3       6 GLP5        0.0000 
    102 CA         10.2812  -30.5757  -13.7030 C.3       3 GLC5        0.0000 
    103 CA          9.7220  -30.2170  -15.3820 C.3       6 GLP5        0.0000 
    104 CA          7.9042  -33.1920   -9.1553 C.3       3 GLC5        0.0000 
    105 CA          7.1190  -32.8990  -11.1590 C.3       9 GLL5        0.0000 
    106 CA          9.3240  -33.3450   -7.8160 C.3       6 GLP5        0.0000 
@<TRIPOS>BOND
@<TRIPOS>SUBSTRUCTURE
     1 ALC1       70 GROUP        1 X    ALC  0     ROOT ALC X 1
     2 SEC2        1 GROUP        1 X    SEC  0     **** SEC X 2
     3 GLC5        7 GROUP        1 X    GLC  0     **** GLC X 6
     4 ALP1       72 GROUP        1 Y    ALP  0     ROOT ALP Y 8
     5 SEP2        3 GROUP        1 Y    SEP  0     **** SEP Y 9
     6 GLP5        9 GROUP        1 Y    GLP  0     **** GLP Y 13
     7 ALL1       71 GROUP        1 Z    ALL  0     ROOT ALL Z 15
     8 SEL2        2 GROUP        1 Z    SEL  0     **** SEL Z 16
     9 GLL5        8 GROUP        1 Z    GLL  0     **** GLL Z 20
@<TRIPOS>SET

