#    Name: 3mlb_LJZ_1_ligand
#    Modification time : Mon Mar 24 23:26:15 2014

@<TRIPOS>MOLECULE
3mlb_LJZ_1_ligand
   64    66     1     0     0
SMALL
NO_CHARGES


@<TRIPOS>ATOM
      1 OAA        11.7270  -28.7330  -12.2270 O.2       1 LJZ192      0.0000 
      2 OAB        20.9760  -39.4560  -16.1250 O.2       1 LJZ192      0.0000 
      3 OAC        10.0640  -33.0340  -11.0130 O.2       1 LJZ192      0.0000 
      4 OAD        16.3510  -40.3750  -17.0120 O.2       1 LJZ192      0.0000 
      5 CLAE        8.0930  -34.6060  -13.1910 Cl        1 LJZ192      0.0000 
      6 CLAF       14.7670  -42.1090  -15.0220 Cl        1 LJZ192      0.0000 
      7 CAG        15.3930  -30.9800  -13.9760 C.2       1 LJZ192      0.0000 
      8 CAH        19.1470  -35.4090  -14.4940 C.2       1 LJZ192      0.0000 
      9 CAI         5.3510  -34.9910  -10.2510 C.ar      1 LJZ192      0.0000 
     10 CAJ        14.1480  -45.0660  -17.6660 C.ar      1 LJZ192      0.0000 
     11 CAK         5.4030  -33.6970   -9.5940 C.ar      1 LJZ192      0.0000 
     12 CAL        15.3830  -45.1910  -18.2900 C.ar      1 LJZ192      0.0000 
     13 CAM         6.1910  -35.2520  -11.3750 C.ar      1 LJZ192      0.0000 
     14 CAN        13.9640  -44.1030  -16.6440 C.ar      1 LJZ192      0.0000 
     15 CAO         6.2970  -32.6610  -10.0660 C.ar      1 LJZ192      0.0000 
     16 CAP        16.4680  -44.3610  -17.9040 C.ar      1 LJZ192      0.0000 
     17 CAQ        17.6990  -31.8700  -14.2120 C.2       1 LJZ192      0.0000 
     18 CAR        18.5930  -32.9540  -14.3370 C.2       1 LJZ192      0.0000 
     19 CAS        15.8760  -33.4830  -14.1370 C.2       1 LJZ192      0.0000 
     20 CAT        16.7750  -34.5790  -14.2710 C.2       1 LJZ192      0.0000 
     21 CAU        11.5370  -31.0930  -12.2860 C.3       1 LJZ192      0.0000 
     22 CAV        18.6160  -39.1500  -15.9700 C.3       1 LJZ192      0.0000 
     23 CAW        10.1440  -30.7760  -11.7620 C.3       1 LJZ192      0.0000 
     24 CAX        18.6810  -40.5490  -16.5800 C.3       1 LJZ192      0.0000 
     25 NAY        14.3640  -31.0190  -13.1770 N.2       1 LJZ192      0.0000 
     26 NAZ        18.9300  -36.5640  -15.0800 N.2       1 LJZ192      0.0000 
     27 NBA        13.3780  -30.1280  -13.4340 N.2       1 LJZ192      0.0000 
     28 NBB        20.0550  -37.3360  -15.2370 N.2       1 LJZ192      0.0000 
     29 NBC         8.0020  -31.8220  -11.6040 N.am      1 LJZ192      0.0000 
     30 NBD        17.4370  -42.5790  -16.5190 N.am      1 LJZ192      0.0000 
     31 CBE        12.3600  -29.8490  -12.5990 C.2       1 LJZ192      0.0000 
     32 CBF        20.0400  -38.5630  -15.8160 C.2       1 LJZ192      0.0000 
     33 CBG         9.3210  -32.0490  -11.5240 C.2       1 LJZ192      0.0000 
     34 CBH        17.3120  -41.2280  -16.6510 C.2       1 LJZ192      0.0000 
     35 CBI        16.3500  -32.1340  -14.1030 C.2       1 LJZ192      0.0000 
     36 CBJ        18.1280  -34.3030  -14.3720 C.2       1 LJZ192      0.0000 
     37 CBK         7.0770  -34.2380  -11.8390 C.ar      1 LJZ192      0.0000 
     38 CBL        15.0330  -43.2800  -16.2620 C.ar      1 LJZ192      0.0000 
     39 CBM         7.1190  -32.8990  -11.1590 C.ar      1 LJZ192      0.0000 
     40 CBN        16.3030  -43.4150  -16.8960 C.ar      1 LJZ192      0.0000 
     41 H          15.6337  -30.1652  -14.5799 H         1 LJZ192      0.0000 
     42 H          20.0767  -35.1616  -14.0523 H         1 LJZ192      0.0000 
     43 H           4.7172  -35.6985   -9.9045 H         1 LJZ192      0.0000 
     44 H          13.3623  -45.6653  -17.9368 H         1 LJZ192      0.0000 
     45 H           4.8045  -33.5188   -8.7944 H         1 LJZ192      0.0000 
     46 H          15.5250  -45.8823  -19.0346 H         1 LJZ192      0.0000 
     47 H           6.1563  -36.1521  -11.8384 H         1 LJZ192      0.0000 
     48 H          13.0540  -44.0133  -16.1909 H         1 LJZ192      0.0000 
     49 H           6.3034  -31.7660   -9.5781 H         1 LJZ192      0.0000 
     50 H          17.3713  -44.4679  -18.3764 H         1 LJZ192      0.0000 
     51 H          18.0570  -30.9174  -14.2039 H         1 LJZ192      0.0000 
     52 H          19.6045  -32.7756  -14.4050 H         1 LJZ192      0.0000 
     53 H          14.8691  -33.6614  -14.0633 H         1 LJZ192      0.0000 
     54 H          16.4179  -35.5238  -14.2899 H         1 LJZ192      0.0000 
     55 H          11.4483  -31.7024  -13.1979 H         1 LJZ192      0.0000 
     56 H          12.0730  -31.6984  -11.5397 H         1 LJZ192      0.0000 
     57 H          18.1506  -39.2002  -14.9916 H         1 LJZ192      0.0000 
     58 H          18.0366  -38.4979  -16.6145 H         1 LJZ192      0.0000 
     59 H           9.6193  -30.1449  -12.4837 H         1 LJZ192      0.0000 
     60 H          10.2262  -30.2264  -10.8209 H         1 LJZ192      0.0000 
     61 H          19.3574  -41.1707  -15.9807 H         1 LJZ192      0.0000 
     62 H          19.0985  -40.4802  -17.5920 H         1 LJZ192      0.0000 
     63 H           7.5838  -30.9749  -11.9438 H         1 LJZ192      0.0000 
     64 H          18.2715  -43.0305  -16.1747 H         1 LJZ192      0.0000 
@<TRIPOS>BOND
     1   31    1 2    
     2   32    2 2    
     3   33    3 2    
     4   34    4 2    
     5   37    5 1    
     6   38    6 1    
     7   25    7 1    
     8   35    7 2    
     9   41    7 1    
    10   26    8 1    
    11   36    8 2    
    12   42    8 1    
    13   11    9 ar   
    14   13    9 ar   
    15   43    9 1    
    16   12   10 ar   
    17   14   10 ar   
    18   44   10 1    
    19   15   11 ar   
    20   45   11 1    
    21   16   12 ar   
    22   46   12 1    
    23   37   13 ar   
    24   47   13 1    
    25   38   14 ar   
    26   48   14 1    
    27   39   15 ar   
    28   49   15 1    
    29   40   16 ar   
    30   50   16 1    
    31   18   17 2    
    32   35   17 1    
    33   51   17 1    
    34   36   18 1    
    35   52   18 1    
    36   20   19 2    
    37   35   19 1    
    38   53   19 1    
    39   36   20 1    
    40   54   20 1    
    41   23   21 1    
    42   31   21 1    
    43   55   21 1    
    44   56   21 1    
    45   24   22 1    
    46   32   22 1    
    47   57   22 1    
    48   58   22 1    
    49   33   23 1    
    50   59   23 1    
    51   60   23 1    
    52   34   24 1    
    53   61   24 1    
    54   62   24 1    
    55   27   25 2    
    56   28   26 2    
    57   31   27 1    
    58   32   28 1    
    59   33   29 am   
    60   39   29 1    
    61   63   29 1    
    62   34   30 am   
    63   40   30 1    
    64   64   30 1    
    65   39   37 ar   
    66   40   38 ar   
@<TRIPOS>SUBSTRUCTURE
     1 LJZ192      1 GROUP   
@<TRIPOS>SET

