#    Name: 4g34_924_1_INTS_M
#    Modification time : Mon Mar 24 21:17:31 2014

@<TRIPOS>MOLECULE
4g34_924_1_INTS_M
   71     0     9     0     0
SMALL
NO_CHARGES


@<TRIPOS>ATOM
      1 O          47.0535   -8.4665    7.0600 O.2       1 ALC1        0.0000 
      2 O          47.0180   -9.9350    7.0460 O.2       7 ALL1        0.0000 
      3 O          47.0890   -6.9980    7.0740 O.2       4 ALP1        0.0000 
      4 CA         45.4445   -9.8830    9.0965 C.3       3 GLC5        0.0000 
      5 CA         47.2140  -10.6190    8.2440 C.3       9 GLL5        0.0000 
      6 CA         43.6750   -9.1470    9.9490 C.3       6 GLP5        0.0000 
      7 N          46.2390   -8.8205    9.7810 N.am      2 SEC2        0.0000 
      8 N          46.8670  -10.0060    9.3830 N.am      8 SEL2        0.0000 
      9 N          45.6110   -7.6350   10.1790 N.am      5 SEP2        0.0000 
     10 CA         48.7060   -9.8040    9.4230 C.3       3 GLC5        0.0000 
     11 CA         47.0400  -10.6300   10.5460 C.3       9 GLL5        0.0000 
     12 CA         50.3720   -8.9780    8.3000 C.3       6 GLP5        0.0000 
     13 CA         48.1035   -9.1330   11.3600 C.3       3 GLC5        0.0000 
     14 CA         49.1670   -7.6360   12.1740 C.3       6 GLP5        0.0000 
     15 CA         45.3575   -9.8885   10.2475 C.3       3 GLC5        0.0000 
     16 CA         50.0735  -13.6440   10.9420 C.3       3 GLC5        0.0000 
     17 CA         48.5950  -14.0780    9.4050 C.3       9 GLL5        0.0000 
     18 CA         51.5520  -13.2100   12.4790 C.3       6 GLP5        0.0000 
     19 CA         51.1390  -10.8465    0.6585 C.3       3 GLC5        0.0000 
     20 CA         49.6250  -12.2820    1.3920 C.3       9 GLL5        0.0000 
     21 CA         52.6530   -9.4110   -0.0750 C.3       6 GLP5        0.0000 
     22 CA         51.7905  -13.7910    2.7655 C.3       3 GLC5        0.0000 
     23 CA         50.3490  -12.4390    2.7180 C.3       9 GLL5        0.0000 
     24 CA         53.2320  -15.1430    2.8130 C.3       6 GLP5        0.0000 
     25 CA         50.9745  -13.6380    6.1240 C.3       3 GLC5        0.0000 
     26 CA         49.3190  -12.5800    5.0510 C.3       9 GLL5        0.0000 
     27 CA         52.6300  -14.6960    7.1970 C.3       6 GLP5        0.0000 
     28 CA         45.9370  -13.2770   -1.2235 C.3       3 GLC5        0.0000 
     29 CA         47.6820  -12.5850   -0.6600 C.3       9 GLL5        0.0000 
     30 CA         44.1920  -13.9690   -1.7870 C.3       6 GLP5        0.0000 
     31 CA         49.1035   -8.8815   -0.6470 C.3       3 GLC5        0.0000 
     32 CA         48.8870   -9.5020   -2.4270 C.3       9 GLL5        0.0000 
     33 CA         49.3200   -8.2610    1.1330 C.3       6 GLP5        0.0000 
     34 CA         48.3260   -7.9320   -4.6455 C.3       3 GLC5        0.0000 
     35 CA         47.6980   -8.9060   -2.7890 C.3       9 GLL5        0.0000 
     36 CA         48.9540   -6.9580   -6.5020 C.3       6 GLP5        0.0000 
     37 CA         49.3323  -11.3763   10.9295 C.3       3 GLC5        0.0000 
     38 CA         51.0580  -10.8710   11.7840 C.3       6 GLP5        0.0000 
     39 CA         50.3501  -12.9944    8.1919 C.3       3 GLC5        0.0000 
     40 CA         48.6580  -13.9650    7.6940 C.3       9 GLL5        0.0000 
     41 CA         52.2950  -12.5990    8.4980 C.3       6 GLP5        0.0000 
     42 CA         49.1563  -10.6489    8.1788 C.3       3 GLC5        0.0000 
     43 CA         48.1840  -12.7580    7.2220 C.3       9 GLL5        0.0000 
     44 CA         45.3080  -11.1782    4.4307 C.3       3 GLC5        0.0000 
     45 CA         46.9230  -12.4340    5.1510 C.3       9 GLL5        0.0000 
     46 CA         43.7370   -9.9850    4.3960 C.3       6 GLP5        0.0000 
     47 CA         47.0690  -14.1131    3.3561 C.3       3 GLC5        0.0000 
     48 CA         48.0130  -12.3230    3.0670 C.3       9 GLL5        0.0000 
     49 CA         46.6920  -15.8790    2.9460 C.3       6 GLP5        0.0000 
     50 CA         49.8840  -10.5813    2.4215 C.3       3 GLC5        0.0000 
     51 CA         49.7810   -8.8020    2.7880 C.3       6 GLP5        0.0000 
     52 CA         48.4317  -14.4320    4.1655 C.3       3 GLC5        0.0000 
     53 CA         49.2240  -12.4450    3.6860 C.3       9 GLL5        0.0000 
     54 CA         47.8850  -16.3540    3.7790 C.3       6 GLP5        0.0000 
     55 CA         49.3749  -10.6420    3.5009 C.3       3 GLC5        0.0000 
     56 CA         48.5953  -12.6992   -2.7830 C.3       3 GLC5        0.0000 
     57 CA         49.5080  -13.4550   -4.5320 C.3       6 GLP5        0.0000 
     58 CA         48.7163  -10.7430   -3.8225 C.3       3 GLC5        0.0000 
     59 CA         48.8780  -10.7000   -1.7390 C.3       9 GLL5        0.0000 
     60 CA         48.5500  -11.3850   -5.5620 C.3       6 GLP5        0.0000 
     61 CA         50.7677   -9.7560   -1.0790 C.3       3 GLC5        0.0000 
     62 CA         47.3505   -8.9793   -0.7655 C.3       3 GLC5        0.0000 
     63 CA         47.6020   -8.7530    1.0950 C.3       6 GLP5        0.0000 
     64 CA         44.4573   -9.6695   -1.8102 C.3       3 GLC5        0.0000 
     65 CA         46.5000   -9.5050   -2.4630 C.3       9 GLL5        0.0000 
     66 CA         42.4170   -9.2370   -1.5030 C.3       6 GLP5        0.0000 
     67 CA         47.8426   -7.4497   -2.0737 C.3       3 GLC5        0.0000 
     68 CA         48.2890   -5.5450   -1.6120 C.3       6 GLP5        0.0000 
     69 CA         47.6735  -10.6686   -3.8805 C.3       3 GLC5        0.0000 
     70 CA         47.4948   -9.8817   -0.2421 C.3       3 GLC5        0.0000 
     71 CA         46.4950  -10.6990   -1.7720 C.3       9 GLL5        0.0000 
@<TRIPOS>BOND
@<TRIPOS>SUBSTRUCTURE
     1 ALC1        1 GROUP        1 X    ALC  0     ROOT ALC X 1
     2 SEC2        7 GROUP        1 X    SEC  0     **** SEC X 2
     3 GLC5        4 GROUP        1 X    GLC  0     **** GLC X 6
     4 ALP1        3 GROUP        1 Y    ALP  0     ROOT ALP Y 8
     5 SEP2        9 GROUP        1 Y    SEP  0     **** SEP Y 9
     6 GLP5        6 GROUP        1 Y    GLP  0     **** GLP Y 13
     7 ALL1        2 GROUP        1 Z    ALL  0     ROOT ALL Z 15
     8 SEL2        8 GROUP        1 Z    SEL  0     **** SEL Z 16
     9 GLL5        5 GROUP        1 Z    GLL  0     **** GLL Z 20
@<TRIPOS>SET

