#    Name: 4g34_924_1_ligand
#    Modification time : Mon Mar 24 21:17:31 2014

@<TRIPOS>MOLECULE
4g34_924_1_ligand
   47    51     1     0     0
SMALL
NO_CHARGES


@<TRIPOS>ATOM
      1 N1         47.0180   -9.9350    7.0460 N.pl3     1 9241101     0.0000 
      2 C2         47.2140  -10.6190    8.2440 C.ar      1 9241101     0.0000 
      3 N3         46.8670  -10.0060    9.3830 N.ar      1 9241101     0.0000 
      4 C4         47.0400  -10.6300   10.5460 C.ar      1 9241101     0.0000 
      5 C5         47.5620  -11.8880   10.7040 C.ar      1 9241101     0.0000 
      6 C6         47.9120  -12.5040    9.5250 C.ar      1 9241101     0.0000 
      7 S7         48.5950  -14.0780    9.4050 S.3       1 9241101     0.0000 
      8 C8         48.6580  -13.9650    7.6940 C.2       1 9241101     0.0000 
      9 C9         48.1840  -12.7580    7.2220 C.2       1 9241101     0.0000 
     10 C10        48.1470  -12.5700    5.7850 C.ar      1 9241101     0.0000 
     11 C11        46.9230  -12.4340    5.1510 C.ar      1 9241101     0.0000 
     12 C12        46.8350  -12.3090    3.7800 C.ar      1 9241101     0.0000 
     13 C13        48.0130  -12.3230    3.0670 C.ar      1 9241101     0.0000 
     14 N14        48.2080  -12.2130    1.6830 N.am      1 9241101     0.0000 
     15 C15        49.6250  -12.2820    1.3920 C.3       1 9241101     0.0000 
     16 C16        50.3490  -12.4390    2.7180 C.3       1 9241101     0.0000 
     17 C17        49.2240  -12.4450    3.6860 C.ar      1 9241101     0.0000 
     18 C18        49.3190  -12.5800    5.0510 C.ar      1 9241101     0.0000 
     19 C19        47.2030  -12.3330    0.7390 C.2       1 9241101     0.0000 
     20 O20        46.0080  -12.2190    0.9750 O.2       1 9241101     0.0000 
     21 C21        47.6820  -12.5850   -0.6600 C.3       1 9241101     0.0000 
     22 C22        47.6830  -11.3020   -1.4080 C.ar      1 9241101     0.0000 
     23 C23        48.8780  -10.7000   -1.7390 C.ar      1 9241101     0.0000 
     24 C24        48.8870   -9.5020   -2.4270 C.ar      1 9241101     0.0000 
     25 C25        47.6980   -8.9060   -2.7890 C.ar      1 9241101     0.0000 
     26 C26        46.5000   -9.5050   -2.4630 C.ar      1 9241101     0.0000 
     27 C27        46.4950  -10.6990   -1.7720 C.ar      1 9241101     0.0000 
     28 C28        47.7510  -11.8990    8.2780 C.ar      1 9241101     0.0000 
     29 H          46.8391  -10.5003    6.2408 H         1 9241101     0.0000 
     30 H          47.0731   -8.9377    7.0946 H         1 9241101     0.0000 
     31 H          46.7500  -10.1158   11.4495 H         1 9241101     0.0000 
     32 H          47.6783  -12.3192   11.5921 H         1 9241101     0.0000 
     33 H          49.0028  -14.7264    7.2805 H         1 9241101     0.0000 
     34 H          46.0537  -12.4262    5.7226 H         1 9241101     0.0000 
     35 H          45.9383  -12.2108    3.3169 H         1 9241101     0.0000 
     36 H          49.9754  -11.3746    0.9133 H         1 9241101     0.0000 
     37 H          49.8597  -13.1368    0.7678 H         1 9241101     0.0000 
     38 H          50.9801  -11.6027    2.8770 H         1 9241101     0.0000 
     39 H          50.8643  -13.3649    2.7316 H         1 9241101     0.0000 
     40 H          50.2211  -12.6842    5.5100 H         1 9241101     0.0000 
     41 H          47.0202  -13.2998   -1.1463 H         1 9241101     0.0000 
     42 H          48.6883  -12.9996   -0.6292 H         1 9241101     0.0000 
     43 H          49.7717  -11.1455   -1.4720 H         1 9241101     0.0000 
     44 H          49.7846   -9.0544   -2.6693 H         1 9241101     0.0000 
     45 H          47.7046   -8.0115   -3.3040 H         1 9241101     0.0000 
     46 H          45.6095   -9.0620   -2.7348 H         1 9241101     0.0000 
     47 H          45.5953  -11.1464   -1.5244 H         1 9241101     0.0000 
@<TRIPOS>BOND
     1    2    1 1    
     2   29    1 1    
     3   30    1 1    
     4    3    2 ar   
     5   28    2 ar   
     6    4    3 ar   
     7    5    4 ar   
     8   31    4 1    
     9    6    5 ar   
    10   32    5 1    
    11    7    6 1    
    12   28    6 ar   
    13    8    7 1    
    14    9    8 2    
    15   33    8 1    
    16   10    9 1    
    17   28    9 1    
    18   11   10 ar   
    19   18   10 ar   
    20   12   11 ar   
    21   34   11 1    
    22   13   12 ar   
    23   35   12 1    
    24   14   13 1    
    25   17   13 ar   
    26   15   14 1    
    27   19   14 am   
    28   16   15 1    
    29   36   15 1    
    30   37   15 1    
    31   17   16 1    
    32   38   16 1    
    33   39   16 1    
    34   18   17 ar   
    35   40   18 1    
    36   20   19 2    
    37   21   19 1    
    38   22   21 1    
    39   41   21 1    
    40   42   21 1    
    41   23   22 ar   
    42   27   22 ar   
    43   24   23 ar   
    44   43   23 1    
    45   25   24 ar   
    46   44   24 1    
    47   26   25 ar   
    48   45   25 1    
    49   27   26 ar   
    50   46   26 1    
    51   47   27 1    
@<TRIPOS>SUBSTRUCTURE
     1 9241101     1 GROUP   
@<TRIPOS>SET

