#    Name: 4oas_2SW_2_INTS_M
#    Modification time : Tue Mar 25 13:35:51 2014

@<TRIPOS>MOLECULE
4oas_2SW_2_INTS_M
   86     0     9     0     0
SMALL
NO_CHARGES


@<TRIPOS>ATOM
      1 CA        -32.5770   13.5825  -55.3740 C.3       3 GLC5        0.0000 
      2 CA        -32.7110   11.7400  -54.3020 C.3       9 GLL5        0.0000 
      3 CA        -32.4430   15.4250  -56.4460 C.3       6 GLP5        0.0000 
      4 CA        -31.9205   10.9175  -56.1815 C.3       3 GLC5        0.0000 
      5 CA        -31.4040   11.2680  -54.4570 C.3       9 GLL5        0.0000 
      6 CA        -32.4370   10.5670  -57.9060 C.3       6 GLP5        0.0000 
      7 CA        -30.7660   11.4305  -57.1250 C.3       3 GLC5        0.0000 
      8 CA        -30.3710   12.0710  -55.6050 C.3       9 GLL5        0.0000 
      9 CA        -31.1610   10.7900  -58.6450 C.3       6 GLP5        0.0000 
     10 CA        -30.1485   13.8870  -56.1635 C.3       3 GLC5        0.0000 
     11 CA        -29.9260   15.7030  -56.7220 C.3       6 GLP5        0.0000 
     12 CA        -28.6135   11.6515  -56.0895 C.3       3 GLC5        0.0000 
     13 CA        -26.8560   11.2320  -56.5740 C.3       6 GLP5        0.0000 
     14 CA        -38.3135   13.2055  -55.2370 C.3       3 GLC5        0.0000 
     15 CA        -37.7380   11.7110  -54.4810 C.3       9 GLL5        0.0000 
     16 CA        -38.8890   14.7000  -55.9930 C.3       6 GLP5        0.0000 
     17 NZ        -38.6290    9.6750  -57.0610 N.4       2 LYC4        0.0000 
     18 NZ        -36.9580   10.0530  -56.1010 N.4       8 LYL4        0.0000 
     19 NZ        -40.3000    9.2970  -58.0210 N.4       5 LYP4        0.0000 
     20 N         -35.6810   10.3640  -56.5065 N.am      1 SEC2        0.0000 
     21 N         -36.9580   10.0530  -56.1010 N.am      7 SEL2        0.0000 
     22 N         -34.4040   10.6750  -56.9120 N.am      4 SEP2        0.0000 
     23 NZ        -39.6510    9.9345  -57.0770 N.4       2 LYC4        0.0000 
     24 NZ        -39.0020   10.5720  -56.1330 N.4       8 LYL4        0.0000 
     25 N         -39.6510    9.9345  -57.0770 N.am      1 SEC2        0.0000 
     26 N         -39.0020   10.5720  -56.1330 N.am      7 SEL2        0.0000 
     27 N         -40.3000    9.2970  -58.0210 N.am      4 SEP2        0.0000 
     28 CA        -37.6895   15.9400  -52.9015 C.3       3 GLC5        0.0000 
     29 CA        -37.4890   15.1480  -50.9130 C.3       9 GLL5        0.0000 
     30 CA        -37.8900   16.7320  -54.8900 C.3       6 GLP5        0.0000 
     31 CA        -35.5915   15.9785  -48.9315 C.3       3 GLC5        0.0000 
     32 CA        -37.0180   16.4020  -50.2080 C.3       9 GLL5        0.0000 
     33 CA        -34.1650   15.5550  -47.6550 C.3       6 GLP5        0.0000 
     34 CA        -37.0760   18.1005  -50.0325 C.3       3 GLC5        0.0000 
     35 CA        -37.1340   19.7990  -49.8570 C.3       6 GLP5        0.0000 
     36 CA        -38.2850   14.8065  -47.8950 C.3       3 GLC5        0.0000 
     37 CA        -37.3700   13.4130  -49.1200 C.3       9 GLL5        0.0000 
     38 CA        -39.2000   16.2000  -46.6700 C.3       6 GLP5        0.0000 
     39 CA        -36.0185   15.0595  -54.2000 C.3       3 GLC5        0.0000 
     40 CA        -34.4400   14.7570  -52.8780 C.3       9 GLL5        0.0000 
     41 CA        -37.5970   15.3620  -55.5220 C.3       6 GLP5        0.0000 
     42 CA        -30.8150   17.3405  -50.2420 C.3       3 GLC5        0.0000 
     43 CA        -31.4880   17.3360  -52.1740 C.3       9 GLL5        0.0000 
     44 CA        -30.1420   17.3450  -48.3100 C.3       6 GLP5        0.0000 
     45 CA        -32.8485   18.2410  -51.4160 C.3       3 GLC5        0.0000 
     46 CA        -34.2090   19.1460  -50.6580 C.3       6 GLP5        0.0000 
     47 CA        -30.4890   18.8860  -53.1730 C.3       3 GLC5        0.0000 
     48 CA        -29.4900   20.4360  -54.1720 C.3       6 GLP5        0.0000 
     49 CA        -32.4020   18.8710  -53.3070 C.3       3 GLC5        0.0000 
     50 CA        -33.3160   20.4060  -54.4400 C.3       6 GLP5        0.0000 
     51 CA        -30.5615   14.0035  -51.5875 C.3       3 GLC5        0.0000 
     52 CA        -32.3120   15.0130  -51.0680 C.3       9 GLL5        0.0000 
     53 CA        -28.8110   12.9940  -52.1070 C.3       6 GLP5        0.0000 
     54 CA        -31.2270   16.1790  -49.6890 C.3       3 GLC5        0.0000 
     55 CA        -34.8800   10.4845  -45.1860 C.3       3 GLC5        0.0000 
     56 CA        -36.4210   10.5110  -46.2900 C.3       9 GLL5        0.0000 
     57 CA        -33.3390   10.4580  -44.0820 C.3       6 GLP5        0.0000 
     58 CA        -38.8425   14.0580  -46.7530 C.3       3 GLC5        0.0000 
     59 CA        -38.4850   11.9160  -46.8360 C.3       9 GLL5        0.0000 
     60 CA        -35.3220   11.7525  -44.5185 C.3       3 GLC5        0.0000 
     61 CA        -36.3590   12.9570  -45.9830 C.3       9 GLL5        0.0000 
     62 CA        -34.2850   10.5480  -43.0540 C.3       6 GLP5        0.0000 
     63 CA        -35.2620   14.2560  -46.8190 C.3       3 GLC5        0.0000 
     64 CA        -35.7770   14.6570  -45.0295 C.3       3 GLC5        0.0000 
     65 CA        -35.1950   16.3570  -44.0760 C.3       6 GLP5        0.0000 
     66 CA        -37.7795   14.5785  -46.3265 C.3       3 GLC5        0.0000 
     67 CA        -33.3162   11.4053  -55.7407 C.3       3 GLC5        0.0000 
     68 CA        -33.5740   11.1590  -53.3290 C.3       9 GLL5        0.0000 
     69 CA        -33.4900   11.3610  -57.6660 C.3       6 GLP5        0.0000 
     70 CA        -29.8493   12.3317  -53.5690 C.3       3 GLC5        0.0000 
     71 CA        -29.5870   10.3100  -52.5292 C.3       3 GLC5        0.0000 
     72 CA        -30.9350   10.2130  -53.6610 C.3       9 GLL5        0.0000 
     73 CA        -27.8140   10.6990  -51.8800 C.3       6 GLP5        0.0000 
     74 CA        -35.6107   14.6090  -48.7115 C.3       3 GLC5        0.0000 
     75 CA        -36.7430   13.9130  -50.4160 C.3       9 GLL5        0.0000 
     76 CA        -38.7963   16.1480  -49.2993 C.3       3 GLC5        0.0000 
     77 CA        -40.3390   16.5210  -48.0380 C.3       6 GLP5        0.0000 
     78 CA        -38.9567   16.4705  -51.1337 C.3       3 GLC5        0.0000 
     79 CA        -40.6600   17.1660  -51.7070 C.3       6 GLP5        0.0000 
     80 CA        -33.2290   15.3733  -54.6825 C.3       3 GLC5        0.0000 
     81 CA        -33.6368   17.5430  -51.5830 C.3       3 GLC5        0.0000 
     82 CA        -33.5900   15.8860  -52.9600 C.3       9 GLL5        0.0000 
     83 CA        -30.8358   16.2590  -53.6745 C.3       3 GLC5        0.0000 
     84 CA        -32.5390   15.9940  -52.0560 C.3       9 GLL5        0.0000 
     85 CA        -29.6580   15.8530  -55.2340 C.3       6 GLP5        0.0000 
     86 CA        -33.4507   15.0072  -49.3445 C.3       3 GLC5        0.0000 
@<TRIPOS>BOND
@<TRIPOS>SUBSTRUCTURE
     1 SEC2       20 GROUP        1 X    SEC  0     ROOT SEC X 2
     2 LYC4       17 GROUP        1 X    LYC  0     **** LYC X 4
     3 GLC5        1 GROUP        1 X    GLC  0     **** GLC X 6
     4 SEP2       22 GROUP        1 Y    SEP  0     ROOT SEP Y 9
     5 LYP4       19 GROUP        1 Y    LYP  0     **** LYP Y 11
     6 GLP5        3 GROUP        1 Y    GLP  0     **** GLP Y 13
     7 SEL2       21 GROUP        1 Z    SEL  0     ROOT SEL Z 16
     8 LYL4       18 GROUP        1 Z    LYL  0     **** LYL Z 18
     9 GLL5        2 GROUP        1 Z    GLL  0     **** GLL Z 20
@<TRIPOS>SET

