#    Name: 4oas_2SW_2_ligand
#    Modification time : Tue Mar 25 13:35:51 2014

@<TRIPOS>MOLECULE
4oas_2SW_2_ligand
   71    73     1     0     0
SMALL
NO_CHARGES


@<TRIPOS>ATOM
      1 C17       -32.7110   11.7400  -54.3020 C.ar      1 2SW201      0.0000 
      2 C16       -31.4040   11.2680  -54.4570 C.ar      1 2SW201      0.0000 
      3 CL2       -30.3710   12.0710  -55.6050 Cl        1 2SW201      0.0000 
      4 C15       -30.9350   10.2130  -53.6610 C.ar      1 2SW201      0.0000 
      5 C14       -31.7850    9.6290  -52.6960 C.ar      1 2SW201      0.0000 
      6 C13       -33.1010   10.1080  -52.5320 C.ar      1 2SW201      0.0000 
      7 C6        -33.5740   11.1590  -53.3290 C.ar      1 2SW201      0.0000 
      8 C2        -34.9680   11.6830  -53.1260 C.3       1 2SW201      0.0000 
      9 C3        -36.0090   10.5820  -53.1870 C.3       1 2SW201      0.0000 
     10 C4        -37.4090   11.1460  -53.1070 C.3       1 2SW201      0.0000 
     11 C21       -37.7380   11.7110  -54.4810 C.3       1 2SW201      0.0000 
     12 C23       -37.8860   10.7210  -55.6350 C.2       1 2SW201      0.0000 
     13 O3        -36.9580   10.0530  -56.1010 O.co2     1 2SW201      0.0000 
     14 O2        -39.0020   10.5720  -56.1330 O.co2     1 2SW201      0.0000 
     15 C24       -38.2950    9.9610  -52.6680 C.3       1 2SW201      0.0000 
     16 C5        -37.6150   12.3020  -52.0700 C.2       1 2SW201      0.0000 
     17 O1        -38.7550   12.6730  -51.7900 O.2       1 2SW201      0.0000 
     18 N1        -36.5110   12.8930  -51.4770 N.am      1 2SW201      0.0000 
     19 C18       -36.7430   13.9130  -50.4160 C.3       1 2SW201      0.0000 
     20 C19       -37.4890   15.1480  -50.9130 C.3       1 2SW201      0.0000 
     21 C22       -37.0180   16.4020  -50.2080 C.3       1 2SW201      0.0000 
     22 C20       -37.3700   13.4130  -49.1200 C.3       1 2SW201      0.0000 
     23 C1        -35.1280   12.5550  -51.8400 C.3       1 2SW201      0.0000 
     24 C7        -34.2260   13.7700  -51.9010 C.ar      1 2SW201      0.0000 
     25 C8        -34.4400   14.7570  -52.8780 C.ar      1 2SW201      0.0000 
     26 C9        -33.5900   15.8860  -52.9600 C.ar      1 2SW201      0.0000 
     27 C10       -32.5390   15.9940  -52.0560 C.ar      1 2SW201      0.0000 
     28 CL1       -31.4880   17.3360  -52.1740 Cl        1 2SW201      0.0000 
     29 C11       -32.3120   15.0130  -51.0680 C.ar      1 2SW201      0.0000 
     30 C12       -33.1610   13.9060  -51.0000 C.ar      1 2SW201      0.0000 
     31 S1        -36.4240   12.0640  -48.5270 S.o2      1 2SW201      0.0000 
     32 O4        -35.0200   12.3850  -48.5430 O.2       1 2SW201      0.0000 
     33 O5        -36.8820   10.8950  -49.2060 O.2       1 2SW201      0.0000 
     34 C25       -36.9460   11.8450  -46.8470 C.3       1 2SW201      0.0000 
     35 C26       -36.4210   10.5110  -46.2900 C.3       1 2SW201      0.0000 
     36 C27       -38.4850   11.9160  -46.8360 C.3       1 2SW201      0.0000 
     37 C28       -36.3590   12.9570  -45.9830 C.3       1 2SW201      0.0000 
     38 H         -33.0601   12.5057  -54.8845 H         1 2SW201      0.0000 
     39 H         -29.9815    9.8645  -53.7754 H         1 2SW201      0.0000 
     40 H         -31.4451    8.8589  -52.1168 H         1 2SW201      0.0000 
     41 H         -33.7109    9.6833  -51.8261 H         1 2SW201      0.0000 
     42 H         -35.1912   12.3755  -53.9852 H         1 2SW201      0.0000 
     43 H         -35.8484    9.8881  -52.3570 H         1 2SW201      0.0000 
     44 H         -35.8930   10.0281  -54.1229 H         1 2SW201      0.0000 
     45 H         -36.9521   12.4588  -54.7568 H         1 2SW201      0.0000 
     46 H         -38.6822   12.3072  -54.4049 H         1 2SW201      0.0000 
     47 H         -35.7120   14.3125  -50.1101 H         1 2SW201      0.0000 
     48 H         -38.5597   15.0115  -50.7385 H         1 2SW201      0.0000 
     49 H         -37.3280   15.2522  -51.9895 H         1 2SW201      0.0000 
     50 H         -38.3378   13.0045  -49.2593 H         1 2SW201      0.0000 
     51 H         -37.3209   14.1237  -48.3355 H         1 2SW201      0.0000 
     52 H         -34.7009   11.9102  -51.0041 H         1 2SW201      0.0000 
     53 H         -35.2181   14.6627  -53.5400 H         1 2SW201      0.0000 
     54 H         -33.7537   16.5944  -53.6669 H         1 2SW201      0.0000 
     55 H         -31.5373   15.1164  -50.4156 H         1 2SW201      0.0000 
     56 H         -33.0052   13.1838  -50.2839 H         1 2SW201      0.0000 
     57 H         -38.2547    9.2051  -53.3214 H         1 2SW201      0.0000 
     58 H         -38.0143    9.5963  -51.7802 H         1 2SW201      0.0000 
     59 H         -39.2557   10.2261  -52.5855 H         1 2SW201      0.0000 
     60 H         -36.0431   16.5678  -50.3568 H         1 2SW201      0.0000 
     61 H         -37.5057   17.2139  -50.5289 H         1 2SW201      0.0000 
     62 H         -37.1585   16.3473  -49.2194 H         1 2SW201      0.0000 
     63 H         -35.4219   10.4702  -46.3039 H         1 2SW201      0.0000 
     64 H         -36.7071   10.3657  -45.3429 H         1 2SW201      0.0000 
     65 H         -36.7536    9.7307  -46.8197 H         1 2SW201      0.0000 
     66 H         -38.8152   12.8447  -47.0047 H         1 2SW201      0.0000 
     67 H         -38.8889   11.3293  -47.5379 H         1 2SW201      0.0000 
     68 H         -38.8639   11.6253  -45.9574 H         1 2SW201      0.0000 
     69 H         -35.3593   12.9566  -46.0059 H         1 2SW201      0.0000 
     70 H         -36.6588   13.8612  -46.2873 H         1 2SW201      0.0000 
     71 H         -36.6303   12.8653  -45.0249 H         1 2SW201      0.0000 
@<TRIPOS>BOND
     1    2    1 ar   
     2    7    1 ar   
     3   38    1 1    
     4    3    2 1    
     5    4    2 ar   
     6    5    4 ar   
     7   39    4 1    
     8    6    5 ar   
     9   40    5 1    
    10    7    6 ar   
    11   41    6 1    
    12    8    7 1    
    13    9    8 1    
    14   23    8 1    
    15   42    8 1    
    16   10    9 1    
    17   43    9 1    
    18   44    9 1    
    19   11   10 1    
    20   15   10 1    
    21   16   10 1    
    22   12   11 1    
    23   45   11 1    
    24   46   11 1    
    25   13   12 ar   
    26   14   12 ar   
    27   57   15 1    
    28   58   15 1    
    29   59   15 1    
    30   17   16 2    
    31   18   16 am   
    32   19   18 1    
    33   23   18 1    
    34   20   19 1    
    35   22   19 1    
    36   47   19 1    
    37   21   20 1    
    38   48   20 1    
    39   49   20 1    
    40   60   21 1    
    41   61   21 1    
    42   62   21 1    
    43   31   22 1    
    44   50   22 1    
    45   51   22 1    
    46   24   23 1    
    47   52   23 1    
    48   25   24 ar   
    49   30   24 ar   
    50   26   25 ar   
    51   53   25 1    
    52   27   26 ar   
    53   54   26 1    
    54   28   27 1    
    55   29   27 ar   
    56   30   29 ar   
    57   55   29 1    
    58   56   30 1    
    59   32   31 2    
    60   33   31 2    
    61   34   31 1    
    62   35   34 1    
    63   36   34 1    
    64   37   34 1    
    65   63   35 1    
    66   64   35 1    
    67   65   35 1    
    68   66   36 1    
    69   67   36 1    
    70   68   36 1    
    71   69   37 1    
    72   70   37 1    
    73   71   37 1    
@<TRIPOS>SUBSTRUCTURE
     1 2SW201      1 GROUP   
@<TRIPOS>SET

