#    Name: 3EG5_1_CAVITY_N1_6.mol2
#    Modification time : Mon Mar 10 13:17:10 2014

@<TRIPOS>MOLECULE
3EG5_1_CAVITY_N1_6.mol2
   48     0     4     0     0
SMALL
NO_CHARGES


@<TRIPOS>ATOM
      1 N         -41.8288   17.6217   -3.0890 N.2       1 ALA2        0.0000 
      2 O         -42.8950   18.5886   -6.1185 O.2       1 ALA2        0.0000 
      3 N         -42.9718   17.7597   -4.8707 N.2       1 ALA2        0.0000 
      4 CA        -43.0485   16.9308   -3.6229 C.3       3 GLY6        0.0000 
      5 CZ        -43.8845   20.3845  -10.3959 C.ar      2 PHE5        0.0000 
      6 CZ        -44.1147   17.8978   -6.6525 C.ar      2 PHE5        0.0000 
      7 N         -44.1914   17.0688   -5.4047 N.2       1 ALA2        0.0000 
      8 CA        -44.2681   16.2399   -4.1569 C.3       3 GLY6        0.0000 
      9 CA        -45.0275   20.5225  -12.1776 C.3       3 GLY6        0.0000 
     10 CA        -45.1042   19.6936  -10.9298 C.3       3 GLY6        0.0000 
     11 CZ        -45.1809   18.8647   -9.6820 C.ar      2 PHE5        0.0000 
     12 CA        -45.2576   18.0358   -8.4342 C.3       3 GLY6        0.0000 
     13 N         -48.2169   19.4287   -7.6908 N.2       1 ALA2        0.0000 
     14 N         -49.4366   18.7379   -8.2248 N.2       1 ALA2        0.0000 
     15 CA        -46.9205   20.9485   -8.4047 C.3       3 GLY6        0.0000 
     16 CA        -46.9972   20.1196   -7.1569 C.3       3 GLY6        0.0000 
     17 CA        -40.9590   16.5798   -3.7276 C.3       3 GLY6        0.0000 
     18 CZ        -41.9485   18.3756   -8.0050 C.ar      2 PHE5        0.0000 
     19 CA        -42.0252   17.5467   -6.7572 C.3       3 GLY6        0.0000 
     20 CA        -42.1020   16.7178   -5.5094 C.3       3 GLY6        0.0000 
     21 CZ        -43.0915   18.5137   -9.7867 C.ar      2 PHE5        0.0000 
     22 CZ        -43.1682   17.6848   -8.5389 C.ar      2 PHE5        0.0000 
     23 CA        -43.2449   16.8558   -7.2911 C.3       3 GLY6        0.0000 
     24 CA        -43.3216   16.0269   -6.0433 C.3       3 GLY6        0.0000 
     25 CA        -44.2344   18.6517  -11.5685 C.3       3 GLY6        0.0000 
     26 CA        -44.3111   17.8228  -10.3207 C.3       3 GLY6        0.0000 
     27 CA        -44.3879   16.9939   -9.0729 C.3       3 GLY6        0.0000 
     28 O         -45.4541   17.9608  -12.1024 O.2       1 ALA2        0.0000 
     29 CA        -45.5308   17.1319  -10.8546 C.3       3 GLY6        0.0000 
     30 CZ        -41.0020   18.1626   -9.8915 C.ar      2 PHE5        0.0000 
     31 O         -42.2217   17.4718  -10.4254 O.2       1 ALA2        0.0000 
     32 O         -42.2984   16.6428   -9.1776 O.2       1 ALA2        0.0000 
     33 CA        -43.5181   15.9520   -9.7115 C.3       3 GLY6        0.0000 
     34 CA        -42.6986   18.6636   -2.4503 C.3       3 GLY6        0.0000 
     35 O         -43.8415   18.8016   -4.2321 O.2       1 ALA2        0.0000 
     36 N         -43.9183   17.9727   -2.9843 N.2       1 ALA2        0.0000 
     37 N         -44.9845   18.9397   -6.0138 N.2       1 ALA2        0.0000 
     38 N         -46.2472   19.8316  -12.7116 N.2       1 ALA2        0.0000 
     39 O         -46.3239   19.0027  -11.4638 O.2       1 ALA2        0.0000 
     40 CA        -46.4006   18.1738  -10.2160 C.3       3 GLY6        0.0000 
     41 N         -45.1379   17.2819   -3.5182 N.2       1 ALA2        0.0000 
     42 CZ        -45.9740   20.7355  -10.2912 C.ar      2 PHE5        0.0000 
     43 CZ        -46.0507   19.9066   -9.0434 C.ar      2 PHE5        0.0000 
     44 CA        -46.1274   19.0777   -7.7956 C.3       3 GLY6        0.0000 
     45 N         -46.2042   18.2488   -6.5477 N.2       1 ALA2        0.0000 
     46 DU        -47.2704   19.2157   -9.5773 H         4 CUB7        0.0000 
     47 CA        -47.3471   18.3868   -8.3295 C.3       3 GLY6        0.0000 
     48 N         -47.4238   17.5579   -7.0817 N.2       1 ALA2        0.0000 
@<TRIPOS>BOND
@<TRIPOS>SUBSTRUCTURE
     1 ALA2        1 GROUP   
     2 PHE5        5 GROUP   
     3 GLY6        4 GROUP   
     4 CUB7       46 GROUP   
@<TRIPOS>SET

