#    Name: 3eg5_GNP_1_INTS_M
#    Modification time : Tue Mar 25 01:48:38 2014

@<TRIPOS>MOLECULE
3eg5_GNP_1_INTS_M
   70     0    15     0     0
SMALL
NO_CHARGES


@<TRIPOS>ATOM
      1 N         -39.2360   21.2955   -9.9170 N.am      2 SEC2        0.0000 
      2 N         -38.2270   20.4020   -9.9670 N.am     12 SEL2        0.0000 
      3 N         -40.2450   22.1890   -9.8670 N.am      7 SEP2        0.0000 
      4 Zn        -38.7745   17.3675   -8.1280 Zn        4 ZIC7        0.0000 
      5 Zn        -38.5730   18.4380   -8.3940 Zn       14 ZIL7        0.0000 
      6 Zn        -38.9760   16.2970   -7.8620 Zn        9 ZIP7        0.0000 
      7 N         -37.9565   17.6280   -7.5875 N.am      2 SEC2        0.0000 
      8 N         -38.5730   18.4380   -8.3940 N.am     12 SEL2        0.0000 
      9 N         -37.3400   16.8180   -6.7810 N.am      7 SEP2        0.0000 
     10 N         -37.8890   18.9180   -7.2145 N.am      2 SEC2        0.0000 
     11 N         -37.2050   19.3980   -6.0350 N.am      7 SEP2        0.0000 
     12 NZ        -37.2410   17.3425  -11.5625 N.4       3 LYC4        0.0000 
     13 NZ        -37.5430   18.2520  -10.7300 N.4      13 LYL4        0.0000 
     14 NZ        -36.9390   16.4330  -12.3950 N.4       8 LYP4        0.0000 
     15 N         -37.2410   17.3425  -11.5625 N.am      2 SEC2        0.0000 
     16 N         -37.5430   18.2520  -10.7300 N.am     12 SEL2        0.0000 
     17 N         -36.9390   16.4330  -12.3950 N.am      7 SEP2        0.0000 
     18 N         -36.1225   18.4155  -11.0155 N.am      2 SEC2        0.0000 
     19 N         -34.7020   18.5790  -11.3010 N.am      7 SEP2        0.0000 
     20 NZ        -38.7130   16.5230  -12.0735 N.4       3 LYC4        0.0000 
     21 NZ        -40.4870   16.6130  -11.7520 N.4      13 LYL4        0.0000 
     22 N         -41.2870   17.3015  -13.0685 N.am      2 SEC2        0.0000 
     23 N         -40.4870   16.6130  -11.7520 N.am     12 SEL2        0.0000 
     24 N         -42.0870   17.9900  -14.3850 N.am      7 SEP2        0.0000 
     25 N         -41.7425   16.1620  -12.4760 N.am      2 SEC2        0.0000 
     26 N         -42.9980   15.7110  -13.2000 N.am      7 SEP2        0.0000 
     27 N         -41.1160   15.2085  -11.6855 N.am      2 SEC2        0.0000 
     28 N         -41.7450   13.8040  -11.6190 N.am      7 SEP2        0.0000 
     29 Zn        -39.6770   16.4135   -8.5360 Zn        4 ZIC7        0.0000 
     30 Zn        -40.3780   16.5300   -9.2100 Zn       14 ZIL7        0.0000 
     31 N         -40.7870   14.9880   -9.0030 N.am      2 SEC2        0.0000 
     32 N         -40.3780   16.5300   -9.2100 N.am     12 SEL2        0.0000 
     33 N         -41.1960   13.4460   -8.7960 N.am      7 SEP2        0.0000 
     34 N         -42.6190   16.6110  -11.8530 N.am      2 SEC2        0.0000 
     35 N         -42.2400   17.5110  -10.5060 N.am     12 SEL2        0.0000 
     36 N         -43.5495   14.4550   -8.5275 N.am      2 SEC2        0.0000 
     37 N         -43.2980   15.7120   -9.2690 N.am     12 SEL2        0.0000 
     38 N         -43.8010   13.1980   -7.7860 N.am      7 SEP2        0.0000 
     39 CA        -43.6355   19.5150  -11.7340 C.3       5 GLC5        0.0000 
     40 CA        -44.8730   19.0140  -10.3850 C.3      15 GLL5        0.0000 
     41 CA        -42.3980   20.0160  -13.0830 C.3      10 GLP5        0.0000 
     42 CA        -46.1475   20.6990   -8.0725 C.3       5 GLC5        0.0000 
     43 CA        -47.2230   19.2320   -9.3230 C.3      15 GLL5        0.0000 
     44 CA        -45.0720   22.1660   -6.8220 C.3      10 GLP5        0.0000 
     45 CA        -48.5840   12.6200  -11.4895 C.3       5 GLC5        0.0000 
     46 CA        -49.0060   14.6380  -12.3370 C.3      15 GLL5        0.0000 
     47 CA        -48.1620   10.6020  -10.6420 C.3      10 GLP5        0.0000 
     48 N         -49.6420   11.2170  -12.8645 N.am      2 SEC2        0.0000 
     49 N         -49.7410   12.5270  -13.1930 N.am     12 SEL2        0.0000 
     50 N         -49.5430    9.9070  -12.5360 N.am      7 SEP2        0.0000 
     51 N         -50.5860   11.7270  -12.0575 N.am      2 SEC2        0.0000 
     52 N         -51.4310   10.9270  -10.9220 N.am      7 SEP2        0.0000 
     53 O         -51.8115   13.6730  -14.2980 O.2       1 ALC1        0.0000 
     54 O         -51.0600   14.3700  -13.4020 O.2      11 ALL1        0.0000 
     55 O         -52.5630   12.9760  -15.1940 O.2       6 ALP1        0.0000 
     56 O         -52.5280   14.5440  -14.4475 O.2       1 ALC1        0.0000 
     57 O         -52.4930   16.1120  -13.7010 O.2      11 ALL1        0.0000 
     58 O         -53.4425   15.1010  -14.1950 O.2       1 ALC1        0.0000 
     59 O         -54.3920   14.0900  -14.6890 O.2       6 ALP1        0.0000 
     60 CA        -44.3817   20.0805   -9.2378 C.3       5 GLC5        0.0000 
     61 CA        -46.3520   19.3280  -10.5740 C.3      15 GLL5        0.0000 
     62 CA        -43.1510   20.9900   -7.9960 C.3      10 GLP5        0.0000 
     63 CA        -47.0005   16.9215   -8.7325 C.3       5 GLC5        0.0000 
     64 CA        -46.2790   15.1680   -7.9910 C.3      10 GLP5        0.0000 
     65 CA        -49.1645   16.5825   -9.5578 C.3       5 GLC5        0.0000 
     66 CA        -48.2210   18.1180   -9.6250 C.3      15 GLL5        0.0000 
     67 CA        -50.1310   15.1260   -8.7340 C.3      10 GLP5        0.0000 
     68 CA        -48.3545   15.2538  -13.9420 C.3       5 GLC5        0.0000 
     69 CA        -49.3640   15.9630  -12.1990 C.3      15 GLL5        0.0000 
     70 CA        -47.5240   15.2070  -15.6160 C.3      10 GLP5        0.0000 
@<TRIPOS>BOND
@<TRIPOS>SUBSTRUCTURE
     1 ALC1       53 GROUP        1 X    ALC  0     ROOT ALC X 1
     2 SEC2        1 GROUP        1 X    SEC  0     **** SEC X 2
     3 LYC4       12 GROUP        1 X    LYC  0     **** LYC X 4
     4 ZIC7        4 GROUP        1 X    ZIC  0     **** ZIC X 5
     5 GLC5       39 GROUP        1 X    GLC  0     **** GLC X 6
     6 ALP1       55 GROUP        1 Y    ALP  0     ROOT ALP Y 8
     7 SEP2        3 GROUP        1 Y    SEP  0     **** SEP Y 9
     8 LYP4       14 GROUP        1 Y    LYP  0     **** LYP Y 11
     9 ZIP7        6 GROUP        1 Y    ZIP  0     **** ZIP Y 12
    10 GLP5       41 GROUP        1 Y    GLP  0     **** GLP Y 13
    11 ALL1       54 GROUP        1 Z    ALL  0     ROOT ALL Z 15
    12 SEL2        2 GROUP        1 Z    SEL  0     **** SEL Z 16
    13 LYL4       13 GROUP        1 Z    LYL  0     **** LYL Z 18
    14 ZIL7        5 GROUP        1 Z    ZIL  0     **** ZIL Z 19
    15 GLL5       40 GROUP        1 Z    GLL  0     **** GLL Z 20
@<TRIPOS>SET

