#    Name: 3eg5_GNP_1_ligand
#    Modification time : Tue Mar 25 01:48:38 2014

@<TRIPOS>MOLECULE
3eg5_GNP_1_ligand
   44    46     1     0     0
SMALL
NO_CHARGES


@<TRIPOS>ATOM
      1 PG        -38.5400   18.9310   -9.8170 P.3       1 GNP179      0.0000 
      2 O1G       -38.2270   20.4020   -9.9670 O.co2     1 GNP179      0.0000 
      3 O2G       -38.5730   18.4380   -8.3940 O.co2     1 GNP179      0.0000 
      4 O3G       -37.5430   18.2520  -10.7300 O.co2     1 GNP179      0.0000 
      5 N3B       -40.0040   18.6690  -10.3890 N.4       1 GNP179      0.0000 
      6 PB        -40.7320   17.2550  -10.4500 P.3       1 GNP179      0.0000 
      7 O1B       -40.4870   16.6130  -11.7520 O.co2     1 GNP179      0.0000 
      8 O2B       -40.3780   16.5300   -9.2100 O.co2     1 GNP179      0.0000 
      9 O3A       -42.2400   17.5110  -10.5060 O.3       1 GNP179      0.0000 
     10 PA        -43.2590   17.1920   -9.4130 P.3       1 GNP179      0.0000 
     11 O1A       -43.2980   15.7120   -9.2690 O.co2     1 GNP179      0.0000 
     12 O2A       -43.0090   17.9620   -8.1710 O.co2     1 GNP179      0.0000 
     13 O5'       -44.6440   17.6490  -10.0230 O.3       1 GNP179      0.0000 
     14 C5'       -44.8730   19.0140  -10.3850 C.3       1 GNP179      0.0000 
     15 C4'       -46.3520   19.3280  -10.5740 C.3       1 GNP179      0.0000 
     16 O4'       -46.9050   18.4110  -11.5500 O.3       1 GNP179      0.0000 
     17 C3'       -47.2230   19.2320   -9.3230 C.3       1 GNP179      0.0000 
     18 O3'       -47.9070   20.4560   -9.1210 O.3       1 GNP179      0.0000 
     19 C2'       -48.2210   18.1180   -9.6250 C.3       1 GNP179      0.0000 
     20 O2'       -49.5430   18.4500   -9.2520 O.3       1 GNP179      0.0000 
     21 C1'       -48.1750   17.9600  -11.1380 C.3       1 GNP179      0.0000 
     22 N9        -48.3130   16.5620  -11.5380 N.pl3     1 GNP179      0.0000 
     23 C8        -47.3930   15.5640  -11.3190 C.2       1 GNP179      0.0000 
     24 N7        -47.7620   14.4040  -11.7770 N.2       1 GNP179      0.0000 
     25 C5        -49.0060   14.6380  -12.3370 C.2       1 GNP179      0.0000 
     26 C6        -49.8940   13.7390  -12.9810 C.2       1 GNP179      0.0000 
     27 O6        -49.7410   12.5270  -13.1930 O.2       1 GNP179      0.0000 
     28 N1        -51.0600   14.3700  -13.4020 N.am      1 GNP179      0.0000 
     29 C2        -51.3210   15.6990  -13.2220 C.2       1 GNP179      0.0000 
     30 N2        -52.4930   16.1120  -13.7010 N.pl3     1 GNP179      0.0000 
     31 N3        -50.5060   16.5580  -12.6200 N.2       1 GNP179      0.0000 
     32 C4        -49.3640   15.9630  -12.1990 C.2       1 GNP179      0.0000 
     33 H         -44.3525   19.2731  -11.3281 H         1 GNP179      0.0000 
     34 H         -44.4795   19.7062   -9.6146 H         1 GNP179      0.0000 
     35 H         -46.4422   20.3456  -10.9684 H         1 GNP179      0.0000 
     36 H         -46.6186   18.9374   -8.5115 H         1 GNP179      0.0000 
     37 H         -47.8671   17.2146   -9.1933 H         1 GNP179      0.0000 
     38 H         -48.9530   18.5564  -11.5635 H         1 GNP179      0.0000 
     39 H         -46.5274   15.7528  -10.8454 H         1 GNP179      0.0000 
     40 H         -51.7869   13.7725  -13.8932 H         1 GNP179      0.0000 
     41 H         -52.6758   17.0927  -13.6316 H         1 GNP179      0.0000 
     42 H         -53.0847   15.4042  -14.0869 H         1 GNP179      0.0000 
     43 H         -48.8509   20.1946   -8.9193 H         1 GNP179      0.0000 
     44 H         -50.0242   18.6046  -10.1149 H         1 GNP179      0.0000 
@<TRIPOS>BOND
     1    2    1 ar   
     2    3    1 ar   
     3    4    1 ar   
     4    5    1 1    
     5    6    5 1    
     6    7    6 ar   
     7    8    6 ar   
     8    9    6 1    
     9   10    9 1    
    10   11   10 ar   
    11   12   10 ar   
    12   13   10 1    
    13   14   13 1    
    14   15   14 1    
    15   33   14 1    
    16   34   14 1    
    17   16   15 1    
    18   17   15 1    
    19   35   15 1    
    20   21   16 1    
    21   18   17 1    
    22   19   17 1    
    23   36   17 1    
    24   43   18 1    
    25   20   19 1    
    26   21   19 1    
    27   37   19 1    
    28   44   20 1    
    29   22   21 1    
    30   38   21 1    
    31   23   22 1    
    32   32   22 1    
    33   24   23 2    
    34   39   23 1    
    35   25   24 1    
    36   26   25 1    
    37   32   25 2    
    38   27   26 2    
    39   28   26 am   
    40   29   28 1    
    41   40   28 1    
    42   30   29 1    
    43   31   29 2    
    44   41   30 1    
    45   42   30 1    
    46   32   31 1    
@<TRIPOS>SUBSTRUCTURE
     1 GNP179      1 GROUP   
@<TRIPOS>SET

