#    Name: 2ome_NAD_5_INTS_M
#    Modification time : Tue Mar 25 22:59:09 2014

@<TRIPOS>MOLECULE
2ome_NAD_5_INTS_M
   89     0     9     0     0
SMALL
NO_CHARGES


@<TRIPOS>ATOM
      1 N          13.2190  -24.5250   54.2555 N.am      2 SEC2        0.0000 
      2 N          12.5530  -23.5220   54.9510 N.am      8 SEL2        0.0000 
      3 N          13.8850  -25.5280   53.5600 N.am      5 SEP2        0.0000 
      4 N          12.9765  -23.1815   56.3310 N.am      2 SEC2        0.0000 
      5 N          13.4000  -22.8410   57.7110 N.am      5 SEP2        0.0000 
      6 CA         10.5145  -21.9225   49.3965 C.3       3 GLC5        0.0000 
      7 CA         10.6630  -21.2650   51.4250 C.3       9 GLL5        0.0000 
      8 CA         10.3660  -22.5800   47.3680 C.3       6 GLP5        0.0000 
      9 O          12.7395  -20.1390   50.1555 O.2       1 ALC1        0.0000 
     10 O          12.7890  -20.0760   51.5850 O.2       7 ALL1        0.0000 
     11 O          12.6900  -20.2020   48.7260 O.2       4 ALP1        0.0000 
     12 CA         10.3625  -16.9565   50.4080 C.3       3 GLC5        0.0000 
     13 CA         10.7220  -18.8610   51.1980 C.3       9 GLL5        0.0000 
     14 CA         10.0030  -15.0520   49.6180 C.3       6 GLP5        0.0000 
     15 O          12.0930  -17.9845   49.5305 O.2       1 ALC1        0.0000 
     16 O          11.6900  -17.9160   50.8140 O.2       7 ALL1        0.0000 
     17 O          12.4960  -18.0530   48.2470 O.2       4 ALP1        0.0000 
     18 O          12.1900  -19.0590   49.7700 O.2       1 ALC1        0.0000 
     19 CA         10.1775  -21.0765   48.7205 C.3       3 GLC5        0.0000 
     20 CA          9.9890  -19.5730   50.0730 C.3       9 GLL5        0.0000 
     21 CA          8.3675  -20.5275   49.4565 C.3       3 GLC5        0.0000 
     22 CA          6.7460  -21.4820   48.8400 C.3       6 GLP5        0.0000 
     23 N           6.0920  -16.9660   50.2710 N.am      2 SEC2        0.0000 
     24 N           6.9570  -17.7710   49.2220 N.am      8 SEL2        0.0000 
     25 N           5.2270  -16.1610   51.3200 N.am      5 SEP2        0.0000 
     26 N           5.4550  -17.9255   49.2430 N.am      2 SEC2        0.0000 
     27 N           3.9530  -18.0800   49.2640 N.am      5 SEP2        0.0000 
     28 CA          8.7805  -17.1645   45.9425 C.3       3 GLC5        0.0000 
     29 CA          6.9050  -17.9120   46.7230 C.3       9 GLL5        0.0000 
     30 CA         10.6560  -16.4170   45.1620 C.3       6 GLP5        0.0000 
     31 CA          4.7705  -17.4835   47.1200 C.3       3 GLC5        0.0000 
     32 CA          2.6360  -17.0550   47.5170 C.3       6 GLP5        0.0000 
     33 CA          5.3755  -18.8910   45.4300 C.3       3 GLC5        0.0000 
     34 CA          3.8460  -19.8700   44.1370 C.3       6 GLP5        0.0000 
     35 CA          7.7280  -20.5540   45.0765 C.3       3 GLC5        0.0000 
     36 CA          8.7270  -19.1230   45.8620 C.3       9 GLL5        0.0000 
     37 CA          6.7290  -21.9850   44.2910 C.3       6 GLP5        0.0000 
     38 CA          9.5465  -20.8515   46.6150 C.3       3 GLC5        0.0000 
     39 CA         10.6285  -18.8995   45.6405 C.3       3 GLC5        0.0000 
     40 CA         12.5300  -18.6760   45.4190 C.3       6 GLP5        0.0000 
     41 CA          9.6915  -17.7700   45.5120 C.3       3 GLC5        0.0000 
     42 CA          7.7365  -20.3025   47.3510 C.3       3 GLC5        0.0000 
     43 CA          9.4540  -20.7095   47.7845 C.3       3 GLC5        0.0000 
     44 CA          8.5420  -18.8390   48.2010 C.3       9 GLL5        0.0000 
     45 CA          9.5990  -17.6280   46.6815 C.3       3 GLC5        0.0000 
     46 N          11.5880  -26.9340   53.5950 N.am      2 SEC2        0.0000 
     47 N          10.7050  -25.8950   54.0070 N.am      8 SEL2        0.0000 
     48 N          12.4710  -27.9730   53.1830 N.am      5 SEP2        0.0000 
     49 CA          8.8405  -27.1270   53.8425 C.3       3 GLC5        0.0000 
     50 CA          7.7150  -25.2570   53.6880 C.3       9 GLL5        0.0000 
     51 CA          9.9660  -28.9970   53.9970 C.3       6 GLP5        0.0000 
     52 CA          4.9295  -25.8350   51.9760 C.3       3 GLC5        0.0000 
     53 CA          6.1770  -25.3150   53.6140 C.3       9 GLL5        0.0000 
     54 CA          3.6820  -26.3550   50.3380 C.3       6 GLP5        0.0000 
     55 CA          4.5215  -24.6395   57.5120 C.3       3 GLC5        0.0000 
     56 CA          5.2020  -25.6620   55.7410 C.3       9 GLL5        0.0000 
     57 CA          3.8410  -23.6170   59.2830 C.3       6 GLP5        0.0000 
     58 CA          4.0410  -27.1390   53.0185 C.3       3 GLC5        0.0000 
     59 CA          4.8830  -26.8370   54.8000 C.3       9 GLL5        0.0000 
     60 CA          3.1990  -27.4410   51.2370 C.3       6 GLP5        0.0000 
     61 CA          3.6680  -28.2515   53.2485 C.3       3 GLC5        0.0000 
     62 CA          4.1370  -29.0620   55.2600 C.3       9 GLL5        0.0000 
     63 CA          5.8550  -31.1645   54.6625 C.3       3 GLC5        0.0000 
     64 CA          4.2230  -30.3020   55.8580 C.3       9 GLL5        0.0000 
     65 CA          7.4870  -32.0270   53.4670 C.3       6 GLP5        0.0000 
     66 N           3.4350  -33.5055   56.8805 N.am      2 SEC2        0.0000 
     67 N           2.7650  -32.1790   56.6560 N.am      8 SEL2        0.0000 
     68 N           4.1050  -34.8320   57.1050 N.am      5 SEP2        0.0000 
     69 O           3.0475  -30.6705   53.2540 O.2       1 ALC1        0.0000 
     70 O           2.4100  -31.2560   54.4560 O.2       7 ALL1        0.0000 
     71 O           3.6850  -30.0850   52.0520 O.2       4 ALP1        0.0000 
     72 O           1.3540  -32.2995   54.0340 O.2       1 ALC1        0.0000 
     73 O           0.2980  -33.3430   53.6120 O.2       4 ALP1        0.0000 
     74 CA          8.0720  -28.6895   55.1465 C.3       3 GLC5        0.0000 
     75 CA          6.1780  -28.3820   56.2960 C.3       9 GLL5        0.0000 
     76 CA         12.1890  -22.7280   51.9525 C.3       3 GLC5        0.0000 
     77 CA         10.1630  -22.1430   52.5590 C.3       9 GLL5        0.0000 
     78 CA         13.9650  -23.7520   51.9130 C.3       6 GLP5        0.0000 
     79 CA          8.7090  -22.0980   50.9540 C.3       3 GLC5        0.0000 
     80 CA          7.0050  -22.4920   49.9160 C.3       6 GLP5        0.0000 
     81 CA          7.2942  -19.9554   48.3118 C.3       3 GLC5        0.0000 
     82 CA          7.3810  -18.1250   48.0090 C.3       9 GLL5        0.0000 
     83 CA          5.5560  -23.0760   53.6040 C.3       3 GLC5        0.0000 
     84 CA          5.2870  -21.2110   53.0310 C.3       6 GLP5        0.0000 
     85 CA          4.5373  -31.9108   57.6732 C.3       3 GLC5        0.0000 
     86 CA          4.3150  -33.3810   59.0630 C.3       6 GLP5        0.0000 
     87 CA          6.9147  -31.4645   55.7218 C.3       3 GLC5        0.0000 
     88 CA          5.2960  -30.5790   56.7090 C.3       9 GLL5        0.0000 
     89 CA          8.0380  -32.8310   54.6250 C.3       6 GLP5        0.0000 
@<TRIPOS>BOND
@<TRIPOS>SUBSTRUCTURE
     1 ALC1        9 GROUP        1 X    ALC  0     ROOT ALC X 1
     2 SEC2        1 GROUP        1 X    SEC  0     **** SEC X 2
     3 GLC5        6 GROUP        1 X    GLC  0     **** GLC X 6
     4 ALP1       11 GROUP        1 Y    ALP  0     ROOT ALP Y 8
     5 SEP2        3 GROUP        1 Y    SEP  0     **** SEP Y 9
     6 GLP5        8 GROUP        1 Y    GLP  0     **** GLP Y 13
     7 ALL1       10 GROUP        1 Z    ALL  0     ROOT ALL Z 15
     8 SEL2        2 GROUP        1 Z    SEL  0     **** SEL Z 16
     9 GLL5        7 GROUP        1 Z    GLL  0     **** GLL Z 20
@<TRIPOS>SET

