#    Name: 2ome_NAD_5_ligand
#    Modification time : Tue Mar 25 22:59:09 2014

@<TRIPOS>MOLECULE
2ome_NAD_5_ligand
   70    74     1     0     0
SMALL
NO_CHARGES


@<TRIPOS>ATOM
      1 PA         11.2270  -22.8790   54.8720 P.3       1 NAD901      0.0000 
      2 O1A        11.0640  -22.0870   56.1220 O.co2     1 NAD901      0.0000 
      3 O2A        12.5530  -23.5220   54.9510 O.co2     1 NAD901      0.0000 
      4 O5B        11.0750  -21.9330   53.5980 O.3       1 NAD901      0.0000 
      5 C5B        10.1630  -22.1430   52.5590 C.3       1 NAD901      0.0000 
      6 C4B        10.6630  -21.2650   51.4250 C.3       1 NAD901      0.0000 
      7 O4B         9.5870  -20.7970   50.6410 O.3       1 NAD901      0.0000 
      8 C3B        11.4100  -20.0120   51.9030 C.3       1 NAD901      0.0000 
      9 O3B        12.7890  -20.0760   51.5850 O.3       1 NAD901      0.0000 
     10 C2B        10.7220  -18.8610   51.1980 C.3       1 NAD901      0.0000 
     11 O2B        11.6900  -17.9160   50.8140 O.3       1 NAD901      0.0000 
     12 C1B         9.9890  -19.5730   50.0730 C.3       1 NAD901      0.0000 
     13 N9A         8.8220  -18.8840   49.5290 N.pl3     1 NAD901      0.0000 
     14 C8A         7.8230  -18.2210   50.1700 C.2       1 NAD901      0.0000 
     15 N7A         6.9570  -17.7710   49.2220 N.2       1 NAD901      0.0000 
     16 C5A         7.3810  -18.1250   48.0090 C.ar      1 NAD901      0.0000 
     17 C6A         6.9050  -17.9120   46.7230 C.ar      1 NAD901      0.0000 
     18 N6A         5.7980  -17.2510   46.4720 N.pl3     1 NAD901      0.0000 
     19 N1A         7.5650  -18.4130   45.6420 N.ar      1 NAD901      0.0000 
     20 C2A         8.7270  -19.1230   45.8620 C.ar      1 NAD901      0.0000 
     21 N3A         9.2060  -19.3330   47.1490 N.ar      1 NAD901      0.0000 
     22 C4A         8.5420  -18.8390   48.2010 C.ar      1 NAD901      0.0000 
     23 O3          9.9180  -23.7920   54.7300 O.3       1 NAD901      0.0000 
     24 PN          9.8820  -25.3440   55.1160 P.3       1 NAD901      0.0000 
     25 O1N        10.7050  -25.8950   54.0070 O.co2     1 NAD901      0.0000 
     26 O2N        10.3370  -25.5800   56.5370 O.co2     1 NAD901      0.0000 
     27 O5D         8.2980  -25.6200   54.9170 O.3       1 NAD901      0.0000 
     28 C5D         7.7150  -25.2570   53.6880 C.3       1 NAD901      0.0000 
     29 C4D         6.1770  -25.3150   53.6140 C.3       1 NAD901      0.0000 
     30 O4D         5.6500  -26.6530   53.6280 O.3       1 NAD901      0.0000 
     31 C3D         5.4730  -24.5670   54.7400 C.3       1 NAD901      0.0000 
     32 O3D         4.2510  -24.0670   54.2410 O.3       1 NAD901      0.0000 
     33 C2D         5.2020  -25.6620   55.7410 C.3       1 NAD901      0.0000 
     34 O2D         4.1450  -25.3470   56.6300 O.3       1 NAD901      0.0000 
     35 C1D         4.8830  -26.8370   54.8000 C.3       1 NAD901      0.0000 
     36 N1N         5.1040  -28.1350   55.4700 N.pl3     1 NAD901      0.0000 
     37 C2N         4.1370  -29.0620   55.2600 C.ar      1 NAD901      0.0000 
     38 C3N         4.2230  -30.3020   55.8580 C.ar      1 NAD901      0.0000 
     39 C7N         3.1070  -31.2830   55.6100 C.2       1 NAD901      0.0000 
     40 O7N         2.7650  -32.1790   56.6560 O.2       1 NAD901      0.0000 
     41 N7N         2.4100  -31.2560   54.4560 N.am      1 NAD901      0.0000 
     42 C4N         5.2960  -30.5790   56.7090 C.ar      1 NAD901      0.0000 
     43 C5N         6.2870  -29.6170   56.9280 C.ar      1 NAD901      0.0000 
     44 C6N         6.1780  -28.3820   56.2960 C.ar      1 NAD901      0.0000 
     45 H           9.1606  -21.8254   52.8088 H         1 NAD901      0.0000 
     46 H          10.1527  -23.1654   52.2087 H         1 NAD901      0.0000 
     47 H          11.3545  -21.8374   50.8129 H         1 NAD901      0.0000 
     48 H          11.2233  -19.9130   52.9569 H         1 NAD901      0.0000 
     49 H           9.9877  -18.4805   51.8851 H         1 NAD901      0.0000 
     50 H          10.7179  -19.7701   49.2859 H         1 NAD901      0.0000 
     51 H           7.7431  -18.0940   51.1137 H         1 NAD901      0.0000 
     52 H           5.2921  -16.9212   47.2691 H         1 NAD901      0.0000 
     53 H           5.5622  -17.1380   45.5068 H         1 NAD901      0.0000 
     54 H           9.2551  -19.5083   45.0559 H         1 NAD901      0.0000 
     55 H           8.0970  -25.8978   52.8440 H         1 NAD901      0.0000 
     56 H           8.0075  -24.2125   53.3843 H         1 NAD901      0.0000 
     57 H           5.8672  -24.8217   52.6724 H         1 NAD901      0.0000 
     58 H           6.1149  -23.8643   55.1404 H         1 NAD901      0.0000 
     59 H           6.1307  -25.8956   56.2225 H         1 NAD901      0.0000 
     60 H           3.8082  -26.7363   54.5625 H         1 NAD901      0.0000 
     61 H           3.3260  -28.8482   54.6496 H         1 NAD901      0.0000 
     62 H           2.7065  -30.5829   53.7785 H         1 NAD901      0.0000 
     63 H           1.6586  -31.9115   54.3804 H         1 NAD901      0.0000 
     64 H           5.3576  -31.4922   57.1756 H         1 NAD901      0.0000 
     65 H           7.0754  -29.8202   57.5414 H         1 NAD901      0.0000 
     66 H           6.8966  -27.6643   56.4486 H         1 NAD901      0.0000 
     67 H          12.8235  -20.0933   50.5857 H         1 NAD901      0.0000 
     68 H          11.8972  -18.1311   49.8596 H         1 NAD901      0.0000 
     69 H           3.6097  -24.1418   55.0047 H         1 NAD901      0.0000 
     70 H           4.5717  -25.3011   57.5332 H         1 NAD901      0.0000 
@<TRIPOS>BOND
     1    2    1 ar   
     2    3    1 ar   
     3    4    1 1    
     4   23    1 1    
     5    5    4 1    
     6    6    5 1    
     7   45    5 1    
     8   46    5 1    
     9    7    6 1    
    10    8    6 1    
    11   47    6 1    
    12   12    7 1    
    13    9    8 1    
    14   10    8 1    
    15   48    8 1    
    16   67    9 1    
    17   11   10 1    
    18   12   10 1    
    19   49   10 1    
    20   68   11 1    
    21   13   12 1    
    22   50   12 1    
    23   14   13 1    
    24   22   13 1    
    25   15   14 2    
    26   51   14 1    
    27   16   15 1    
    28   17   16 ar   
    29   22   16 ar   
    30   18   17 1    
    31   19   17 ar   
    32   52   18 1    
    33   53   18 1    
    34   20   19 ar   
    35   21   20 ar   
    36   54   20 1    
    37   22   21 ar   
    38   24   23 1    
    39   25   24 ar   
    40   26   24 ar   
    41   27   24 1    
    42   28   27 1    
    43   29   28 1    
    44   55   28 1    
    45   56   28 1    
    46   30   29 1    
    47   31   29 1    
    48   57   29 1    
    49   35   30 1    
    50   32   31 1    
    51   33   31 1    
    52   58   31 1    
    53   69   32 1    
    54   34   33 1    
    55   35   33 1    
    56   59   33 1    
    57   70   34 1    
    58   36   35 1    
    59   60   35 1    
    60   37   36 ar   
    61   44   36 ar   
    62   38   37 ar   
    63   61   37 1    
    64   39   38 1    
    65   42   38 ar   
    66   40   39 2    
    67   41   39 am   
    68   62   41 1    
    69   63   41 1    
    70   43   42 ar   
    71   64   42 1    
    72   44   43 ar   
    73   65   43 1    
    74   66   44 1    
@<TRIPOS>SUBSTRUCTURE
     1 NAD901      1 GROUP   
@<TRIPOS>SET

