#    Name: 1y8p_ATP_1_INTS_M
#    Modification time : Tue Mar 25 10:52:39 2014

@<TRIPOS>MOLECULE
1y8p_ATP_1_INTS_M
   72     0    15     0     0
SMALL
NO_CHARGES


@<TRIPOS>ATOM
      1 Zn        -48.9110   17.2140   75.3385 Zn        4 ZIC7        0.0000 
      2 Zn        -49.0310   16.3230   75.7930 Zn       14 ZIL7        0.0000 
      3 Zn        -48.7910   18.1050   74.8840 Zn        9 ZIP7        0.0000 
      4 N         -50.0010   15.0070   75.9015 N.am      2 SEC2        0.0000 
      5 N         -49.0310   16.3230   75.7930 N.am     12 SEL2        0.0000 
      6 N         -50.9710   13.6910   76.0100 N.am      7 SEP2        0.0000 
      7 N         -47.1020   13.4650   76.3885 N.am      2 SEC2        0.0000 
      8 N         -47.9620   14.3600   77.0930 N.am     12 SEL2        0.0000 
      9 N         -46.2420   12.5700   75.6840 N.am      7 SEP2        0.0000 
     10 N         -48.4330   13.1650   76.5325 N.am      2 SEC2        0.0000 
     11 N         -48.9040   11.9700   75.9720 N.am      7 SEP2        0.0000 
     12 N         -49.4665   14.0255   76.5515 N.am      2 SEC2        0.0000 
     13 NZ        -48.4995   17.8685   78.7420 N.4       3 LYC4        0.0000 
     14 NZ        -47.8880   16.4800   77.9770 N.4      13 LYL4        0.0000 
     15 NZ        -49.1110   19.2570   79.5070 N.4       8 LYP4        0.0000 
     16 N         -48.4995   17.8685   78.7420 N.am      2 SEC2        0.0000 
     17 N         -47.8880   16.4800   77.9770 N.am     12 SEL2        0.0000 
     18 N         -49.1110   19.2570   79.5070 N.am      7 SEP2        0.0000 
     19 N         -44.3340   15.4365   72.8800 N.am      2 SEC2        0.0000 
     20 N         -45.5770   16.0090   72.8690 N.am     12 SEL2        0.0000 
     21 N         -43.0910   14.8640   72.8910 N.am      7 SEP2        0.0000 
     22 Zn        -48.0430   17.8755   74.3520 Zn        4 ZIC7        0.0000 
     23 Zn        -47.2950   17.6460   73.8200 Zn       14 ZIL7        0.0000 
     24 N         -44.9595   16.0355   76.0020 N.am      2 SEC2        0.0000 
     25 N         -46.5340   15.9000   75.5910 N.am     12 SEL2        0.0000 
     26 N         -43.3850   16.1710   76.4130 N.am      7 SEP2        0.0000 
     27 N         -46.3880   14.2350   75.6375 N.am      2 SEC2        0.0000 
     28 N         -51.1920   14.2195   73.2115 N.am      2 SEC2        0.0000 
     29 N         -49.8250   14.1900   72.7190 N.am     12 SEL2        0.0000 
     30 N         -52.5590   14.2490   73.7040 N.am      7 SEP2        0.0000 
     31 Zn        -49.2350   17.3995   74.1735 Zn        4 ZIC7        0.0000 
     32 Zn        -49.6790   16.6940   73.4630 Zn       14 ZIL7        0.0000 
     33 N         -50.5675   17.7815   72.7335 N.am      2 SEC2        0.0000 
     34 N         -49.6790   16.6940   73.4630 N.am     12 SEL2        0.0000 
     35 N         -51.4560   18.8690   72.0040 N.am      7 SEP2        0.0000 
     36 CA        -49.8115   15.4075   69.9925 C.3       5 GLC5        0.0000 
     37 CA        -47.7080   15.0160   70.5580 C.3      15 GLL5        0.0000 
     38 CA        -51.9150   15.7990   69.4270 C.3      10 GLP5        0.0000 
     39 CA        -47.6505   15.2090   67.3155 C.3       5 GLC5        0.0000 
     40 CA        -47.1020   15.8040   69.4060 C.3      15 GLL5        0.0000 
     41 CA        -48.1990   14.6140   65.2250 C.3      10 GLP5        0.0000 
     42 N         -44.6885   18.2120   71.0430 N.am      2 SEC2        0.0000 
     43 N         -45.0860   16.7610   70.3320 N.am     12 SEL2        0.0000 
     44 N         -44.2910   19.6630   71.7540 N.am      7 SEP2        0.0000 
     45 N         -43.7620   16.0170   70.1930 N.am      2 SEC2        0.0000 
     46 N         -42.4380   15.2730   70.0540 N.am      7 SEP2        0.0000 
     47 N         -43.8350   17.2935   69.4550 N.am      2 SEC2        0.0000 
     48 N         -42.5840   17.8260   68.5780 N.am      7 SEP2        0.0000 
     49 O         -43.9350   17.6280   68.1485 O.2       1 ALC1        0.0000 
     50 O         -45.2860   17.4300   67.7190 O.2      11 ALL1        0.0000 
     51 O         -42.5840   17.8260   68.5780 O.2       6 ALP1        0.0000 
     52 CA        -47.8900   16.0490   66.5455 C.3       5 GLC5        0.0000 
     53 CA        -47.5810   17.4840   67.8660 C.3      15 GLL5        0.0000 
     54 CA        -48.5500   23.2245   67.6570 C.3       5 GLC5        0.0000 
     55 CA        -49.9960   21.7920   67.3560 C.3      15 GLL5        0.0000 
     56 CA        -47.1040   24.6570   67.9580 C.3      10 GLP5        0.0000 
     57 CA        -51.3210   22.2960   65.7105 C.3       5 GLC5        0.0000 
     58 CA        -52.6460   22.8000   64.0650 C.3      10 GLP5        0.0000 
     59 O         -51.5130   23.8660   67.4860 O.2       1 ALC1        0.0000 
     60 O         -51.0530   22.5380   67.7410 O.2      11 ALL1        0.0000 
     61 O         -51.9730   25.1940   67.2310 O.2       6 ALP1        0.0000 
     62 CA        -47.6060   23.0905   66.9765 C.3       5 GLC5        0.0000 
     63 CA        -48.1080   21.5240   65.9950 C.3      15 GLL5        0.0000 
     64 CA        -48.2250   20.2960   64.6545 C.3       5 GLC5        0.0000 
     65 CA        -48.3420   19.0680   63.3140 C.3      10 GLP5        0.0000 
     66 CA        -48.4645   19.4025   65.3510 C.3       5 GLC5        0.0000 
     67 CA        -48.5870   19.7370   67.3880 C.3      15 GLL5        0.0000 
     68 CA        -46.6040   13.8075   68.8750 C.3       5 GLC5        0.0000 
     69 CA        -45.8030   12.2050   67.7680 C.3      10 GLP5        0.0000 
     70 CA        -50.1930   21.0903   69.6695 C.3       5 GLC5        0.0000 
     71 CA        -49.7320   20.4570   67.8980 C.3      15 GLL5        0.0000 
     72 CA        -50.5220   21.0560   71.7120 C.3      10 GLP5        0.0000 
@<TRIPOS>BOND
@<TRIPOS>SUBSTRUCTURE
     1 ALC1       49 GROUP        1 X    ALC  0     ROOT ALC X 1
     2 SEC2        4 GROUP        1 X    SEC  0     **** SEC X 2
     3 LYC4       13 GROUP        1 X    LYC  0     **** LYC X 4
     4 ZIC7        1 GROUP        1 X    ZIC  0     **** ZIC X 5
     5 GLC5       36 GROUP        1 X    GLC  0     **** GLC X 6
     6 ALP1       51 GROUP        1 Y    ALP  0     ROOT ALP Y 8
     7 SEP2        6 GROUP        1 Y    SEP  0     **** SEP Y 9
     8 LYP4       15 GROUP        1 Y    LYP  0     **** LYP Y 11
     9 ZIP7        3 GROUP        1 Y    ZIP  0     **** ZIP Y 12
    10 GLP5       38 GROUP        1 Y    GLP  0     **** GLP Y 13
    11 ALL1       50 GROUP        1 Z    ALL  0     ROOT ALL Z 15
    12 SEL2        5 GROUP        1 Z    SEL  0     **** SEL Z 16
    13 LYL4       14 GROUP        1 Z    LYL  0     **** LYL Z 18
    14 ZIL7        2 GROUP        1 Z    ZIL  0     **** ZIL Z 19
    15 GLL5       37 GROUP        1 Z    GLL  0     **** GLL Z 20
@<TRIPOS>SET

