#    Name: 1y8p_ATP_1_ligand
#    Modification time : Tue Mar 25 10:52:39 2014

@<TRIPOS>MOLECULE
1y8p_ATP_1_ligand
   43    45     1     0     0
SMALL
NO_CHARGES


@<TRIPOS>ATOM
      1 PG        -47.8550   15.8120   76.6320 P.3       1 ATP504      0.0000 
      2 O1G       -49.0310   16.3230   75.7930 O.co2     1 ATP504      0.0000 
      3 O2G       -47.9620   14.3600   77.0930 O.co2     1 ATP504      0.0000 
      4 O3G       -47.8880   16.4800   77.9770 O.co2     1 ATP504      0.0000 
      5 PB        -46.6300   16.2760   73.9760 P.3       1 ATP504      0.0000 
      6 O1B       -45.5770   16.0090   72.8690 O.co2     1 ATP504      0.0000 
      7 O2B       -47.2950   17.6460   73.8200 O.co2     1 ATP504      0.0000 
      8 O3B       -46.5340   15.9000   75.5910 O.3       1 ATP504      0.0000 
      9 PA        -49.0520   15.4760   72.7420 P.3       1 ATP504      0.0000 
     10 O1A       -49.8250   14.1900   72.7190 O.co2     1 ATP504      0.0000 
     11 O2A       -49.6790   16.6940   73.4630 O.co2     1 ATP504      0.0000 
     12 O3A       -47.6700   15.1550   73.4780 O.3       1 ATP504      0.0000 
     13 O5'       -48.6950   15.7430   71.2030 O.3       1 ATP504      0.0000 
     14 C5'       -47.7080   15.0160   70.5580 C.3       1 ATP504      0.0000 
     15 C4'       -47.1020   15.8040   69.4060 C.3       1 ATP504      0.0000 
     16 O4'       -48.0820   16.2650   68.4820 O.3       1 ATP504      0.0000 
     17 C3'       -46.3720   17.1010   69.8390 C.3       1 ATP504      0.0000 
     18 O3'       -45.0860   16.7610   70.3320 O.3       1 ATP504      0.0000 
     19 C2'       -46.3060   17.9120   68.5780 C.3       1 ATP504      0.0000 
     20 O2'       -45.2860   17.4300   67.7190 O.3       1 ATP504      0.0000 
     21 C1'       -47.5810   17.4840   67.8660 C.3       1 ATP504      0.0000 
     22 N9        -48.5730   18.5650   68.0390 N.pl3     1 ATP504      0.0000 
     23 C8        -49.5830   18.5070   68.8980 C.2       1 ATP504      0.0000 
     24 N7        -50.3150   19.6460   68.8180 N.2       1 ATP504      0.0000 
     25 C5        -49.7320   20.4570   67.8980 C.ar      1 ATP504      0.0000 
     26 C6        -49.9960   21.7920   67.3560 C.ar      1 ATP504      0.0000 
     27 N6        -51.0530   22.5380   67.7410 N.pl3     1 ATP504      0.0000 
     28 N1        -49.1560   22.2440   66.4370 N.ar      1 ATP504      0.0000 
     29 C2        -48.1080   21.5240   65.9950 C.ar      1 ATP504      0.0000 
     30 N3        -47.8100   20.3110   66.4520 N.ar      1 ATP504      0.0000 
     31 C4        -48.5870   19.7370   67.3880 C.ar      1 ATP504      0.0000 
     32 H         -48.0897   14.0643   70.1351 H         1 ATP504      0.0000 
     33 H         -46.8747   14.7379   71.2351 H         1 ATP504      0.0000 
     34 H         -46.3664   15.1938   68.8906 H         1 ATP504      0.0000 
     35 H         -46.9910   17.5881   70.5442 H         1 ATP504      0.0000 
     36 H         -46.3229   18.9055   68.7475 H         1 ATP504      0.0000 
     37 H         -47.3664   17.3409   66.8366 H         1 ATP504      0.0000 
     38 H         -49.7826   17.7660   69.5018 H         1 ATP504      0.0000 
     39 H         -51.6814   22.1089   68.3898 H         1 ATP504      0.0000 
     40 H         -51.1137   23.4535   67.3432 H         1 ATP504      0.0000 
     41 H         -47.4883   21.9546   65.2387 H         1 ATP504      0.0000 
     42 H         -45.2395   16.4703   71.2764 H         1 ATP504      0.0000 
     43 H         -44.5092   18.0410   67.8714 H         1 ATP504      0.0000 
@<TRIPOS>BOND
     1    2    1 ar   
     2    3    1 ar   
     3    4    1 ar   
     4    8    1 1    
     5    6    5 ar   
     6    7    5 ar   
     7    8    5 1    
     8   12    5 1    
     9   10    9 ar   
    10   11    9 ar   
    11   12    9 1    
    12   13    9 1    
    13   14   13 1    
    14   15   14 1    
    15   32   14 1    
    16   33   14 1    
    17   16   15 1    
    18   17   15 1    
    19   34   15 1    
    20   21   16 1    
    21   18   17 1    
    22   19   17 1    
    23   35   17 1    
    24   42   18 1    
    25   20   19 1    
    26   21   19 1    
    27   36   19 1    
    28   43   20 1    
    29   22   21 1    
    30   37   21 1    
    31   23   22 1    
    32   31   22 1    
    33   24   23 2    
    34   38   23 1    
    35   25   24 1    
    36   26   25 ar   
    37   31   25 ar   
    38   27   26 1    
    39   28   26 ar   
    40   39   27 1    
    41   40   27 1    
    42   29   28 ar   
    43   30   29 ar   
    44   41   29 1    
    45   31   30 ar   
@<TRIPOS>SUBSTRUCTURE
     1 ATP504      1 GROUP   
@<TRIPOS>SET

