#    Name: 3a4t_SFG_1_INTS_M
#    Modification time : Tue Mar 25 11:34:16 2014

@<TRIPOS>MOLECULE
3a4t_SFG_1_INTS_M
   80     0    15     0     0
SMALL
NO_CHARGES


@<TRIPOS>ATOM
      1 OD1        16.5760  -23.2735  -14.1325 O.co2     3 ASC3        0.0000 
      2 OD1        17.7740  -23.4070  -14.7330 O.co2    13 ASL3        0.0000 
      3 OD1        15.3780  -23.1400  -13.5320 O.co2     8 ASP3        0.0000 
      4 O          18.8720  -22.8000  -13.8965 O.2       1 ALC1        0.0000 
      5 O          17.7740  -23.4070  -14.7330 O.2      11 ALL1        0.0000 
      6 O          19.9700  -22.1930  -13.0600 O.2       6 ALP1        0.0000 
      7 O          18.4615  -23.2265  -15.9995 O.2       1 ALC1        0.0000 
      8 O          19.1490  -23.0460  -17.2660 O.2       6 ALP1        0.0000 
      9 O          16.5760  -23.2735  -14.1325 O.2       1 ALC1        0.0000 
     10 O          15.3780  -23.1400  -13.5320 O.2       6 ALP1        0.0000 
     11 CA         19.9245  -23.7580  -14.9455 C.3       5 GLC5        0.0000 
     12 CA         18.0350  -24.9140  -14.8610 C.3      15 GLL5        0.0000 
     13 CA         21.8140  -22.6020  -15.0300 C.3      10 GLP5        0.0000 
     14 NZ         15.2165  -24.9425  -15.9950 N.4       4 LYC4        0.0000 
     15 NZ         16.4290  -25.2260  -16.6970 N.4      14 LYL4        0.0000 
     16 NZ         14.0040  -24.6590  -15.2930 N.4       9 LYP4        0.0000 
     17 N          16.5430  -24.9765  -18.1525 N.am      2 SEC2        0.0000 
     18 N          16.4290  -25.2260  -16.6970 N.am     12 SEL2        0.0000 
     19 N          16.6570  -24.7270  -19.6080 N.am      7 SEP2        0.0000 
     20 N          15.2165  -24.9425  -15.9950 N.am      2 SEC2        0.0000 
     21 N          14.0040  -24.6590  -15.2930 N.am      7 SEP2        0.0000 
     22 CA         17.8330  -24.6160   -8.3710 C.3       5 GLC5        0.0000 
     23 CA         18.8300  -25.3750   -9.7320 C.3      15 GLL5        0.0000 
     24 CA         16.8360  -23.8570   -7.0100 C.3      10 GLP5        0.0000 
     25 CA         20.3730  -22.8890  -10.3015 C.3       5 GLC5        0.0000 
     26 CA         20.2650  -24.9300   -9.9810 C.3      15 GLL5        0.0000 
     27 CA         20.4810  -20.8480  -10.6220 C.3      10 GLP5        0.0000 
     28 CA         19.3305  -23.4755   -8.7025 C.3       5 GLC5        0.0000 
     29 CA         18.3960  -22.0210   -7.4240 C.3      10 GLP5        0.0000 
     30 O          22.9000  -25.3840  -11.2885 O.2       1 ALC1        0.0000 
     31 O          21.9410  -26.1580  -10.8180 O.2      11 ALL1        0.0000 
     32 O          23.8590  -24.6100  -11.7590 O.2       6 ALP1        0.0000 
     33 O          23.5165  -25.8965  -10.5365 O.2       1 ALC1        0.0000 
     34 O          25.0920  -25.6350  -10.2550 O.2       6 ALP1        0.0000 
     35 O          23.6795  -25.2415  -10.1950 O.2       1 ALC1        0.0000 
     36 O          23.5000  -25.8730   -8.6310 O.2      11 ALL1        0.0000 
     37 O          24.2960  -25.7540   -9.4430 O.2       1 ALC1        0.0000 
     38 CA         21.2860  -22.3680   -9.7670 C.3       5 GLC5        0.0000 
     39 CA         22.0910  -23.8880   -8.9120 C.3      15 GLL5        0.0000 
     40 CA         20.2435  -22.9545   -8.1680 C.3       5 GLC5        0.0000 
     41 N          22.2680  -21.3575   -4.7095 N.am      2 SEC2        0.0000 
     42 N          22.7490  -21.5480   -6.0650 N.am     12 SEL2        0.0000 
     43 N          21.7870  -21.1670   -3.3540 N.am      7 SEP2        0.0000 
     44 N          23.4080  -21.3795   -4.6975 N.am      2 SEC2        0.0000 
     45 N          24.0670  -21.2110   -3.3300 N.am      7 SEP2        0.0000 
     46 CA         25.7750  -21.3230   -7.0550 C.3       5 GLC5        0.0000 
     47 CA         24.4840  -19.9410   -7.0150 C.3      15 GLL5        0.0000 
     48 CA         27.0660  -22.7050   -7.0950 C.3      10 GLP5        0.0000 
     49 CA         24.8030  -18.0010   -7.7915 C.3       5 GLC5        0.0000 
     50 CA         25.1220  -16.0610   -8.5680 C.3      10 GLP5        0.0000 
     51 O          26.0335  -18.4995   -5.3055 O.2       1 ALC1        0.0000 
     52 O          24.6790  -19.1040   -5.9250 O.2      11 ALL1        0.0000 
     53 O          27.3880  -17.8950   -4.6860 O.2       6 ALP1        0.0000 
     54 N          26.2290  -18.4895   -8.0555 N.am      2 SEC2        0.0000 
     55 N          25.1770  -19.7400   -8.1780 N.am     12 SEL2        0.0000 
     56 N          27.2810  -17.2390   -7.9330 N.am      7 SEP2        0.0000 
     57 CA         23.2335  -20.6160  -10.5475 C.3       5 GLC5        0.0000 
     58 CA         25.0240  -20.5190   -9.2900 C.3      15 GLL5        0.0000 
     59 CA         21.4430  -20.7130  -11.8050 C.3      10 GLP5        0.0000 
     60 CA         26.1145  -19.3190  -10.6965 C.3       5 GLC5        0.0000 
     61 CA         27.2050  -18.1190  -12.1030 C.3      10 GLP5        0.0000 
     62 CA         25.7145  -21.5540  -10.6660 C.3       5 GLC5        0.0000 
     63 CA         26.4050  -22.5890  -12.0420 C.3      10 GLP5        0.0000 
     64 CA         26.0450  -21.6120   -8.1925 C.3       5 GLC5        0.0000 
     65 N          25.5600  -22.1860   -9.4875 N.am      2 SEC2        0.0000 
     66 N          24.1870  -21.5660   -9.3150 N.am     12 SEL2        0.0000 
     67 N          26.9330  -22.8060   -9.6600 N.am      7 SEP2        0.0000 
     68 CA         18.6932  -26.9793  -14.5747 C.3       5 GLC5        0.0000 
     69 CA         17.5660  -25.5190  -13.5120 C.3      15 GLL5        0.0000 
     70 CA         19.5860  -28.7420  -14.9630 C.3      10 GLP5        0.0000 
     71 CA         22.7122  -27.4423   -9.4960 C.3       5 GLC5        0.0000 
     72 CA         21.2520  -25.9900   -9.5750 C.3      15 GLL5        0.0000 
     73 CA         23.7140  -29.2060   -9.9460 C.3      10 GLP5        0.0000 
     74 CA         24.0625  -24.2297   -7.7178 C.3       5 GLC5        0.0000 
     75 CA         22.1690  -25.3670   -8.5170 C.3      15 GLL5        0.0000 
     76 CA         25.9950  -23.8320   -6.7210 C.3      10 GLP5        0.0000 
     77 CA         22.0635  -20.4722   -8.4835 C.3       5 GLC5        0.0000 
     78 CA         23.4520  -21.8510   -8.1870 C.3      15 GLL5        0.0000 
     79 CA         20.6080  -19.4990   -9.3690 C.3      10 GLP5        0.0000 
     80 CA         24.7570  -22.6388   -7.1595 C.3       5 GLC5        0.0000 
@<TRIPOS>BOND
@<TRIPOS>SUBSTRUCTURE
     1 ALC1        4 GROUP        1 X    ALC  0     ROOT ALC X 1
     2 SEC2       17 GROUP        1 X    SEC  0     **** SEC X 2
     3 ASC3        1 GROUP        1 X    ASC  0     **** ASC X 3
     4 LYC4       14 GROUP        1 X    LYC  0     **** LYC X 4
     5 GLC5       11 GROUP        1 X    GLC  0     **** GLC X 6
     6 ALP1        6 GROUP        1 Y    ALP  0     ROOT ALP Y 8
     7 SEP2       19 GROUP        1 Y    SEP  0     **** SEP Y 9
     8 ASP3        3 GROUP        1 Y    ASP  0     **** ASP Y 10
     9 LYP4       16 GROUP        1 Y    LYP  0     **** LYP Y 11
    10 GLP5       13 GROUP        1 Y    GLP  0     **** GLP Y 13
    11 ALL1        5 GROUP        1 Z    ALL  0     ROOT ALL Z 15
    12 SEL2       18 GROUP        1 Z    SEL  0     **** SEL Z 16
    13 ASL3        2 GROUP        1 Z    ASL  0     **** ASL Z 17
    14 LYL4       15 GROUP        1 Z    LYL  0     **** LYL Z 18
    15 GLL5       12 GROUP        1 Z    GLL  0     **** GLL Z 20
@<TRIPOS>SET

