#    Name: 3a4t_SFG_1_ligand
#    Modification time : Tue Mar 25 11:34:16 2014

@<TRIPOS>MOLECULE
3a4t_SFG_1_ligand
   48    50     1     0     0
SMALL
NO_CHARGES


@<TRIPOS>ATOM
      1 N          17.7740  -23.4070  -14.7330 N.4       1 SFG500      0.0000 
      2 CA         18.0350  -24.9140  -14.8610 C.3       1 SFG500      0.0000 
      3 C          17.3940  -25.6420  -16.0770 C.2       1 SFG500      0.0000 
      4 O          16.4290  -25.2260  -16.6970 O.co2     1 SFG500      0.0000 
      5 OXT        17.7220  -26.7180  -16.5620 O.co2     1 SFG500      0.0000 
      6 CB         17.5660  -25.5190  -13.5120 C.3       1 SFG500      0.0000 
      7 CG         18.1310  -24.8520  -12.2430 C.3       1 SFG500      0.0000 
      8 CD         17.9550  -25.7300  -10.9680 C.3       1 SFG500      0.0000 
      9 NE         16.4900  -25.7470  -10.5800 N.3       1 SFG500      0.0000 
     10 C5'        18.8300  -25.3750   -9.7320 C.3       1 SFG500      0.0000 
     11 C4'        20.2650  -24.9300   -9.9810 C.3       1 SFG500      0.0000 
     12 O4'        20.6920  -23.7520   -9.2730 O.3       1 SFG500      0.0000 
     13 C3'        21.2520  -25.9900   -9.5750 C.3       1 SFG500      0.0000 
     14 O3'        21.9410  -26.1580  -10.8180 O.3       1 SFG500      0.0000 
     15 C2'        22.1690  -25.3670   -8.5170 C.3       1 SFG500      0.0000 
     16 O2'        23.5000  -25.8730   -8.6310 O.3       1 SFG500      0.0000 
     17 C1'        22.0910  -23.8880   -8.9120 C.3       1 SFG500      0.0000 
     18 N9         22.5490  -22.8350   -7.9260 N.pl3     1 SFG500      0.0000 
     19 C8         22.1370  -22.6340   -6.6360 C.2       1 SFG500      0.0000 
     20 N7         22.7490  -21.5480   -6.0650 N.2       1 SFG500      0.0000 
     21 C5         23.5860  -21.0400   -7.0090 C.ar      1 SFG500      0.0000 
     22 C6         24.4840  -19.9410   -7.0150 C.ar      1 SFG500      0.0000 
     23 N6         24.6790  -19.1040   -5.9250 N.pl3     1 SFG500      0.0000 
     24 N1         25.1770  -19.7400   -8.1780 N.ar      1 SFG500      0.0000 
     25 C2         25.0240  -20.5190   -9.2900 C.ar      1 SFG500      0.0000 
     26 N3         24.1870  -21.5660   -9.3150 N.ar      1 SFG500      0.0000 
     27 C4         23.4520  -21.8510   -8.1870 C.ar      1 SFG500      0.0000 
     28 H          19.1229  -25.0607  -14.8913 H         1 SFG500      0.0000 
     29 H          17.8345  -26.5930  -13.4993 H         1 SFG500      0.0000 
     30 H          16.4604  -25.4744  -13.4754 H         1 SFG500      0.0000 
     31 H          17.6227  -23.8982  -12.0811 H         1 SFG500      0.0000 
     32 H          19.1964  -24.6541  -12.3844 H         1 SFG500      0.0000 
     33 H          18.2083  -26.7753  -11.2602 H         1 SFG500      0.0000 
     34 H          18.8376  -26.2636   -9.0542 H         1 SFG500      0.0000 
     35 H          18.2976  -24.5790   -9.1558 H         1 SFG500      0.0000 
     36 H          20.4038  -24.7767  -11.0601 H         1 SFG500      0.0000 
     37 H          20.7713  -26.8193   -9.2444 H         1 SFG500      0.0000 
     38 H          21.7210  -25.4858   -7.5797 H         1 SFG500      0.0000 
     39 H          22.6725  -23.7927   -9.8521 H         1 SFG500      0.0000 
     40 H          21.4818  -23.1992   -6.1740 H         1 SFG500      0.0000 
     41 H          23.8825  -18.9504   -5.3402 H         1 SFG500      0.0000 
     42 H          25.5991  -18.7269   -5.8187 H         1 SFG500      0.0000 
     43 H          25.5865  -20.2803  -10.1495 H         1 SFG500      0.0000 
     44 H          16.7979  -23.2045  -14.6539 H         1 SFG500      0.0000 
     45 H          18.2199  -23.0201  -13.9259 H         1 SFG500      0.0000 
     46 H          18.1148  -22.9023  -15.5262 H         1 SFG500      0.0000 
     47 H          22.6110  -25.4161  -10.8447 H         1 SFG500      0.0000 
     48 H          23.6633  -25.9523   -9.6144 H         1 SFG500      0.0000 
@<TRIPOS>BOND
     1    2    1 1    
     2   44    1 1    
     3   45    1 1    
     4   46    1 1    
     5    3    2 1    
     6    6    2 1    
     7   28    2 1    
     8    4    3 ar   
     9    5    3 ar   
    10    7    6 1    
    11   29    6 1    
    12   30    6 1    
    13    8    7 1    
    14   31    7 1    
    15   32    7 1    
    16    9    8 1    
    17   10    8 1    
    18   33    8 1    
    19   11   10 1    
    20   34   10 1    
    21   35   10 1    
    22   12   11 1    
    23   13   11 1    
    24   36   11 1    
    25   17   12 1    
    26   14   13 1    
    27   15   13 1    
    28   37   13 1    
    29   47   14 1    
    30   16   15 1    
    31   17   15 1    
    32   38   15 1    
    33   48   16 1    
    34   18   17 1    
    35   39   17 1    
    36   19   18 1    
    37   27   18 1    
    38   20   19 2    
    39   40   19 1    
    40   21   20 1    
    41   22   21 ar   
    42   27   21 ar   
    43   23   22 1    
    44   24   22 ar   
    45   41   23 1    
    46   42   23 1    
    47   25   24 ar   
    48   26   25 ar   
    49   43   25 1    
    50   27   26 ar   
@<TRIPOS>SUBSTRUCTURE
     1 SFG500      1 GROUP   
@<TRIPOS>SET

