#    Name: 3bbh_SFG_2_INTS_M
#    Modification time : Mon Mar 24 19:14:29 2014

@<TRIPOS>MOLECULE
3bbh_SFG_2_INTS_M
   70     0     9     0     0
SMALL
NO_CHARGES


@<TRIPOS>ATOM
      1 CA         22.2335   66.9025   28.0550 C.3       3 GLC5        0.0000 
      2 CA         22.3050   64.9200   27.1660 C.3       9 GLL5        0.0000 
      3 CA         22.1620   68.8850   28.9440 C.3       6 GLP5        0.0000 
      4 N          23.2640   63.6430   30.5990 N.am      2 SEC2        0.0000 
      5 N          22.8290   63.4240   28.9680 N.am      8 SEL2        0.0000 
      6 N          23.6990   63.8620   32.2300 N.am      5 SEP2        0.0000 
      7 N          25.1385   65.2495   29.8385 N.am      2 SEC2        0.0000 
      8 N          24.3860   64.9920   28.6780 N.am      8 SEL2        0.0000 
      9 N          25.8910   65.5070   30.9990 N.am      5 SEP2        0.0000 
     10 CA         21.2085   61.3245   25.9125 C.3       3 GLC5        0.0000 
     11 CA         22.5020   62.8890   25.4910 C.3       9 GLL5        0.0000 
     12 CA         19.9150   59.7600   26.3340 C.3       6 GLP5        0.0000 
     13 CA         26.5700   59.4575   25.9615 C.3       3 GLC5        0.0000 
     14 CA         25.0340   60.7940   25.9070 C.3       9 GLL5        0.0000 
     15 CA         28.1060   58.1210   26.0160 C.3       6 GLP5        0.0000 
     16 N          24.3460   58.7220   27.4935 N.am      2 SEC2        0.0000 
     17 N          23.5920   60.1700   27.7350 N.am      8 SEL2        0.0000 
     18 N          25.1000   57.2740   27.2520 N.am      5 SEP2        0.0000 
     19 CA         25.7645   62.2375   29.8720 C.3       3 GLC5        0.0000 
     20 CA         25.5780   61.3150   28.1470 C.3       9 GLL5        0.0000 
     21 CA         25.9510   63.1600   31.5970 C.3       6 GLP5        0.0000 
     22 N          25.4790   58.6435   27.9360 N.am      2 SEC2        0.0000 
     23 N          25.8580   60.0130   28.6200 N.am      8 SEL2        0.0000 
     24 O          26.0075   60.1985   29.9175 O.2       1 ALC1        0.0000 
     25 O          25.8580   60.0130   28.6200 O.2       7 ALL1        0.0000 
     26 O          26.1570   60.3840   31.2150 O.2       4 ALP1        0.0000 
     27 CA         27.4115   59.9530   26.6310 C.3       3 GLC5        0.0000 
     28 CA         26.7170   61.7850   27.2460 C.3       9 GLL5        0.0000 
     29 CA         28.3770   62.1580   26.4390 C.3       3 GLC5        0.0000 
     30 CA         30.0370   62.5310   25.6320 C.3       6 GLP5        0.0000 
     31 N          27.2135   66.3285   25.7380 N.am      2 SEC2        0.0000 
     32 N          27.0720   65.5510   26.8960 N.am      8 SEL2        0.0000 
     33 N          27.3550   67.1060   24.5800 N.am      5 SEP2        0.0000 
     34 CA         26.8425   66.5085   28.9930 C.3       3 GLC5        0.0000 
     35 CA         27.9740   65.2740   28.0200 C.3       9 GLL5        0.0000 
     36 CA         25.7110   67.7430   29.9660 C.3       6 GLP5        0.0000 
     37 CA         28.7680   65.7175   26.0455 C.3       3 GLC5        0.0000 
     38 CA         29.5620   66.1610   24.0710 C.3       6 GLP5        0.0000 
     39 CA         27.5705   66.5425   29.9905 C.3       3 GLC5        0.0000 
     40 CA         28.8570   66.1760   28.8600 C.3       9 GLL5        0.0000 
     41 CA         26.2840   66.9090   31.1210 C.3       6 GLP5        0.0000 
     42 CA         30.8650   65.7325   28.6580 C.3       3 GLC5        0.0000 
     43 CA         32.8730   65.2890   28.4560 C.3       6 GLP5        0.0000 
     44 CA         30.2355   66.4260   27.1260 C.3       3 GLC5        0.0000 
     45 CA         31.6140   66.6760   25.3920 C.3       6 GLP5        0.0000 
     46 O          29.4060   68.5405   29.5325 O.2       1 ALC1        0.0000 
     47 O          28.9150   67.6080   28.6220 O.2       7 ALL1        0.0000 
     48 O          29.8970   69.4730   30.4430 O.2       4 ALP1        0.0000 
     49 O          28.5420   68.4005   27.7630 O.2       1 ALC1        0.0000 
     50 O          28.1690   69.1930   26.9040 O.2       4 ALP1        0.0000 
     51 N          30.8440   65.7070   30.9330 N.am      2 SEC2        0.0000 
     52 N          29.6540   65.6040   29.9290 N.am      8 SEL2        0.0000 
     53 N          32.0340   65.8100   31.9370 N.am      5 SEP2        0.0000 
     54 CA         29.4510   62.1380   30.4665 C.3       3 GLC5        0.0000 
     55 CA         29.6220   64.1250   30.2080 C.3       9 GLL5        0.0000 
     56 CA         29.2800   60.1510   30.7250 C.3       6 GLP5        0.0000 
     57 CA         27.7865   63.6425   30.9025 C.3       3 GLC5        0.0000 
     58 CA         27.9530   65.5170   30.6645 C.3       3 GLC5        0.0000 
     59 CA         29.9200   64.8760   31.8720 C.3       3 GLC5        0.0000 
     60 CA         30.2180   65.6270   33.5360 C.3       6 GLP5        0.0000 
     61 CA         31.3470   64.2595   29.9325 C.3       3 GLC5        0.0000 
     62 CA         33.0720   64.3940   29.6570 C.3       6 GLP5        0.0000 
     63 CA         26.9475   63.4970   29.9440 C.3       3 GLC5        0.0000 
     64 CA         27.9440   63.8340   28.2910 C.3       9 GLL5        0.0000 
     65 CA         27.1140   65.3715   29.7060 C.3       3 GLC5        0.0000 
     66 CA         25.7460   60.0018   23.7987 C.3       3 GLC5        0.0000 
     67 CA         26.8870   59.0710   22.3240 C.3       6 GLP5        0.0000 
     68 CA         24.2675   59.0050   26.5905 C.3       3 GLC5        0.0000 
     69 CA         23.8240   57.0060   26.6100 C.3       6 GLP5        0.0000 
     70 CA         28.9980   63.5425   26.8938 C.3       3 GLC5        0.0000 
@<TRIPOS>BOND
@<TRIPOS>SUBSTRUCTURE
     1 ALC1       24 GROUP        1 X    ALC  0     ROOT ALC X 1
     2 SEC2        4 GROUP        1 X    SEC  0     **** SEC X 2
     3 GLC5        1 GROUP        1 X    GLC  0     **** GLC X 6
     4 ALP1       26 GROUP        1 Y    ALP  0     ROOT ALP Y 8
     5 SEP2        6 GROUP        1 Y    SEP  0     **** SEP Y 9
     6 GLP5        3 GROUP        1 Y    GLP  0     **** GLP Y 13
     7 ALL1       25 GROUP        1 Z    ALL  0     ROOT ALL Z 15
     8 SEL2        5 GROUP        1 Z    SEL  0     **** SEL Z 16
     9 GLL5        2 GROUP        1 Z    GLL  0     **** GLL Z 20
@<TRIPOS>SET

