#    Name: 3bbh_SFG_2_ligand
#    Modification time : Mon Mar 24 19:14:30 2014

@<TRIPOS>MOLECULE
3bbh_SFG_2_ligand
   48    50     1     0     0
SMALL
NO_CHARGES


@<TRIPOS>ATOM
      1 N          22.4420   66.3770   27.0920 N.4       1 SFG206      0.0000 
      2 CA         22.3050   64.9200   27.1660 C.3       1 SFG206      0.0000 
      3 C          23.1760   64.3680   28.3300 C.2       1 SFG206      0.0000 
      4 O          22.8290   63.4240   28.9680 O.co2     1 SFG206      0.0000 
      5 OXT        24.3860   64.9920   28.6780 O.co2     1 SFG206      0.0000 
      6 CB         22.7100   64.3940   25.7700 C.3       1 SFG206      0.0000 
      7 CG         22.5020   62.8890   25.4910 C.3       1 SFG206      0.0000 
      8 CD         23.6490   62.5220   24.5080 C.3       1 SFG206      0.0000 
      9 NE         23.2620   62.8010   23.1130 N.3       1 SFG206      0.0000 
     10 C5'        24.1760   61.0710   24.6400 C.3       1 SFG206      0.0000 
     11 C4'        25.0340   60.7940   25.9070 C.3       1 SFG206      0.0000 
     12 O4'        26.3000   61.5100   25.8690 O.3       1 SFG206      0.0000 
     13 C3'        24.3880   61.2140   27.2350 C.3       1 SFG206      0.0000 
     14 O3'        23.5920   60.1700   27.7350 O.3       1 SFG206      0.0000 
     15 C2'        25.5780   61.3150   28.1470 C.3       1 SFG206      0.0000 
     16 O2'        25.8580   60.0130   28.6200 O.3       1 SFG206      0.0000 
     17 C1'        26.7170   61.7850   27.2460 C.3       1 SFG206      0.0000 
     18 N9         27.0220   63.2220   27.3420 N.pl3     1 SFG206      0.0000 
     19 C8         26.4740   64.2940   26.4590 C.2       1 SFG206      0.0000 
     20 N7         27.0720   65.5510   26.8960 N.2       1 SFG206      0.0000 
     21 C5         27.9740   65.2740   28.0200 C.ar      1 SFG206      0.0000 
     22 C6         28.8570   66.1760   28.8600 C.ar      1 SFG206      0.0000 
     23 N6         28.9150   67.6080   28.6220 N.pl3     1 SFG206      0.0000 
     24 N1         29.6540   65.6040   29.9290 N.ar      1 SFG206      0.0000 
     25 C2         29.6220   64.1250   30.2080 C.ar      1 SFG206      0.0000 
     26 N3         28.7600   63.2460   29.3870 N.ar      1 SFG206      0.0000 
     27 C4         27.9440   63.8340   28.2910 C.ar      1 SFG206      0.0000 
     28 H          21.2780   64.6622   27.3397 H         1 SFG206      0.0000 
     29 H          23.7839   64.6376   25.6014 H         1 SFG206      0.0000 
     30 H          22.1512   64.9746   25.0008 H         1 SFG206      0.0000 
     31 H          21.5706   62.7391   25.0145 H         1 SFG206      0.0000 
     32 H          22.6187   62.3399   26.3865 H         1 SFG206      0.0000 
     33 H          24.5062   63.1918   24.7596 H         1 SFG206      0.0000 
     34 H          24.7796   60.8314   23.7495 H         1 SFG206      0.0000 
     35 H          23.3165   60.3811   24.6419 H         1 SFG206      0.0000 
     36 H          25.2344   59.7254   25.9659 H         1 SFG206      0.0000 
     37 H          23.9359   62.1265   27.1361 H         1 SFG206      0.0000 
     38 H          25.4008   62.0188   28.8886 H         1 SFG206      0.0000 
     39 H          27.5925   61.1954   27.4648 H         1 SFG206      0.0000 
     40 H          25.8825   64.1677   25.7844 H         1 SFG206      0.0000 
     41 H          28.7311   67.9061   27.6853 H         1 SFG206      0.0000 
     42 H          29.1340   68.1772   29.4145 H         1 SFG206      0.0000 
     43 H          30.1785   63.7535   30.9389 H         1 SFG206      0.0000 
     44 H          23.3894   66.6532   26.9306 H         1 SFG206      0.0000 
     45 H          21.8934   66.7645   26.3511 H         1 SFG206      0.0000 
     46 H          22.1473   66.8212   27.9381 H         1 SFG206      0.0000 
     47 H          24.2161   59.6042   28.2739 H         1 SFG206      0.0000 
     48 H          25.9486   60.1117   29.6110 H         1 SFG206      0.0000 
@<TRIPOS>BOND
     1    2    1 1    
     2   44    1 1    
     3   45    1 1    
     4   46    1 1    
     5    3    2 1    
     6    6    2 1    
     7   28    2 1    
     8    4    3 ar   
     9    5    3 ar   
    10    7    6 1    
    11   29    6 1    
    12   30    6 1    
    13    8    7 1    
    14   31    7 1    
    15   32    7 1    
    16    9    8 1    
    17   10    8 1    
    18   33    8 1    
    19   11   10 1    
    20   34   10 1    
    21   35   10 1    
    22   12   11 1    
    23   13   11 1    
    24   36   11 1    
    25   17   12 1    
    26   14   13 1    
    27   15   13 1    
    28   37   13 1    
    29   47   14 1    
    30   16   15 1    
    31   17   15 1    
    32   38   15 1    
    33   48   16 1    
    34   18   17 1    
    35   39   17 1    
    36   19   18 1    
    37   27   18 1    
    38   20   19 2    
    39   40   19 1    
    40   21   20 1    
    41   22   21 ar   
    42   27   21 ar   
    43   23   22 1    
    44   24   22 ar   
    45   41   23 1    
    46   42   23 1    
    47   25   24 ar   
    48   26   25 ar   
    49   43   25 1    
    50   27   26 ar   
@<TRIPOS>SUBSTRUCTURE
     1 SFG206      1 GROUP   
@<TRIPOS>SET

