#    Name: 2AX4_1_CAVITY_N1_6.mol2
#    Modification time : Tue Mar 11 02:37:08 2014

@<TRIPOS>MOLECULE
2AX4_1_CAVITY_N1_6.mol2
   64     0     5     0     0
SMALL
NO_CHARGES


@<TRIPOS>ATOM
      1 OD1       -14.3717   11.6863   14.6354 O.3       3 ASP3        0.0000 
      2 OD1       -18.6444   13.0448   15.0213 O.3       3 ASP3        0.0000 
      3 O         -13.4028   10.0128   13.7633 O.2       2 ALA2        0.0000 
      4 OD1       -14.8270   10.4656   13.8919 O.3       3 ASP3        0.0000 
      5 OD1       -16.2512   10.9185   14.0205 O.3       3 ASP3        0.0000 
      6 OD1       -17.6754   11.3713   14.1491 O.3       3 ASP3        0.0000 
      7 OG        -19.0996   11.8242   14.2778 O.2       1 SER1        0.0000 
      8 OD1       -13.8580    8.7922   13.0198 O.3       3 ASP3        0.0000 
      9 OG        -15.2822    9.2450   13.1484 O.2       1 SER1        0.0000 
     10 OG        -19.5549   10.6036   13.5342 O.2       1 SER1        0.0000 
     11 CA        -20.9791   11.0564   13.6628 C.3       4 GLY6        0.0000 
     12 O         -15.7375    8.0244   12.4048 O.2       2 ALA2        0.0000 
     13 OD1       -14.0363   12.1619   16.6754 O.3       3 ASP3        0.0000 
     14 CA        -13.0673   10.4884   15.8032 C.3       4 GLY6        0.0000 
     15 OD1       -14.4915   10.9413   15.9318 O.3       3 ASP3        0.0000 
     16 OD1       -14.9468    9.7206   15.1883 O.3       3 ASP3        0.0000 
     17 OG        -16.3710   10.1735   15.3169 O.2       1 SER1        0.0000 
     18 OG        -17.7952   10.6263   15.4455 O.2       1 SER1        0.0000 
     19 OG        -19.2194   11.0792   15.5741 O.2       1 SER1        0.0000 
     20 OG        -15.4021    8.5000   14.4448 O.2       1 SER1        0.0000 
     21 O         -14.7072   11.2106   12.5955 O.2       2 ALA2        0.0000 
     22 CA        -16.1314   11.6635   12.7241 C.3       4 GLY6        0.0000 
     23 CA        -17.5556   12.1163   12.8528 C.3       4 GLY6        0.0000 
     24 O         -15.1624    9.9900   11.8520 O.2       2 ALA2        0.0000 
     25 OG        -16.5866   10.4429   11.9806 O.2       1 SER1        0.0000 
     26 OG        -18.0109   10.8957   12.1092 O.2       1 SER1        0.0000 
     27 CA        -19.4351   11.3486   12.2378 C.3       4 GLY6        0.0000 
     28 O         -14.1935    8.3166   10.9798 O.2       2 ALA2        0.0000 
     29 O         -15.6177    8.7694   11.1085 O.2       2 ALA2        0.0000 
     30 CA        -17.0419    9.2223   11.2371 C.3       4 GLY6        0.0000 
     31 O         -16.0729    7.5488   10.3649 O.2       2 ALA2        0.0000 
     32 OD1       -14.1561   11.4169   17.9717 O.3       3 ASP3        0.0000 
     33 OD1       -15.5803   11.8697   18.1004 O.3       3 ASP3        0.0000 
     34 CA        -13.1871    9.7434   17.0996 C.3       4 GLY6        0.0000 
     35 DU        -14.6113   10.1963   17.2282 H         5 CUB7        0.0000 
     36 OD1       -16.0356   10.6491   17.3568 O.3       3 ASP3        0.0000 
     37 OD1       -17.4598   11.1019   17.4854 O.3       3 ASP3        0.0000 
     38 N         -15.0666    8.9756   16.4847 N.2       2 ALA2        0.0000 
     39 N         -16.4908    9.4285   16.6133 N.2       2 ALA2        0.0000 
     40 OG        -17.9150    9.8813   16.7419 O.2       1 SER1        0.0000 
     41 O         -19.3392   10.3342   16.8705 O.2       2 ALA2        0.0000 
     42 OG        -16.9461    8.2079   15.8698 O.2       1 SER1        0.0000 
     43 N         -14.7312    9.4513   18.5246 N.2       2 ALA2        0.0000 
     44 N         -16.1554    9.9041   18.6532 N.2       2 ALA2        0.0000 
     45 O         -18.0348    9.1363   18.0383 O.2       2 ALA2        0.0000 
     46 CA        -13.8340   10.5516    7.0907 C.3       4 GLY6        0.0000 
     47 CA        -15.7135    9.7838    6.4758 C.3       4 GLY6        0.0000 
     48 N         -13.9539    9.8066    8.3871 N.2       2 ALA2        0.0000 
     49 CA        -15.3781   10.2594    8.5157 C.3       4 GLY6        0.0000 
     50 CA        -16.8023   10.7123    8.6443 C.3       4 GLY6        0.0000 
     51 N         -14.4091    8.5859    7.6435 N.2       2 ALA2        0.0000 
     52 OG        -15.8333    9.0388    7.7721 O.2       1 SER1        0.0000 
     53 CA        -16.0116   12.4085   11.4277 C.3       4 GLY6        0.0000 
     54 CA        -17.4358   12.8613   11.5564 C.3       4 GLY6        0.0000 
     55 CA        -15.0426   10.7350   10.5556 C.3       4 GLY6        0.0000 
     56 CA        -16.4668   11.1879   10.6842 C.3       4 GLY6        0.0000 
     57 CA        -17.8910   11.6407   10.8128 C.3       4 GLY6        0.0000 
     58 CA        -14.0737    9.0616    9.6834 C.3       4 GLY6        0.0000 
     59 DU        -15.4979    9.5144    9.8121 H         5 CUB7        0.0000 
     60 CA        -16.9221    9.9673    9.9407 C.3       4 GLY6        0.0000 
     61 CA        -18.3463   10.4201   10.0693 C.3       4 GLY6        0.0000 
     62 OG        -15.9531    8.2938    9.0685 O.2       1 SER1        0.0000 
     63 OG        -17.3774    8.7466    9.1972 O.2       1 SER1        0.0000 
     64 OG        -18.8016    9.1995    9.3258 O.2       1 SER1        0.0000 
@<TRIPOS>BOND
@<TRIPOS>SUBSTRUCTURE
     1 SER1        7 GROUP   
     2 ALA2        3 GROUP   
     3 ASP3        1 GROUP   
     4 GLY6       11 GROUP   
     5 CUB7       35 GROUP   
@<TRIPOS>SET

