#    Name: 2ax4_ADP_1_INTS_M
#    Modification time : Mon Mar 24 19:41:09 2014

@<TRIPOS>MOLECULE
2ax4_ADP_1_INTS_M
   62     0    12     0     0
SMALL
NO_CHARGES


@<TRIPOS>ATOM
      1 NZ        -13.0675    8.5980   14.2025 N.4       3 LYC4        0.0000 
      2 NZ        -13.9160    9.9360   13.1880 N.4      11 LYL4        0.0000 
      3 NZ        -12.2190    7.2600   15.2170 N.4       7 LYP4        0.0000 
      4 N         -12.6730   10.2050   12.4830 N.am      2 SEC2        0.0000 
      5 N         -13.9160    9.9360   13.1880 N.am     10 SEL2        0.0000 
      6 N         -11.4300   10.4740   11.7780 N.am      6 SEP2        0.0000 
      7 NZ        -12.7540    7.4145   13.9150 N.4       3 LYC4        0.0000 
      8 NZ        -13.2890    7.5690   12.6130 N.4      11 LYL4        0.0000 
      9 N         -12.7540    7.4145   13.9150 N.am      2 SEC2        0.0000 
     10 N         -13.2890    7.5690   12.6130 N.am     10 SEL2        0.0000 
     11 N         -12.2190    7.2600   15.2170 N.am      6 SEP2        0.0000 
     12 N         -12.9630    7.0260   11.1490 N.am      2 SEC2        0.0000 
     13 N         -12.6370    6.4830    9.6850 N.am      6 SEP2        0.0000 
     14 N         -13.9015    6.4030   12.0670 N.am      2 SEC2        0.0000 
     15 N         -14.5140    5.2370   11.5210 N.am      6 SEP2        0.0000 
     16 N         -16.5130    7.0945   12.7135 N.am      2 SEC2        0.0000 
     17 N         -15.7280    8.1910   12.9040 N.am     10 SEL2        0.0000 
     18 N         -17.2980    5.9980   12.5230 N.am      6 SEP2        0.0000 
     19 N         -17.0065    8.3115   13.2560 N.am      2 SEC2        0.0000 
     20 N         -18.2850    8.4320   13.6080 N.am      6 SEP2        0.0000 
     21 N         -17.5960    6.8295    9.8110 N.am      2 SEC2        0.0000 
     22 N         -16.4470    7.8430    9.5670 N.am     10 SEL2        0.0000 
     23 N         -18.7450    5.8160   10.0550 N.am      6 SEP2        0.0000 
     24 N         -17.3560    7.4500    8.5635 N.am      2 SEC2        0.0000 
     25 N         -18.2650    7.0570    7.5600 N.am      6 SEP2        0.0000 
     26 N         -13.5440    7.6905   10.3035 N.am      2 SEC2        0.0000 
     27 N         -14.4510    8.8980   10.9220 N.am     10 SEL2        0.0000 
     28 CA        -13.0520    9.7215    8.9560 C.3       4 GLC5        0.0000 
     29 CA        -14.5010    8.9320    7.5850 C.3      12 GLL5        0.0000 
     30 CA        -11.6030   10.5110   10.3270 C.3       8 GLP5        0.0000 
     31 CA        -14.1660    7.3515    8.4080 C.3       4 GLC5        0.0000 
     32 CA        -13.8310    5.7710    9.2310 C.3       8 GLP5        0.0000 
     33 CA        -17.3435    6.6000    5.5965 C.3       4 GLC5        0.0000 
     34 CA        -16.1110    8.2080    4.8600 C.3      12 GLL5        0.0000 
     35 CA        -18.5760    4.9920    6.3330 C.3       8 GLP5        0.0000 
     36 CA        -14.9385    2.0150    5.9575 C.3       4 GLC5        0.0000 
     37 CA        -14.0300    3.2370    4.3200 C.3      12 GLL5        0.0000 
     38 CA        -15.8470    0.7930    7.5950 C.3       8 GLP5        0.0000 
     39 CA        -13.3940    1.1180    4.6670 C.3       4 GLC5        0.0000 
     40 CA        -12.7580   -1.0010    5.0140 C.3       8 GLP5        0.0000 
     41 O         -12.9350    1.7925    2.3430 O.2       1 ALC1        0.0000 
     42 O         -13.6090    2.1700    3.6180 O.2       9 ALL1        0.0000 
     43 O         -12.2610    1.4150    1.0680 O.2       5 ALP1        0.0000 
     44 CA        -14.3560    4.9735    7.7690 C.3       4 GLC5        0.0000 
     45 CA        -14.8810    4.1760    6.3070 C.3      12 GLL5        0.0000 
     46 CA        -16.7285    4.5840    6.3200 C.3       4 GLC5        0.0000 
     47 CA        -15.3640    2.4845    6.9510 C.3       4 GLC5        0.0000 
     48 CA        -13.1855    3.2160    6.6120 C.3       4 GLC5        0.0000 
     49 CA        -11.4900    2.2560    6.9170 C.3       8 GLP5        0.0000 
     50 CA        -16.2665    3.7115    4.8235 C.3       4 GLC5        0.0000 
     51 CA        -17.6520    3.2470    3.3400 C.3       8 GLP5        0.0000 
     52 CA        -16.5330    5.3415    5.4620 C.3       4 GLC5        0.0000 
     53 CA        -14.4900    5.6910    4.5910 C.3      12 GLL5        0.0000 
     54 CA        -12.7792    9.8933    6.1465 C.3       4 GLC5        0.0000 
     55 CA        -14.5920    9.5290    6.1610 C.3      12 GLL5        0.0000 
     56 CA        -11.0120   10.5560    5.4200 C.3       8 GLP5        0.0000 
     57 CA        -14.9461   11.1609    7.1170 C.3       4 GLC5        0.0000 
     58 CA        -14.5970   12.9600    7.9750 C.3       8 GLP5        0.0000 
     59 CA        -12.4247    3.5477    4.9780 C.3       4 GLC5        0.0000 
     60 CA        -14.0190    4.5980    3.7420 C.3      12 GLL5        0.0000 
     61 CA        -10.8250    3.1780    5.9250 C.3       8 GLP5        0.0000 
     62 CA        -15.9546    4.0256    3.8255 C.3       4 GLC5        0.0000 
@<TRIPOS>BOND
@<TRIPOS>SUBSTRUCTURE
     1 ALC1       41 GROUP        1 X    ALC  0     ROOT ALC X 1
     2 SEC2        4 GROUP        1 X    SEC  0     **** SEC X 2
     3 LYC4        1 GROUP        1 X    LYC  0     **** LYC X 4
     4 GLC5       28 GROUP        1 X    GLC  0     **** GLC X 6
     5 ALP1       43 GROUP        1 Y    ALP  0     ROOT ALP Y 8
     6 SEP2        6 GROUP        1 Y    SEP  0     **** SEP Y 9
     7 LYP4        3 GROUP        1 Y    LYP  0     **** LYP Y 11
     8 GLP5       30 GROUP        1 Y    GLP  0     **** GLP Y 13
     9 ALL1       42 GROUP        1 Z    ALL  0     ROOT ALL Z 15
    10 SEL2        5 GROUP        1 Z    SEL  0     **** SEL Z 16
    11 LYL4        2 GROUP        1 Z    LYL  0     **** LYL Z 18
    12 GLL5       29 GROUP        1 Z    GLL  0     **** GLL Z 20
@<TRIPOS>SET

