#    Name: 2ax4_ADP_1_ligand
#    Modification time : Mon Mar 24 19:41:09 2014

@<TRIPOS>MOLECULE
2ax4_ADP_1_ligand
   39    41     1     0     0
SMALL
NO_CHARGES


@<TRIPOS>ATOM
      1 PB        -14.3560    8.6540   12.5220 P.3       1 ADP800      0.0000 
      2 O1B       -13.9160    9.9360   13.1880 O.co2     1 ADP800      0.0000 
      3 O2B       -13.2890    7.5690   12.6130 O.co2     1 ADP800      0.0000 
      4 O3B       -15.7280    8.1910   12.9040 O.co2     1 ADP800      0.0000 
      5 PA        -15.7340    9.1200    9.9780 P.3       1 ADP800      0.0000 
      6 O1A       -16.4470    7.8430    9.5670 O.co2     1 ADP800      0.0000 
      7 O2A       -16.5820   10.2200   10.5520 O.co2     1 ADP800      0.0000 
      8 O3A       -14.4510    8.8980   10.9220 O.3       1 ADP800      0.0000 
      9 O5'       -15.1250    9.7490    8.6080 O.3       1 ADP800      0.0000 
     10 C5'       -14.5010    8.9320    7.5850 C.3       1 ADP800      0.0000 
     11 C4'       -14.5920    9.5290    6.1610 C.3       1 ADP800      0.0000 
     12 O4'       -13.8320    8.7210    5.2320 O.3       1 ADP800      0.0000 
     13 C3'       -16.0440    9.4930    5.6450 C.3       1 ADP800      0.0000 
     14 O3'       -16.4190   10.5980    4.7890 O.3       1 ADP800      0.0000 
     15 C2'       -16.1110    8.2080    4.8600 C.3       1 ADP800      0.0000 
     16 O2'       -17.1600    8.2120    3.9080 O.3       1 ADP800      0.0000 
     17 C1'       -14.7240    8.1820    4.2420 C.3       1 ADP800      0.0000 
     18 N9        -14.3770    6.7940    3.8490 N.pl3     1 ADP800      0.0000 
     19 C8        -13.9000    6.4620    2.6250 C.2       1 ADP800      0.0000 
     20 N7        -13.6630    5.1350    2.5470 N.2       1 ADP800      0.0000 
     21 C5        -14.0190    4.5980    3.7420 C.ar      1 ADP800      0.0000 
     22 C6        -14.0300    3.2370    4.3200 C.ar      1 ADP800      0.0000 
     23 N6        -13.6090    2.1700    3.6180 N.pl3     1 ADP800      0.0000 
     24 N1        -14.4590    3.1190    5.5810 N.ar      1 ADP800      0.0000 
     25 C2        -14.8810    4.1760    6.3070 C.ar      1 ADP800      0.0000 
     26 N3        -14.8990    5.4270    5.8440 N.ar      1 ADP800      0.0000 
     27 C4        -14.4900    5.6910    4.5910 C.ar      1 ADP800      0.0000 
     28 H         -14.9595    7.9223    7.5475 H         1 ADP800      0.0000 
     29 H         -13.4255    8.7710    7.8053 H         1 ADP800      0.0000 
     30 H         -14.2590   10.5319    6.1697 H         1 ADP800      0.0000 
     31 H         -16.6928    9.3868    6.4928 H         1 ADP800      0.0000 
     32 H         -16.1615    7.4039    5.5665 H         1 ADP800      0.0000 
     33 H         -14.7512    8.8177    3.3693 H         1 ADP800      0.0000 
     34 H         -13.7486    7.1000    1.8972 H         1 ADP800      0.0000 
     35 H         -13.6822    1.2846    4.0769 H         1 ADP800      0.0000 
     36 H         -13.2602    2.3572    2.6997 H         1 ADP800      0.0000 
     37 H         -15.2171    3.9941    7.3046 H         1 ADP800      0.0000 
     38 H         -16.7193   10.1733    3.9350 H         1 ADP800      0.0000 
     39 H         -16.7230    7.9740    3.0406 H         1 ADP800      0.0000 
@<TRIPOS>BOND
     1    2    1 ar   
     2    3    1 ar   
     3    4    1 ar   
     4    8    1 1    
     5    6    5 ar   
     6    7    5 ar   
     7    8    5 1    
     8    9    5 1    
     9   10    9 1    
    10   11   10 1    
    11   28   10 1    
    12   29   10 1    
    13   12   11 1    
    14   13   11 1    
    15   30   11 1    
    16   17   12 1    
    17   14   13 1    
    18   15   13 1    
    19   31   13 1    
    20   38   14 1    
    21   16   15 1    
    22   17   15 1    
    23   32   15 1    
    24   39   16 1    
    25   18   17 1    
    26   33   17 1    
    27   19   18 1    
    28   27   18 1    
    29   20   19 2    
    30   34   19 1    
    31   21   20 1    
    32   22   21 ar   
    33   27   21 ar   
    34   23   22 1    
    35   24   22 ar   
    36   35   23 1    
    37   36   23 1    
    38   25   24 ar   
    39   26   25 ar   
    40   37   25 1    
    41   27   26 ar   
@<TRIPOS>SUBSTRUCTURE
     1 ADP800      1 GROUP   
@<TRIPOS>SET

