#    Name: 3oom_507_1_INTS_M
#    Modification time : Tue Mar 25 04:55:25 2014

@<TRIPOS>MOLECULE
3oom_507_1_INTS_M
   63     0     6     0     0
SMALL
NO_CHARGES


@<TRIPOS>ATOM
      1 CA          9.9790   21.4290   16.5710 C.3       2 GLC5        0.0000 
      2 CA          8.2680   22.3900   16.9180 C.3       6 GLL5        0.0000 
      3 CA         11.6900   20.4680   16.2240 C.3       4 GLP5        0.0000 
      4 CA          9.5330   23.1300   18.1745 C.3       2 GLC5        0.0000 
      5 CA         10.7980   23.8700   19.4310 C.3       4 GLP5        0.0000 
      6 CA          3.9280   24.9880   20.2990 C.3       2 GLC5        0.0000 
      7 CA          5.6590   25.7690   19.6530 C.3       6 GLL5        0.0000 
      8 CA          2.1970   24.2070   20.9450 C.3       4 GLP5        0.0000 
      9 CA          4.7475   23.2225   20.0800 C.3       2 GLC5        0.0000 
     10 CA          6.2090   24.5090   19.4690 C.3       6 GLL5        0.0000 
     11 CA          3.2860   21.9360   20.6910 C.3       4 GLP5        0.0000 
     12 CA          3.8240   27.7280   12.6505 C.3       2 GLC5        0.0000 
     13 CA          5.7870   27.9120   12.5500 C.3       6 GLL5        0.0000 
     14 CA          1.8610   27.5440   12.7510 C.3       4 GLP5        0.0000 
     15 CA          6.8760   30.9525   16.8050 C.3       2 GLC5        0.0000 
     16 CA          7.0260   28.7440   16.7800 C.3       6 GLL5        0.0000 
     17 CA          6.7260   33.1610   16.8300 C.3       4 GLP5        0.0000 
     18 CA          3.1880   20.7175   12.9805 C.3       2 GLC5        0.0000 
     19 CA          4.4870   21.9490   12.1580 C.3       6 GLL5        0.0000 
     20 CA          1.8890   19.4860   13.8030 C.3       4 GLP5        0.0000 
     21 CA          5.2580   19.9915   12.1750 C.3       2 GLC5        0.0000 
     22 CA          6.0290   18.0340   12.1920 C.3       4 GLP5        0.0000 
     23 CA          7.4510   20.5570   12.8720 C.3       2 GLC5        0.0000 
     24 CA          6.4420   22.3220   13.5270 C.3       6 GLL5        0.0000 
     25 CA          8.4600   18.7920   12.2170 C.3       4 GLP5        0.0000 
     26 CA          3.0145   24.1500   14.1200 C.3       2 GLC5        0.0000 
     27 CA          4.1400   23.4200   12.3750 C.3       6 GLL5        0.0000 
     28 CA          1.8890   24.8800   15.8650 C.3       4 GLP5        0.0000 
     29 CA          8.0225   25.1900   13.8470 C.3       2 GLC5        0.0000 
     30 CA          6.3880   23.8540   13.4690 C.3       6 GLL5        0.0000 
     31 CA          9.6570   26.5260   14.2250 C.3       4 GLP5        0.0000 
     32 N           7.5615   30.8955   15.3680 N.am      1 SEC2        0.0000 
     33 N           6.9690   29.4760   15.6540 N.am      5 SEL2        0.0000 
     34 N           8.1540   32.3150   15.0820 N.am      3 SEP2        0.0000 
     35 N           5.8490   20.2580   11.6365 N.am      1 SEC2        0.0000 
     36 N           5.9070   21.7330   12.3300 N.am      5 SEL2        0.0000 
     37 N           5.7910   18.7830   10.9430 N.am      3 SEP2        0.0000 
     38 CA          8.8460   24.0375   18.8650 C.3       2 GLC5        0.0000 
     39 CA          6.8940   24.2050   18.2990 C.3       6 GLL5        0.0000 
     40 CA          7.5680   26.1445   20.1290 C.3       2 GLC5        0.0000 
     41 CA          9.2020   27.1500   20.6970 C.3       4 GLP5        0.0000 
     42 CA          5.2287   28.3263   18.1963 C.3       2 GLC5        0.0000 
     43 CA          6.4870   26.4520   17.4810 C.3       6 GLL5        0.0000 
     44 CA          4.3100   30.0580   18.3210 C.3       4 GLP5        0.0000 
     45 CA          7.6747   26.8723   19.3842 C.3       2 GLC5        0.0000 
     46 CA          5.8080   26.7370   18.6620 C.3       6 GLL5        0.0000 
     47 CA          7.4927   28.2515   11.6170 C.3       2 GLC5        0.0000 
     48 CA          6.2780   28.9540   13.3160 C.3       6 GLL5        0.0000 
     49 CA          8.9530   28.0700   10.3010 C.3       4 GLP5        0.0000 
     50 CA          7.8447   27.4795   13.5790 C.3       2 GLC5        0.0000 
     51 CA          5.5630   29.0890   17.4902 C.3       2 GLC5        0.0000 
     52 CA          6.6060   27.4960   16.5390 C.3       6 GLL5        0.0000 
     53 CA          8.0828   25.9210   19.2505 C.3       2 GLC5        0.0000 
     54 CA          7.0330   25.1790   17.3090 C.3       6 GLL5        0.0000 
     55 CA          8.5828   25.6750   17.2215 C.3       2 GLC5        0.0000 
     56 CA         10.2020   26.6580   16.6390 C.3       4 GLP5        0.0000 
     57 CA          2.2867   22.8522   11.9398 C.3       2 GLC5        0.0000 
     58 CA          0.2600   23.0200   11.6130 C.3       4 GLP5        0.0000 
     59 CA          8.1720   23.2155   12.2230 C.3       2 GLC5        0.0000 
     60 CA          9.9290   23.3430   10.9480 C.3       4 GLP5        0.0000 
     61 CA          8.4268   26.9720   16.8546 C.3       2 GLC5        0.0000 
     62 CA          4.4904   26.6436   16.6716 C.3       2 GLC5        0.0000 
     63 CA          2.6040   26.2420   16.0380 C.3       4 GLP5        0.0000 
@<TRIPOS>BOND
@<TRIPOS>SUBSTRUCTURE
     1 SEC2       32 GROUP        1 X    SEC  0     ROOT SEC X 2
     2 GLC5        1 GROUP        1 X    GLC  0     **** GLC X 6
     3 SEP2       34 GROUP        1 Y    SEP  0     ROOT SEP Y 9
     4 GLP5        3 GROUP        1 Y    GLP  0     **** GLP Y 13
     5 SEL2       33 GROUP        1 Z    SEL  0     ROOT SEL Z 16
     6 GLL5        2 GROUP        1 Z    GLL  0     **** GLL Z 20
@<TRIPOS>SET

