#    Name: 3oom_507_1_ligand
#    Modification time : Tue Mar 25 04:55:25 2014

@<TRIPOS>MOLECULE
3oom_507_1_ligand
   45    48     1     0     0
SMALL
NO_CHARGES


@<TRIPOS>ATOM
      1 CAA         8.2680   22.3900   16.9180 C.3       1 507500      0.0000 
      2 OAB         7.3150   21.9680   19.0770 O.2       1 507500      0.0000 
      3 CAC         5.6590   25.7690   19.6530 C.ar      1 507500      0.0000 
      4 CAD         6.2090   24.5090   19.4690 C.ar      1 507500      0.0000 
      5 CAE         5.8080   26.7370   18.6620 C.ar      1 507500      0.0000 
      6 CAF         5.7870   27.9120   12.5500 C.2       1 507500      0.0000 
      7 CAG         6.2780   28.9540   13.3160 C.2       1 507500      0.0000 
      8 CAH         7.0260   28.7440   16.7800 C.2       1 507500      0.0000 
      9 CAI         7.0330   25.1790   17.3090 C.ar      1 507500      0.0000 
     10 CAJ         4.4870   21.9490   12.1580 C.3       1 507500      0.0000 
     11 CAK         6.4420   22.3220   13.5270 C.3       1 507500      0.0000 
     12 CAL         4.1400   23.4200   12.3750 C.3       1 507500      0.0000 
     13 CAM         6.3880   23.8540   13.4690 C.3       1 507500      0.0000 
     14 NAN         6.9690   29.4760   15.6540 N.2       1 507500      0.0000 
     15 NAO         5.8170   26.5180   14.4690 N.2       1 507500      0.0000 
     16 NAP         5.0570   25.6950   12.4110 N.pl3     1 507500      0.0000 
     17 OAQ         5.9070   21.7330   12.3300 O.3       1 507500      0.0000 
     18 CAR         7.4810   22.7840   18.1620 C.2       1 507500      0.0000 
     19 CAS         6.8940   24.2050   18.2990 C.ar      1 507500      0.0000 
     20 CAT         6.4870   26.4520   17.4810 C.ar      1 507500      0.0000 
     21 CAU         5.5750   26.6770   13.1600 C.2       1 507500      0.0000 
     22 CAV         6.6060   27.4960   16.5390 C.2       1 507500      0.0000 
     23 CAW         6.5060   28.7090   14.6630 C.2       1 507500      0.0000 
     24 CAX         5.4220   24.2730   12.3610 C.3       1 507500      0.0000 
     25 NAY         6.2590   27.4260   15.1790 N.pl3     1 507500      0.0000 
     26 H           5.1449   25.9897   20.5128 H         1 507500      0.0000 
     27 H           6.1094   23.7925   20.2047 H         1 507500      0.0000 
     28 H           5.4085   27.6796   18.8065 H         1 507500      0.0000 
     29 H           5.5830   28.0400   11.5594 H         1 507500      0.0000 
     30 H           6.4650   29.8634   12.9107 H         1 507500      0.0000 
     31 H           7.3309   29.0780   17.6488 H         1 507500      0.0000 
     32 H           7.5443   24.9559   16.4416 H         1 507500      0.0000 
     33 H           4.1621   21.6693   11.1483 H         1 507500      0.0000 
     34 H           3.9053   21.3543   12.8730 H         1 507500      0.0000 
     35 H           5.8804   22.0027   14.4188 H         1 507500      0.0000 
     36 H           7.4926   22.0318   13.6840 H         1 507500      0.0000 
     37 H           3.6467   23.5389   13.3332 H         1 507500      0.0000 
     38 H           3.4816   23.7583   11.5826 H         1 507500      0.0000 
     39 H           7.3737   24.2380   13.2527 H         1 507500      0.0000 
     40 H           6.0375   24.2350   14.4166 H         1 507500      0.0000 
     41 H           4.2443   25.9402   11.7240 H         1 507500      0.0000 
     42 H           5.9166   24.0679   11.3926 H         1 507500      0.0000 
     43 H           9.2069   22.1272   17.1403 H         1 507500      0.0000 
     44 H           7.8507   21.6142   16.4448 H         1 507500      0.0000 
     45 H           8.3219   23.1406   16.2594 H         1 507500      0.0000 
@<TRIPOS>BOND
     1   18    1 1    
     2   43    1 1    
     3   44    1 1    
     4   45    1 1    
     5   18    2 2    
     6    4    3 ar   
     7    5    3 ar   
     8   26    3 1    
     9   19    4 ar   
    10   27    4 1    
    11   20    5 ar   
    12   28    5 1    
    13    7    6 2    
    14   21    6 1    
    15   29    6 1    
    16   23    7 1    
    17   30    7 1    
    18   14    8 1    
    19   22    8 2    
    20   31    8 1    
    21   19    9 ar   
    22   20    9 ar   
    23   32    9 1    
    24   12   10 1    
    25   17   10 1    
    26   33   10 1    
    27   34   10 1    
    28   13   11 1    
    29   17   11 1    
    30   35   11 1    
    31   36   11 1    
    32   24   12 1    
    33   37   12 1    
    34   38   12 1    
    35   24   13 1    
    36   39   13 1    
    37   40   13 1    
    38   23   14 2    
    39   21   15 2    
    40   25   15 1    
    41   21   16 1    
    42   24   16 1    
    43   41   16 1    
    44   19   18 1    
    45   22   20 1    
    46   25   22 1    
    47   25   23 1    
    48   42   24 1    
@<TRIPOS>SUBSTRUCTURE
     1 507500      1 GROUP   
@<TRIPOS>SET

