#    Name: 1mx1_THA_4_INTS_M
#    Modification time : Tue Mar 25 12:11:15 2014

@<TRIPOS>MOLECULE
1mx1_THA_4_INTS_M
   38     0     6     0     0
SMALL
NO_CHARGES


@<TRIPOS>ATOM
      1 CA         -4.1390   30.6850   31.0235 C.3       2 GLC5        0.0000 
      2 CA         -5.6460   29.4530   30.9600 C.3       6 GLL5        0.0000 
      3 CA         -2.6320   31.9170   31.0870 C.3       4 GLP5        0.0000 
      4 CA         -9.7890   27.7865   28.8025 C.3       2 GLC5        0.0000 
      5 CA         -9.0160   29.3120   27.5390 C.3       6 GLL5        0.0000 
      6 CA        -10.5620   26.2610   30.0660 C.3       4 GLP5        0.0000 
      7 CA         -8.3100   32.5365   28.3275 C.3       2 GLC5        0.0000 
      8 CA         -9.3640   30.9580   29.3730 C.3       6 GLL5        0.0000 
      9 CA         -7.2560   34.1150   27.2820 C.3       4 GLP5        0.0000 
     10 CA         -9.8265   32.9915   29.2410 C.3       2 GLC5        0.0000 
     11 CA        -10.2890   35.0250   29.1090 C.3       4 GLP5        0.0000 
     12 CA        -10.9745   26.9875   26.4035 C.3       2 GLC5        0.0000 
     13 CA         -9.4390   28.6070   26.2080 C.3       6 GLL5        0.0000 
     14 CA        -12.5100   25.3680   26.5990 C.3       4 GLP5        0.0000 
     15 CA         -9.0980   26.4660   26.4310 C.3       2 GLC5        0.0000 
     16 CA         -8.7570   24.3250   26.6540 C.3       4 GLP5        0.0000 
     17 CA        -12.0235   27.6120   25.4755 C.3       2 GLC5        0.0000 
     18 CA        -10.5890   29.2990   25.4040 C.3       6 GLL5        0.0000 
     19 CA        -13.4580   25.9250   25.5470 C.3       4 GLP5        0.0000 
     20 CA        -13.0990   28.3155   26.2650 C.3       2 GLC5        0.0000 
     21 CA        -11.7250   29.7690   26.3530 C.3       6 GLL5        0.0000 
     22 CA        -14.4730   26.8620   26.1770 C.3       4 GLP5        0.0000 
     23 O         -11.5320   32.2495   29.6360 O.2       1 ALC1        0.0000 
     24 O         -10.0960   31.9350   29.9570 O.2       5 ALL1        0.0000 
     25 O         -12.9680   32.5640   29.3150 O.2       3 ALP1        0.0000 
     26 CA         -5.3735   27.5395   30.4252 C.3       2 GLC5        0.0000 
     27 CA         -6.1740   28.9270   29.7570 C.3       6 GLL5        0.0000 
     28 CA         -4.8370   25.8890   30.4920 C.3       4 GLP5        0.0000 
     29 CA         -5.6825   31.9752   31.8338 C.3       2 GLC5        0.0000 
     30 CA         -6.3240   30.4760   31.6620 C.3       6 GLL5        0.0000 
     31 CA         -4.4300   33.2140   32.2500 C.3       4 GLP5        0.0000 
     32 CA         -9.4492   32.2910   27.0275 C.3       2 GLC5        0.0000 
     33 CA         -9.8290   30.3610   28.1400 C.3       6 GLL5        0.0000 
     34 CA         -8.3980   34.0110   26.2820 C.3       4 GLP5        0.0000 
     35 CA        -10.4785   27.9135   24.2380 C.3       2 GLC5        0.0000 
     36 CA        -10.9430   26.8740   22.6700 C.3       4 GLP5        0.0000 
     37 CA        -12.6343   30.9345   28.3693 C.3       2 GLC5        0.0000 
     38 CA        -13.8200   31.5940   29.8590 C.3       4 GLP5        0.0000 
@<TRIPOS>BOND
@<TRIPOS>SUBSTRUCTURE
     1 ALC1       23 GROUP        1 X    ALC  0     ROOT ALC X 1
     2 GLC5        1 GROUP        1 X    GLC  0     **** GLC X 6
     3 ALP1       25 GROUP        1 Y    ALP  0     ROOT ALP Y 8
     4 GLP5        3 GROUP        1 Y    GLP  0     **** GLP Y 13
     5 ALL1       24 GROUP        1 Z    ALL  0     ROOT ALL Z 15
     6 GLL5        2 GROUP        1 Z    GLL  0     **** GLL Z 20
@<TRIPOS>SET

