#    Name: 1mx1_THA_4_ligand
#    Modification time : Tue Mar 25 12:11:15 2014

@<TRIPOS>MOLECULE
1mx1_THA_4_ligand
   29    31     1     0     0
SMALL
NO_CHARGES


@<TRIPOS>ATOM
      1 C1         -5.6460   29.4530   30.9600 C.3       1 THA4        0.0000 
      2 C2         -6.1740   28.9270   29.7570 C.3       1 THA4        0.0000 
      3 C3         -7.3960   29.4220   29.2370 C.ar      1 THA4        0.0000 
      4 C4         -8.1250   30.4970   29.9560 C.ar      1 THA4        0.0000 
      5 C5         -7.5460   30.9970   31.1730 C.3       1 THA4        0.0000 
      6 C6         -6.3240   30.4760   31.6620 C.3       1 THA4        0.0000 
      7 N7         -7.8740   28.9080   28.1020 N.ar      1 THA4        0.0000 
      8 C8         -9.0160   29.3120   27.5390 C.ar      1 THA4        0.0000 
      9 C9         -9.8290   30.3610   28.1400 C.ar      1 THA4        0.0000 
     10 C10        -9.3640   30.9580   29.3730 C.ar      1 THA4        0.0000 
     11 C11        -9.4390   28.6070   26.2080 C.ar      1 THA4        0.0000 
     12 C12       -10.5890   29.2990   25.4040 C.ar      1 THA4        0.0000 
     13 C13       -11.7250   29.7690   26.3530 C.ar      1 THA4        0.0000 
     14 C14       -11.1720   30.7810   27.4060 C.ar      1 THA4        0.0000 
     15 N15       -10.0960   31.9350   29.9570 N.pl3     1 THA4        0.0000 
     16 H          -4.5587   29.7988   30.7640 H         1 THA4        0.0000 
     17 H          -5.4469   28.5757   31.6886 H         1 THA4        0.0000 
     18 H          -6.2554   27.7797   29.8595 H         1 THA4        0.0000 
     19 H          -5.3667   29.0024   28.9348 H         1 THA4        0.0000 
     20 H          -8.3436   30.9239   32.0054 H         1 THA4        0.0000 
     21 H          -7.4528   32.1447   31.0801 H         1 THA4        0.0000 
     22 H          -5.5915   31.3547   31.8324 H         1 THA4        0.0000 
     23 H          -6.4820   30.1315   32.7548 H         1 THA4        0.0000 
     24 H          -9.0283   27.8177   25.9102 H         1 THA4        0.0000 
     25 H         -10.5869   29.4077   24.5078 H         1 THA4        0.0000 
     26 H         -12.5818   29.4991   26.3064 H         1 THA4        0.0000 
     27 H         -11.5991   31.5912   27.6013 H         1 THA4        0.0000 
     28 H          -9.6985   32.3546   30.7730 H         1 THA4        0.0000 
     29 H         -10.9696   32.1508   29.5207 H         1 THA4        0.0000 
@<TRIPOS>BOND
     1    2    1 1    
     2    6    1 1    
     3   16    1 1    
     4   17    1 1    
     5    3    2 1    
     6   18    2 1    
     7   19    2 1    
     8    4    3 ar   
     9    7    3 ar   
    10    5    4 1    
    11   10    4 ar   
    12    6    5 1    
    13   20    5 1    
    14   21    5 1    
    15   22    6 1    
    16   23    6 1    
    17    8    7 ar   
    18    9    8 ar   
    19   11    8 ar   
    20   10    9 ar   
    21   14    9 ar   
    22   15   10 1    
    23   12   11 ar   
    24   24   11 1    
    25   13   12 ar   
    26   25   12 1    
    27   14   13 ar   
    28   26   13 1    
    29   27   14 1    
    30   28   15 1    
    31   29   15 1    
@<TRIPOS>SUBSTRUCTURE
     1 THA4        1 GROUP   
@<TRIPOS>SET

