#    Name: 3ssn_SAH_3_INTS_M
#    Modification time : Mon Mar 24 18:19:48 2014

@<TRIPOS>MOLECULE
3ssn_SAH_3_INTS_M
   83     0    15     0     0
SMALL
NO_CHARGES


@<TRIPOS>ATOM
      1 OD1        29.1820  147.9155   53.0200 O.co2     3 ASC3        0.0000 
      2 OD1        29.6760  146.6800   53.1820 O.co2    13 ASL3        0.0000 
      3 OD1        28.6880  149.1510   52.8580 O.co2     8 ASP3        0.0000 
      4 O          31.0070  146.3210   52.9745 O.2       1 ALC1        0.0000 
      5 O          29.6760  146.6800   53.1820 O.2      11 ALL1        0.0000 
      6 O          32.3380  145.9620   52.7670 O.2       6 ALP1        0.0000 
      7 O          29.1215  145.2420   52.7355 O.2       1 ALC1        0.0000 
      8 O          28.5670  143.8040   52.2890 O.2       6 ALP1        0.0000 
      9 O          29.1820  147.9155   53.0200 O.2       1 ALC1        0.0000 
     10 O          28.6880  149.1510   52.8580 O.2       6 ALP1        0.0000 
     11 CA         28.3010  144.9815   53.4175 C.3       5 GLC5        0.0000 
     12 CA         29.4200  146.4240   54.6330 C.3      15 GLL5        0.0000 
     13 CA         27.1820  143.5390   52.2020 C.3      10 GLP5        0.0000 
     14 CA         32.6410  147.8635   53.9835 C.3       5 GLC5        0.0000 
     15 CA         31.1520  148.1730   55.2590 C.3      15 GLL5        0.0000 
     16 CA         34.1300  147.5540   52.7080 C.3      10 GLP5        0.0000 
     17 CA         31.9740  150.0865   58.2760 C.3       5 GLC5        0.0000 
     18 CA         31.5730  149.2750   56.5700 C.3      15 GLL5        0.0000 
     19 CA         32.3750  150.8980   59.9820 C.3      10 GLP5        0.0000 
     20 NZ         26.9260  146.9810   52.5860 N.4       4 LYC4        0.0000 
     21 NZ         27.1230  146.2920   53.9790 N.4      14 LYL4        0.0000 
     22 NZ         26.7290  147.6700   51.1930 N.4       9 LYP4        0.0000 
     23 N          25.7735  145.6275   54.3735 N.am      2 SEC2        0.0000 
     24 N          27.1230  146.2920   53.9790 N.am     12 SEL2        0.0000 
     25 N          24.4240  144.9630   54.7680 N.am      7 SEP2        0.0000 
     26 N          26.0180  145.2185   55.3175 N.am      2 SEC2        0.0000 
     27 N          27.6120  145.4740   55.8670 N.am     12 SEL2        0.0000 
     28 CA         33.6030  150.9895   53.9720 C.3       5 GLC5        0.0000 
     29 CA         32.9500  150.1490   55.8880 C.3      15 GLL5        0.0000 
     30 CA         34.2560  151.8300   52.0560 C.3      10 GLP5        0.0000 
     31 N          33.9365  146.6215   57.1185 N.am      2 SEC2        0.0000 
     32 N          34.8560  147.7810   57.7480 N.am     12 SEL2        0.0000 
     33 N          33.0170  145.4620   56.4890 N.am      7 SEP2        0.0000 
     34 N          34.7820  147.5335   59.3335 N.am      2 SEC2        0.0000 
     35 N          34.7080  147.2860   60.9190 N.am      7 SEP2        0.0000 
     36 O          35.6095  147.1370   56.7765 O.2       1 ALC1        0.0000 
     37 O          34.8560  147.7810   57.7480 O.2      11 ALL1        0.0000 
     38 O          36.3630  146.4930   55.8050 O.2       6 ALP1        0.0000 
     39 O          37.7130  147.9345   57.4420 O.2       1 ALC1        0.0000 
     40 O          37.1160  149.0540   58.1150 O.2      11 ALL1        0.0000 
     41 O          38.3100  146.8150   56.7690 O.2       6 ALP1        0.0000 
     42 CA         38.5935  149.8105   56.4455 C.3       5 GLC5        0.0000 
     43 CA         36.4980  149.7960   55.8510 C.3      15 GLL5        0.0000 
     44 CA         40.6890  149.8250   57.0400 C.3      10 GLP5        0.0000 
     45 CA         40.8900  150.8955   54.6215 C.3       5 GLC5        0.0000 
     46 CA         40.1000  152.1840   53.3600 C.3      15 GLL5        0.0000 
     47 CA         41.6800  149.6070   55.8830 C.3      10 GLP5        0.0000 
     48 CA         39.6330  152.6240   51.4990 C.3       5 GLC5        0.0000 
     49 CA         39.1660  153.0640   49.6380 C.3      10 GLP5        0.0000 
     50 O          42.0270  153.2715   52.3505 O.2       1 ALC1        0.0000 
     51 O          40.8210  153.3260   53.2330 O.2      11 ALL1        0.0000 
     52 O          43.2330  153.2170   51.4680 O.2       6 ALP1        0.0000 
     53 N          41.0655  151.1515   51.2470 N.am      2 SEC2        0.0000 
     54 N          40.3120  151.1380   52.5310 N.am     12 SEL2        0.0000 
     55 N          41.8190  151.1650   49.9630 N.am      7 SEP2        0.0000 
     56 CA         39.3105  148.0245   53.2170 C.3       5 GLC5        0.0000 
     57 CA         39.6000  149.9980   52.6350 C.3      15 GLL5        0.0000 
     58 CA         39.0210  146.0510   53.7990 C.3      10 GLP5        0.0000 
     59 CA         40.6400  149.8025   54.2590 C.3       5 GLC5        0.0000 
     60 CA         41.6770  150.1990   51.9405 C.3       5 GLC5        0.0000 
     61 CA         43.7540  150.4000   51.2460 C.3      10 GLP5        0.0000 
     62 CA         39.5905  150.8540   50.8325 C.3       5 GLC5        0.0000 
     63 CA         39.5810  151.7100   49.0300 C.3      10 GLP5        0.0000 
     64 N          39.5815  148.7090   54.2095 N.am      2 SEC2        0.0000 
     65 N          38.6360  149.7950   53.5540 N.am     12 SEL2        0.0000 
     66 N          40.5270  147.6230   54.8650 N.am      7 SEP2        0.0000 
     67 CA         30.8775  146.4285   56.3440 C.3       5 GLC5        0.0000 
     68 CA         29.7200  147.6720   55.4590 C.3      15 GLL5        0.0000 
     69 CA         32.1850  145.8090   57.6420 C.3      10 GLP5        0.0000 
     70 CA         31.7737  147.2665   56.7782 C.3       5 GLC5        0.0000 
     71 CA         33.8595  148.6442   54.3188 C.3       5 GLC5        0.0000 
     72 CA         33.2720  150.8328   57.6007 C.3       5 GLC5        0.0000 
     73 CA         34.2280  149.3200   55.9710 C.3      15 GLL5        0.0000 
     74 CA         32.9550  151.9310   59.2720 C.3      10 GLP5        0.0000 
     75 CA         33.3445  147.5260   57.1603 C.3       5 GLC5        0.0000 
     76 CA         34.7800  149.1660   57.3860 C.3      15 GLL5        0.0000 
     77 CA         35.2848  150.4387   58.7918 C.3       5 GLC5        0.0000 
     78 CA         35.0970  151.3960   60.2200 C.3      10 GLP5        0.0000 
     79 CA         39.6882  150.6137   55.7323 C.3       5 GLC5        0.0000 
     80 CA         38.3220  150.7640   54.4490 C.3      15 GLL5        0.0000 
     81 CA         38.3297  153.7393   53.8280 C.3       5 GLC5        0.0000 
     82 CA         39.0530  152.0410   54.4000 C.3      15 GLL5        0.0000 
     83 CA         37.0830  155.3660   53.7760 C.3      10 GLP5        0.0000 
@<TRIPOS>BOND
@<TRIPOS>SUBSTRUCTURE
     1 ALC1        4 GROUP        1 X    ALC  0     ROOT ALC X 1
     2 SEC2       23 GROUP        1 X    SEC  0     **** SEC X 2
     3 ASC3        1 GROUP        1 X    ASC  0     **** ASC X 3
     4 LYC4       20 GROUP        1 X    LYC  0     **** LYC X 4
     5 GLC5       11 GROUP        1 X    GLC  0     **** GLC X 6
     6 ALP1        6 GROUP        1 Y    ALP  0     ROOT ALP Y 8
     7 SEP2       25 GROUP        1 Y    SEP  0     **** SEP Y 9
     8 ASP3        3 GROUP        1 Y    ASP  0     **** ASP Y 10
     9 LYP4       22 GROUP        1 Y    LYP  0     **** LYP Y 11
    10 GLP5       13 GROUP        1 Y    GLP  0     **** GLP Y 13
    11 ALL1        5 GROUP        1 Z    ALL  0     ROOT ALL Z 15
    12 SEL2       24 GROUP        1 Z    SEL  0     **** SEL Z 16
    13 ASL3        2 GROUP        1 Z    ASL  0     **** ASL Z 17
    14 LYL4       21 GROUP        1 Z    LYL  0     **** LYL Z 18
    15 GLL5       12 GROUP        1 Z    GLL  0     **** GLL Z 20
@<TRIPOS>SET

