#    Name: 3ssn_SAH_3_ligand
#    Modification time : Mon Mar 24 18:19:48 2014

@<TRIPOS>MOLECULE
3ssn_SAH_3_ligand
   46    48     1     0     0
SMALL
NO_CHARGES


@<TRIPOS>ATOM
      1 N          29.6760  146.6800   53.1820 N.4       1 SAH601      0.0000 
      2 CA         29.4200  146.4240   54.6330 C.3       1 SAH601      0.0000 
      3 CB         29.7200  147.6720   55.4590 C.3       1 SAH601      0.0000 
      4 CG         31.1520  148.1730   55.2590 C.3       1 SAH601      0.0000 
      5 SD         31.5730  149.2750   56.5700 S.3       1 SAH601      0.0000 
      6 C          27.9800  146.0420   54.8330 C.2       1 SAH601      0.0000 
      7 O          27.1230  146.2920   53.9790 O.co2     1 SAH601      0.0000 
      8 OXT        27.6120  145.4740   55.8670 O.co2     1 SAH601      0.0000 
      9 C5'        32.9500  150.1490   55.8880 C.3       1 SAH601      0.0000 
     10 C4'        34.2280  149.3200   55.9710 C.3       1 SAH601      0.0000 
     11 O4'        35.2400  149.9650   55.1980 O.3       1 SAH601      0.0000 
     12 C3'        34.7800  149.1660   57.3860 C.3       1 SAH601      0.0000 
     13 O3'        34.8560  147.7810   57.7480 O.3       1 SAH601      0.0000 
     14 C2'        36.1650  149.7970   57.3410 C.3       1 SAH601      0.0000 
     15 O2'        37.1160  149.0540   58.1150 O.3       1 SAH601      0.0000 
     16 C1'        36.4980  149.7960   55.8510 C.3       1 SAH601      0.0000 
     17 N9         37.4470  150.8680   55.4470 N.pl3     1 SAH601      0.0000 
     18 C8         37.5760  152.0920   55.9980 C.2       1 SAH601      0.0000 
     19 N7         38.5430  152.8070   55.3740 N.2       1 SAH601      0.0000 
     20 C5         39.0530  152.0410   54.4000 C.ar      1 SAH601      0.0000 
     21 C6         40.1000  152.1840   53.3600 C.ar      1 SAH601      0.0000 
     22 N6         40.8210  153.3260   53.2330 N.pl3     1 SAH601      0.0000 
     23 N1         40.3120  151.1380   52.5310 N.ar      1 SAH601      0.0000 
     24 C2         39.6000  149.9980   52.6350 C.ar      1 SAH601      0.0000 
     25 N3         38.6360  149.7950   53.5540 N.ar      1 SAH601      0.0000 
     26 C4         38.3220  150.7640   54.4490 C.ar      1 SAH601      0.0000 
     27 H          30.0478  145.6241   54.9787 H         1 SAH601      0.0000 
     28 H          29.5655  147.4470   56.5198 H         1 SAH601      0.0000 
     29 H          29.0211  148.4668   55.1768 H         1 SAH601      0.0000 
     30 H          31.2652  148.7657   54.3862 H         1 SAH601      0.0000 
     31 H          31.8756  147.4009   55.3374 H         1 SAH601      0.0000 
     32 H          32.9927  151.0428   56.4744 H         1 SAH601      0.0000 
     33 H          32.6452  150.3476   54.8819 H         1 SAH601      0.0000 
     34 H          34.0312  148.3343   55.5731 H         1 SAH601      0.0000 
     35 H          34.1702  149.7371   58.0450 H         1 SAH601      0.0000 
     36 H          36.0680  150.8162   57.6520 H         1 SAH601      0.0000 
     37 H          36.9061  148.8232   55.6103 H         1 SAH601      0.0000 
     38 H          37.0417  152.4243   56.7515 H         1 SAH601      0.0000 
     39 H          41.5101  153.3330   52.5084 H         1 SAH601      0.0000 
     40 H          40.5996  154.0598   53.8752 H         1 SAH601      0.0000 
     41 H          39.8134  149.2078   51.9468 H         1 SAH601      0.0000 
     42 H          30.6280  146.9348   53.0121 H         1 SAH601      0.0000 
     43 H          29.4843  145.8732   52.6231 H         1 SAH601      0.0000 
     44 H          29.1065  147.4227   52.8298 H         1 SAH601      0.0000 
     45 H          35.4144  147.3574   57.0347 H         1 SAH601      0.0000 
     46 H          37.4312  148.3251   57.5072 H         1 SAH601      0.0000 
@<TRIPOS>BOND
     1    2    1 1    
     2   42    1 1    
     3   43    1 1    
     4   44    1 1    
     5    3    2 1    
     6    6    2 1    
     7   27    2 1    
     8    4    3 1    
     9   28    3 1    
    10   29    3 1    
    11    5    4 1    
    12   30    4 1    
    13   31    4 1    
    14    9    5 1    
    15    7    6 ar   
    16    8    6 ar   
    17   10    9 1    
    18   32    9 1    
    19   33    9 1    
    20   11   10 1    
    21   12   10 1    
    22   34   10 1    
    23   16   11 1    
    24   13   12 1    
    25   14   12 1    
    26   35   12 1    
    27   45   13 1    
    28   15   14 1    
    29   16   14 1    
    30   36   14 1    
    31   46   15 1    
    32   17   16 1    
    33   37   16 1    
    34   18   17 1    
    35   26   17 1    
    36   19   18 2    
    37   38   18 1    
    38   20   19 1    
    39   21   20 ar   
    40   26   20 ar   
    41   22   21 1    
    42   23   21 ar   
    43   39   22 1    
    44   40   22 1    
    45   24   23 ar   
    46   25   24 ar   
    47   41   24 1    
    48   26   25 ar   
@<TRIPOS>SUBSTRUCTURE
     1 SAH601      1 GROUP   
@<TRIPOS>SET

