#    Name: 2vw5_BC6_1_INTS_M
#    Modification time : Tue Mar 25 03:09:07 2014

@<TRIPOS>MOLECULE
2vw5_BC6_1_INTS_M
   62     0     9     0     0
SMALL
NO_CHARGES


@<TRIPOS>ATOM
      1 N          39.7320   -5.0510   42.4520 N.am      2 SEC2        0.0000 
      2 N          40.9960   -5.2790   41.7570 N.am      8 SEL2        0.0000 
      3 N          38.4680   -4.8230   43.1470 N.am      5 SEP2        0.0000 
      4 CA         42.0930   -9.5100   41.8655 C.3       3 GLC5        0.0000 
      5 CA         42.7470   -7.5080   41.1090 C.3       9 GLL5        0.0000 
      6 CA         41.4390  -11.5120   42.6220 C.3       6 GLP5        0.0000 
      7 CA         44.4120   -6.4180   40.3460 C.3       3 GLC5        0.0000 
      8 CA         46.0770   -5.3280   39.5830 C.3       6 GLP5        0.0000 
      9 CA         42.8505   -7.4140   43.2705 C.3       3 GLC5        0.0000 
     10 CA         42.9540   -7.3200   45.4320 C.3       6 GLP5        0.0000 
     11 CA         38.3105  -12.7280   38.8580 C.3       3 GLC5        0.0000 
     12 CA         38.1500  -11.0510   39.7780 C.3       9 GLL5        0.0000 
     13 CA         38.4710  -14.4050   37.9380 C.3       6 GLP5        0.0000 
     14 CA         39.7945  -11.2815   41.2000 C.3       3 GLC5        0.0000 
     15 CA         37.9185  -10.2210   41.4895 C.3       3 GLC5        0.0000 
     16 CA         37.6870   -9.3910   43.2010 C.3       6 GLP5        0.0000 
     17 O          38.9045   -5.5710   33.9540 O.2       1 ALC1        0.0000 
     18 O          38.9920   -4.8630   35.1630 O.2       7 ALL1        0.0000 
     19 O          38.8170   -6.2790   32.7450 O.2       4 ALP1        0.0000 
     20 CA         44.2125  -10.4500   37.9645 C.3       3 GLC5        0.0000 
     21 CA         43.2910   -8.9200   37.2190 C.3       9 GLL5        0.0000 
     22 CA         45.1340  -11.9800   38.7100 C.3       6 GLP5        0.0000 
     23 CA         41.7575  -13.4775   35.2315 C.3       3 GLC5        0.0000 
     24 CA         43.3820  -12.2070   34.6920 C.3       9 GLL5        0.0000 
     25 CA         40.1330  -14.7480   35.7710 C.3       6 GLP5        0.0000 
     26 CA         43.7775  -14.2860   35.0215 C.3       3 GLC5        0.0000 
     27 CA         44.1730  -16.3650   35.3510 C.3       6 GLP5        0.0000 
     28 CA         44.2580  -12.0935   36.7010 C.3       3 GLC5        0.0000 
     29 N          41.2990   -8.5830   31.9670 N.am      2 SEC2        0.0000 
     30 N          41.6470   -9.9950   32.3850 N.am      8 SEL2        0.0000 
     31 N          40.9510   -7.1710   31.5490 N.am      5 SEP2        0.0000 
     32 CA         37.0660   -9.9480   32.1975 C.3       3 GLC5        0.0000 
     33 CA         38.7820  -10.2650   32.8140 C.3       9 GLL5        0.0000 
     34 CA         35.3500   -9.6310   31.5810 C.3       6 GLP5        0.0000 
     35 CA         38.3480  -11.5695   31.6620 C.3       3 GLC5        0.0000 
     36 CA         37.9140  -12.8740   30.5100 C.3       6 GLP5        0.0000 
     37 CA         39.6175  -12.1580   36.2905 C.3       3 GLC5        0.0000 
     38 CA         39.1360  -10.3870   35.2100 C.3       9 GLL5        0.0000 
     39 CA         40.0990  -13.9290   37.3710 C.3       6 GLP5        0.0000 
     40 CA         36.6590   -7.4525   37.0325 C.3       3 GLC5        0.0000 
     41 CA         38.0460   -8.2490   36.0160 C.3       9 GLL5        0.0000 
     42 CA         35.2720   -6.6560   38.0490 C.3       6 GLP5        0.0000 
     43 CA         38.1730  -12.4510   37.6280 C.3       3 GLC5        0.0000 
     44 CA         37.8750  -10.4970   37.3180 C.3       9 GLL5        0.0000 
     45 O          33.2170  -11.3620   36.3385 O.2       1 ALC1        0.0000 
     46 O          34.3080  -10.7740   36.8570 O.2       7 ALL1        0.0000 
     47 O          32.1260  -11.9500   35.8200 O.2       4 ALP1        0.0000 
     48 CA         40.5312   -7.2828   41.9575 C.3       3 GLC5        0.0000 
     49 CA         41.4180   -7.1450   40.5150 C.3       9 GLL5        0.0000 
     50 CA         38.9800   -7.2390   43.1030 C.3       6 GLP5        0.0000 
     51 CA         41.0570  -10.1490   41.2390 C.3       3 GLC5        0.0000 
     52 CA         40.5640   -8.0530   39.9520 C.3       9 GLL5        0.0000 
     53 CA         39.8275   -8.0125   41.4795 C.3       3 GLC5        0.0000 
     54 CA         40.7860   -9.5190   39.7600 C.3       9 GLL5        0.0000 
     55 CA         39.6860  -11.9588   37.9730 C.3       3 GLC5        0.0000 
     56 CA         40.0280   -9.9160   38.4900 C.3       9 GLL5        0.0000 
     57 CA         44.1184   -5.2239   37.7148 C.3       3 GLC5        0.0000 
     58 CA         42.0690   -5.7740   37.7770 C.3       9 GLL5        0.0000 
     59 CA         45.3860   -4.1590   38.8990 C.3       6 GLP5        0.0000 
     60 CA         39.4595   -9.3062   31.5637 C.3       3 GLC5        0.0000 
     61 CA         39.7420   -9.8420   33.9210 C.3       9 GLL5        0.0000 
     62 CA         39.6570   -8.5590   29.7600 C.3       6 GLP5        0.0000 
@<TRIPOS>BOND
@<TRIPOS>SUBSTRUCTURE
     1 ALC1       17 GROUP        1 X    ALC  0     ROOT ALC X 1
     2 SEC2        1 GROUP        1 X    SEC  0     **** SEC X 2
     3 GLC5        4 GROUP        1 X    GLC  0     **** GLC X 6
     4 ALP1       19 GROUP        1 Y    ALP  0     ROOT ALP Y 8
     5 SEP2        3 GROUP        1 Y    SEP  0     **** SEP Y 9
     6 GLP5        6 GROUP        1 Y    GLP  0     **** GLP Y 13
     7 ALL1       18 GROUP        1 Z    ALL  0     ROOT ALL Z 15
     8 SEL2        2 GROUP        1 Z    SEL  0     **** SEL Z 16
     9 GLL5        5 GROUP        1 Z    GLL  0     **** GLL Z 20
@<TRIPOS>SET

