#    Name: 2vw5_BC6_1_ligand
#    Modification time : Tue Mar 25 03:09:07 2014

@<TRIPOS>MOLECULE
2vw5_BC6_1_ligand
   78    79     1     0     0
SMALL
NO_CHARGES


@<TRIPOS>ATOM
      1 O37        40.9960   -5.2790   41.7570 O.2       1 BC6500      0.0000 
      2 C21        41.0020   -5.7550   40.6250 C.2       1 BC6500      0.0000 
      3 C20        41.4180   -7.1450   40.5150 C.2       1 BC6500      0.0000 
      4 C36        42.7470   -7.5080   41.1090 C.3       1 BC6500      0.0000 
      5 C19        40.5640   -8.0530   39.9520 C.2       1 BC6500      0.0000 
      6 C18        40.7860   -9.5190   39.7600 C.3       1 BC6500      0.0000 
      7 C17        40.0280   -9.9160   38.4900 C.3       1 BC6500      0.0000 
      8 C16        38.5180  -10.0610   38.6600 C.3       1 BC6500      0.0000 
      9 C35        38.1500  -11.0510   39.7780 C.3       1 BC6500      0.0000 
     10 N22        40.6430   -4.9780   39.5910 N.am      1 BC6500      0.0000 
     11 C3         40.8770   -5.2320   38.2610 C.ar      1 BC6500      0.0000 
     12 C4         39.8760   -4.9220   37.3560 C.ar      1 BC6500      0.0000 
     13 C5         40.0430   -5.1480   35.9880 C.ar      1 BC6500      0.0000 
     14 O36        38.9920   -4.8630   35.1630 O.3       1 BC6500      0.0000 
     15 C6         41.2240   -5.7010   35.4980 C.ar      1 BC6500      0.0000 
     16 C1         42.2460   -6.0330   36.4130 C.ar      1 BC6500      0.0000 
     17 C2         42.0690   -5.7740   37.7770 C.ar      1 BC6500      0.0000 
     18 C7         43.5440   -6.6740   35.9660 C.3       1 BC6500      0.0000 
     19 C8         43.4590   -8.2170   35.8600 C.3       1 BC6500      0.0000 
     20 C25        43.2910   -8.9200   37.2190 C.3       1 BC6500      0.0000 
     21 C9         42.3660   -8.6630   34.8460 C.3       1 BC6500      0.0000 
     22 C10        42.1310  -10.1630   34.7050 C.3       1 BC6500      0.0000 
     23 O26        43.3610  -10.8360   34.3610 O.3       1 BC6500      0.0000 
     24 C27        43.3820  -12.2070   34.6920 C.3       1 BC6500      0.0000 
     25 C11        41.0990  -10.4920   33.6260 C.3       1 BC6500      0.0000 
     26 O28        41.6470   -9.9950   32.3850 O.3       1 BC6500      0.0000 
     27 C12        39.7420   -9.8420   33.9210 C.3       1 BC6500      0.0000 
     28 C29        38.7820  -10.2650   32.8140 C.3       1 BC6500      0.0000 
     29 C13        39.1360  -10.3870   35.2100 C.2       1 BC6500      0.0000 
     30 C14        38.3980   -9.7100   36.1370 C.2       1 BC6500      0.0000 
     31 C30        38.0460   -8.2490   36.0160 C.3       1 BC6500      0.0000 
     32 C15        37.8750  -10.4970   37.3180 C.3       1 BC6500      0.0000 
     33 O31        36.4860  -10.2250   37.4330 O.3       1 BC6500      0.0000 
     34 C32        35.5900  -11.0430   36.6650 C.2       1 BC6500      0.0000 
     35 O33        36.0620  -11.8940   35.9290 O.2       1 BC6500      0.0000 
     36 N34        34.3080  -10.7740   36.8570 N.am      1 BC6500      0.0000 
     37 H          39.6106   -7.7200   39.5912 H         1 BC6500      0.0000 
     38 H          40.3891  -10.0719   40.5921 H         1 BC6500      0.0000 
     39 H          41.8319   -9.7265   39.6231 H         1 BC6500      0.0000 
     40 H          40.4397  -10.8724   38.1156 H         1 BC6500      0.0000 
     41 H          40.2293   -9.1612   37.7062 H         1 BC6500      0.0000 
     42 H          38.1036   -9.0867   38.9158 H         1 BC6500      0.0000 
     43 H          40.1166   -4.0577   39.8142 H         1 BC6500      0.0000 
     44 H          38.9850   -4.5148   37.6946 H         1 BC6500      0.0000 
     45 H          41.3549   -5.8650   34.5051 H         1 BC6500      0.0000 
     46 H          42.8359   -5.9885   38.4368 H         1 BC6500      0.0000 
     47 H          44.3441   -6.4205   36.6745 H         1 BC6500      0.0000 
     48 H          43.8332   -6.2762   34.9839 H         1 BC6500      0.0000 
     49 H          44.4315   -8.5625   35.4334 H         1 BC6500      0.0000 
     50 H          42.6307   -8.2412   33.8513 H         1 BC6500      0.0000 
     51 H          41.4111   -8.1708   35.1349 H         1 BC6500      0.0000 
     52 H          41.7543  -10.5438   35.6500 H         1 BC6500      0.0000 
     53 H          40.9821  -11.5573   33.5876 H         1 BC6500      0.0000 
     54 H          39.8151   -8.8067   33.9507 H         1 BC6500      0.0000 
     55 H          39.3466  -11.4261   35.3511 H         1 BC6500      0.0000 
     56 H          38.0569  -11.5344   37.1766 H         1 BC6500      0.0000 
     57 H          34.1055  -10.0155   37.4764 H         1 BC6500      0.0000 
     58 H          33.6583  -11.3537   36.3652 H         1 BC6500      0.0000 
     59 H          43.4945   -6.9935   40.6889 H         1 BC6500      0.0000 
     60 H          42.7783   -7.3215   42.0910 H         1 BC6500      0.0000 
     61 H          42.9551   -8.4786   40.9882 H         1 BC6500      0.0000 
     62 H          38.5091  -11.9665   39.5964 H         1 BC6500      0.0000 
     63 H          38.5147  -10.7634   40.6636 H         1 BC6500      0.0000 
     64 H          37.1596  -11.1403   39.8839 H         1 BC6500      0.0000 
     65 H          44.0563   -8.7283   37.8334 H         1 BC6500      0.0000 
     66 H          42.4579   -8.6271   37.6882 H         1 BC6500      0.0000 
     67 H          43.2372   -9.9135   37.1191 H         1 BC6500      0.0000 
     68 H          44.2494  -12.6365   34.4407 H         1 BC6500      0.0000 
     69 H          43.2554  -12.3542   35.6730 H         1 BC6500      0.0000 
     70 H          42.6578  -12.7132   34.2238 H         1 BC6500      0.0000 
     71 H          39.0997   -9.9682   31.9134 H         1 BC6500      0.0000 
     72 H          38.6754  -11.2585   32.7744 H         1 BC6500      0.0000 
     73 H          37.8696   -9.8773   32.9454 H         1 BC6500      0.0000 
     74 H          38.8621   -7.6723   35.9783 H         1 BC6500      0.0000 
     75 H          37.5163   -8.0619   35.1887 H         1 BC6500      0.0000 
     76 H          37.4995   -7.9332   36.7916 H         1 BC6500      0.0000 
     77 H          38.8041   -5.7175   34.6788 H         1 BC6500      0.0000 
     78 H          42.6277  -10.1820   32.4420 H         1 BC6500      0.0000 
@<TRIPOS>BOND
     1    2    1 2    
     2    3    2 1    
     3   10    2 am   
     4    4    3 1    
     5    5    3 2    
     6   59    4 1    
     7   60    4 1    
     8   61    4 1    
     9    6    5 1    
    10   37    5 1    
    11    7    6 1    
    12   38    6 1    
    13   39    6 1    
    14    8    7 1    
    15   40    7 1    
    16   41    7 1    
    17    9    8 1    
    18   32    8 1    
    19   42    8 1    
    20   62    9 1    
    21   63    9 1    
    22   64    9 1    
    23   11   10 1    
    24   43   10 1    
    25   12   11 ar   
    26   17   11 ar   
    27   13   12 ar   
    28   44   12 1    
    29   14   13 1    
    30   15   13 ar   
    31   77   14 1    
    32   16   15 ar   
    33   45   15 1    
    34   17   16 ar   
    35   18   16 1    
    36   46   17 1    
    37   19   18 1    
    38   47   18 1    
    39   48   18 1    
    40   20   19 1    
    41   21   19 1    
    42   49   19 1    
    43   65   20 1    
    44   66   20 1    
    45   67   20 1    
    46   22   21 1    
    47   50   21 1    
    48   51   21 1    
    49   23   22 1    
    50   25   22 1    
    51   52   22 1    
    52   24   23 1    
    53   68   24 1    
    54   69   24 1    
    55   70   24 1    
    56   26   25 1    
    57   27   25 1    
    58   53   25 1    
    59   78   26 1    
    60   28   27 1    
    61   29   27 1    
    62   54   27 1    
    63   71   28 1    
    64   72   28 1    
    65   73   28 1    
    66   30   29 2    
    67   55   29 1    
    68   31   30 1    
    69   32   30 1    
    70   74   31 1    
    71   75   31 1    
    72   76   31 1    
    73   33   32 1    
    74   56   32 1    
    75   34   33 1    
    76   35   34 2    
    77   36   34 am   
    78   57   36 1    
    79   58   36 1    
@<TRIPOS>SUBSTRUCTURE
     1 BC6500      1 GROUP   
@<TRIPOS>SET

