#    Name: 4hkn_LU2_1_INTS_M
#    Modification time : Tue Mar 25 01:08:14 2014

@<TRIPOS>MOLECULE
4hkn_LU2_1_INTS_M
   44     0     9     0     0
SMALL
NO_CHARGES


@<TRIPOS>ATOM
      1 O           7.8810  -12.8905  -16.4680 O.2       1 ALC1        0.0000 
      2 O           7.4850  -12.7250  -15.3320 O.2       7 ALL1        0.0000 
      3 O           8.2770  -13.0560  -17.6040 O.2       4 ALP1        0.0000 
      4 CA          6.1075  -14.4260  -16.0840 C.3       3 GLC5        0.0000 
      5 CA          6.1760  -12.5890  -14.9460 C.3       9 GLL5        0.0000 
      6 CA          6.0390  -16.2630  -17.2220 C.3       6 GLP5        0.0000 
      7 N           1.5245  -13.0040  -17.1465 N.am      2 SEC2        0.0000 
      8 N           2.7860  -12.4550  -16.4290 N.am      8 SEL2        0.0000 
      9 N           0.2630  -13.5530  -17.8640 N.am      5 SEP2        0.0000 
     10 CA          4.1550  -12.6975  -17.8385 C.3       3 GLC5        0.0000 
     11 CA          5.1510  -12.5980  -15.9040 C.3       9 GLL5        0.0000 
     12 CA          3.1590  -12.7970  -19.7730 C.3       6 GLP5        0.0000 
     13 CA          5.1590  -14.0655  -17.0755 C.3       3 GLC5        0.0000 
     14 CA          5.1670  -15.5330  -18.2470 C.3       6 GLP5        0.0000 
     15 N          -0.2875  -12.5030  -14.4650 N.am      2 SEC2        0.0000 
     16 N           1.1740  -12.2320  -14.6120 N.am      8 SEL2        0.0000 
     17 N          -1.7490  -12.7740  -14.3180 N.am      5 SEP2        0.0000 
     18 CA          2.6295  -13.8975  -12.9250 C.3       3 GLC5        0.0000 
     19 CA          3.4610  -12.2680  -14.1730 C.3       9 GLL5        0.0000 
     20 CA          1.7980  -15.5270  -11.6770 C.3       6 GLP5        0.0000 
     21 CA          1.8230  -13.7355  -12.0495 C.3       3 GLC5        0.0000 
     22 CA          1.8480  -11.9440  -12.4220 C.3       9 GLL5        0.0000 
     23 CA          4.0475  -10.4625  -12.7635 C.3       3 GLC5        0.0000 
     24 CA          2.9020  -11.8840  -11.4890 C.3       9 GLL5        0.0000 
     25 CA          5.1930   -9.0410  -14.0380 C.3       6 GLP5        0.0000 
     26 CA          3.0995  -13.6745  -11.6990 C.3       3 GLC5        0.0000 
     27 CA          3.2970  -15.4650  -11.9090 C.3       6 GLP5        0.0000 
     28 CA          2.2975  -13.6015  -10.8910 C.3       3 GLC5        0.0000 
     29 CA          2.7970  -11.6760  -10.1050 C.3       9 GLL5        0.0000 
     30 CA          4.5670   -9.9640   -7.5890 C.3       3 GLC5        0.0000 
     31 CA          2.7700  -11.2360   -7.2910 C.3       9 GLL5        0.0000 
     32 CA          6.3640   -8.6920   -7.8870 C.3       6 GLP5        0.0000 
     33 CA          5.3880  -10.7946  -14.5620 C.3       3 GLC5        0.0000 
     34 CA          5.8540  -12.4080  -13.5900 C.3       9 GLL5        0.0000 
     35 CA          4.5883  -10.6510  -13.8697 C.3       3 GLC5        0.0000 
     36 CA          4.5060  -12.2540  -13.2300 C.3       9 GLL5        0.0000 
     37 CA         -0.1875  -11.6677   -8.9778 C.3       3 GLC5        0.0000 
     38 CA          1.6810  -11.0820   -9.4840 C.3       9 GLL5        0.0000 
     39 CA         -2.0540  -12.3660   -9.1680 C.3       6 GLP5        0.0000 
     40 CA          5.0896  -10.6475   -8.9992 C.3       3 GLC5        0.0000 
     41 CA          6.5690   -9.4580   -9.1940 C.3       6 GLP5        0.0000 
     42 CA          4.6850  -13.3972   -7.4560 C.3       3 GLC5        0.0000 
     43 CA          3.8920  -12.0300   -9.2950 C.3       9 GLL5        0.0000 
     44 CA          5.4860  -14.8690   -6.3100 C.3       6 GLP5        0.0000 
@<TRIPOS>BOND
@<TRIPOS>SUBSTRUCTURE
     1 ALC1        1 GROUP        1 X    ALC  0     ROOT ALC X 1
     2 SEC2        7 GROUP        1 X    SEC  0     **** SEC X 2
     3 GLC5        4 GROUP        1 X    GLC  0     **** GLC X 6
     4 ALP1        3 GROUP        1 Y    ALP  0     ROOT ALP Y 8
     5 SEP2        9 GROUP        1 Y    SEP  0     **** SEP Y 9
     6 GLP5        6 GROUP        1 Y    GLP  0     **** GLP Y 13
     7 ALL1        2 GROUP        1 Z    ALL  0     ROOT ALL Z 15
     8 SEL2        8 GROUP        1 Z    SEL  0     **** SEL Z 16
     9 GLL5        5 GROUP        1 Z    GLL  0     **** GLL Z 20
@<TRIPOS>SET

