#    Name: 4hkn_LU2_1_ligand
#    Modification time : Tue Mar 25 01:08:14 2014

@<TRIPOS>MOLECULE
4hkn_LU2_1_ligand
   30    32     1     0     0
SMALL
NO_CHARGES


@<TRIPOS>ATOM
      1 C1          5.8540  -12.4080  -13.5900 C.ar      1 LU21204     0.0000 
      2 O1          7.4850  -12.7250  -15.3320 O.3       1 LU21204     0.0000 
      3 C2          6.1760  -12.5890  -14.9460 C.ar      1 LU21204     0.0000 
      4 O2          2.7860  -12.4550  -16.4290 O.co2     1 LU21204     0.0000 
      5 C3          5.1510  -12.5980  -15.9040 C.ar      1 LU21204     0.0000 
      6 O3          1.1740  -12.2320  -14.6120 O.2       1 LU21204     0.0000 
      7 C4          3.8090  -12.4430  -15.5190 C.ar      1 LU21204     0.0000 
      8 O4          4.2010  -12.0450  -11.9070 O.3       1 LU21204     0.0000 
      9 C5          3.4610  -12.2680  -14.1730 C.ar      1 LU21204     0.0000 
     10 O5          0.6040  -10.2820   -7.4460 O.3       1 LU21204     0.0000 
     11 C6          4.5060  -12.2540  -13.2300 C.ar      1 LU21204     0.0000 
     12 O6          2.7160  -10.9920   -5.9240 O.3       1 LU21204     0.0000 
     13 C7          2.1100  -12.1240  -13.7860 C.2       1 LU21204     0.0000 
     14 C8          1.8480  -11.9440  -12.4220 C.2       1 LU21204     0.0000 
     15 C9          2.9020  -11.8840  -11.4890 C.2       1 LU21204     0.0000 
     16 C10         2.7970  -11.6760  -10.1050 C.ar      1 LU21204     0.0000 
     17 C11         1.6810  -11.0820   -9.4840 C.ar      1 LU21204     0.0000 
     18 C12         1.6770  -10.8570   -8.0910 C.ar      1 LU21204     0.0000 
     19 C13         2.7700  -11.2360   -7.2910 C.ar      1 LU21204     0.0000 
     20 C14         3.8760  -11.8210   -7.9090 C.ar      1 LU21204     0.0000 
     21 C15         3.8920  -12.0300   -9.2950 C.ar      1 LU21204     0.0000 
     22 H           6.5835  -12.3891  -12.8844 H         1 LU21204     0.0000 
     23 H           5.3838  -12.7193  -16.8985 H         1 LU21204     0.0000 
     24 H           0.8772  -11.8543  -12.0943 H         1 LU21204     0.0000 
     25 H           0.8681  -10.8117  -10.0451 H         1 LU21204     0.0000 
     26 H           4.6897  -12.1028   -7.3438 H         1 LU21204     0.0000 
     27 H           4.7267  -12.4540   -9.7347 H         1 LU21204     0.0000 
     28 H           7.5135  -12.3880  -16.2731 H         1 LU21204     0.0000 
     29 H           0.0318   -9.9100   -8.1769 H         1 LU21204     0.0000 
     30 H           3.6459  -10.7241   -5.6721 H         1 LU21204     0.0000 
@<TRIPOS>BOND
     1    3    1 ar   
     2   11    1 ar   
     3   22    1 1    
     4    3    2 1    
     5   28    2 1    
     6    5    3 ar   
     7    7    4 ar   
     8    7    5 ar   
     9   23    5 1    
    10   13    6 2    
    11    9    7 ar   
    12   11    8 1    
    13   15    8 1    
    14   11    9 ar   
    15   13    9 1    
    16   18   10 1    
    17   29   10 1    
    18   19   12 1    
    19   30   12 1    
    20   14   13 1    
    21   15   14 2    
    22   24   14 1    
    23   16   15 1    
    24   17   16 ar   
    25   21   16 ar   
    26   18   17 ar   
    27   25   17 1    
    28   19   18 ar   
    29   20   19 ar   
    30   21   20 ar   
    31   26   20 1    
    32   27   21 1    
@<TRIPOS>SUBSTRUCTURE
     1 LU21204     1 GROUP   
@<TRIPOS>SET

