#    Name: 3gw9_VNI_3_INTS_M
#    Modification time : Tue Mar 25 13:02:42 2014

@<TRIPOS>MOLECULE
3gw9_VNI_3_INTS_M
   48     0     3     0     0
SMALL
NO_CHARGES


@<TRIPOS>ATOM
      1 CA         23.3860   31.9480  -27.9675 C.3       1 GLC5        0.0000 
      2 CA         22.3030   30.5300  -27.6950 C.3       3 GLL5        0.0000 
      3 CA         24.4690   33.3660  -28.2400 C.3       2 GLP5        0.0000 
      4 CA         22.5095   30.0535  -24.1310 C.3       1 GLC5        0.0000 
      5 CA         22.9340   31.2280  -25.3940 C.3       3 GLL5        0.0000 
      6 CA         22.0850   28.8790  -22.8680 C.3       2 GLP5        0.0000 
      7 CA         21.6300   30.8905  -23.7000 C.3       1 GLC5        0.0000 
      8 CA         22.4890   32.1860  -24.4690 C.3       3 GLL5        0.0000 
      9 CA         20.7710   29.5950  -22.9310 C.3       2 GLP5        0.0000 
     10 CA         16.8635   27.0400  -27.1120 C.3       1 GLC5        0.0000 
     11 CA         15.8580   28.8510  -26.5450 C.3       3 GLL5        0.0000 
     12 CA         17.8690   25.2290  -27.6790 C.3       2 GLP5        0.0000 
     13 CA         15.5200   28.8620  -28.3385 C.3       1 GLC5        0.0000 
     14 CA         15.1820   28.8730  -30.1320 C.3       2 GLP5        0.0000 
     15 CA         14.0835   29.8330  -25.8735 C.3       1 GLC5        0.0000 
     16 CA         12.3090   30.8150  -25.2020 C.3       2 GLP5        0.0000 
     17 CA         15.9635   27.4895  -25.0065 C.3       1 GLC5        0.0000 
     18 CA         16.0690   26.1280  -23.4680 C.3       2 GLP5        0.0000 
     19 CA         17.2390   27.1530  -24.8640 C.3       1 GLC5        0.0000 
     20 CA         18.4090   28.1780  -26.2600 C.3       3 GLL5        0.0000 
     21 CA         19.3350   26.1625  -26.6745 C.3       1 GLC5        0.0000 
     22 CA         20.8010   27.0960  -25.6700 C.3       3 GLL5        0.0000 
     23 CA         22.1390   26.1185  -25.2870 C.3       1 GLC5        0.0000 
     24 CA         23.4770   25.1410  -24.9040 C.3       2 GLP5        0.0000 
     25 CA         21.4430   27.9875  -24.2690 C.3       1 GLC5        0.0000 
     26 CA         26.8165   27.0430  -31.7760 C.3       1 GLC5        0.0000 
     27 CA         25.3510   28.5650  -32.4030 C.3       3 GLL5        0.0000 
     28 CA         28.2820   25.5210  -31.1490 C.3       2 GLP5        0.0000 
     29 CA         24.4312   32.1715  -24.6867 C.3       1 GLC5        0.0000 
     30 CA         26.1510   32.6360  -24.4420 C.3       2 GLP5        0.0000 
     31 CA         23.5903   32.5365  -26.5858 C.3       1 GLC5        0.0000 
     32 CA         19.9285   28.9005  -24.6730 C.3       1 GLC5        0.0000 
     33 CA         19.7630   28.2340  -26.5700 C.3       3 GLL5        0.0000 
     34 CA         20.6660   26.0895  -27.3725 C.3       1 GLC5        0.0000 
     35 CA         21.0500   24.5140  -28.6250 C.3       2 GLP5        0.0000 
     36 CA         21.9983   26.4245  -30.7563 C.3       1 GLC5        0.0000 
     37 CA         23.7250   28.0020  -30.7050 C.3       3 GLL5        0.0000 
     38 CA         20.7250   25.0250  -30.3220 C.3       2 GLP5        0.0000 
     39 CA         25.1400   29.9250  -30.6197 C.3       1 GLC5        0.0000 
     40 CA         25.4320   31.4460  -29.5950 C.3       2 GLP5        0.0000 
     41 CA         24.5906   26.4455  -30.6179 C.3       1 GLC5        0.0000 
     42 CA         24.9650   28.4840  -31.0670 C.3       3 GLL5        0.0000 
     43 CA         25.0630   24.7370  -30.1070 C.3       2 GLP5        0.0000 
     44 CA         24.8993   29.3075  -38.4155 C.3       1 GLC5        0.0000 
     45 CA         27.0320   28.9860  -37.3480 C.3       3 GLL5        0.0000 
     46 CA         22.8560   29.7030  -38.7890 C.3       2 GLP5        0.0000 
     47 CA         27.3710   31.3870  -37.4316 C.3       1 GLC5        0.0000 
     48 CA         26.3170   33.2130  -37.4570 C.3       2 GLP5        0.0000 
@<TRIPOS>BOND
@<TRIPOS>SUBSTRUCTURE
     1 GLC5        1 GROUP        1 X    GLC  0     ROOT GLC X 6
     2 GLP5        3 GROUP        1 Y    GLP  0     ROOT GLP Y 13
     3 GLL5        2 GROUP        1 Z    GLL  0     ROOT GLL Z 20
@<TRIPOS>SET

