#    Name: 3gw9_VNI_3_ligand
#    Modification time : Tue Mar 25 13:02:42 2014

@<TRIPOS>MOLECULE
3gw9_VNI_3_ligand
   54    58     1     0     0
SMALL
NO_CHARGES


@<TRIPOS>ATOM
      1 O1         24.1340   27.7290  -28.4050 O.2       1 VNI490      0.0000 
      2 C1         23.3760   28.0920  -29.2650 C.2       1 VNI490      0.0000 
      3 N1         22.2200   28.7370  -29.0850 N.am      1 VNI490      0.0000 
      4 C2         21.7260   29.1380  -27.7430 C.3       1 VNI490      0.0000 
      5 C3         22.3030   30.5300  -27.6950 C.3       1 VNI490      0.0000 
      6 N2         22.1260   31.3030  -26.4580 N.pl3     1 VNI490      0.0000 
      7 C4         22.9340   31.2280  -25.3940 C.2       1 VNI490      0.0000 
      8 C5         22.4890   32.1860  -24.4690 C.2       1 VNI490      0.0000 
      9 N3         21.4430   32.8080  -24.9950 N.2       1 VNI490      0.0000 
     10 C6         21.2510   32.2740  -26.2550 C.2       1 VNI490      0.0000 
     11 C7         20.2610   29.1320  -27.5200 C.ar      1 VNI490      0.0000 
     12 C8         19.3930   29.9790  -28.1960 C.ar      1 VNI490      0.0000 
     13 C9         18.0380   29.9170  -27.9340 C.ar      1 VNI490      0.0000 
     14 C10        17.5590   29.0030  -26.9750 C.ar      1 VNI490      0.0000 
     15 CL1        15.8580   28.8510  -26.5450 Cl        1 VNI490      0.0000 
     16 C11        18.4090   28.1780  -26.2600 C.ar      1 VNI490      0.0000 
     17 C12        19.7630   28.2340  -26.5700 C.ar      1 VNI490      0.0000 
     18 CL2        20.8010   27.0960  -25.6700 Cl        1 VNI490      0.0000 
     19 C13        23.7250   28.0020  -30.7050 C.ar      1 VNI490      0.0000 
     20 C14        22.8180   27.6460  -31.6760 C.ar      1 VNI490      0.0000 
     21 C15        23.2210   27.7190  -33.0190 C.ar      1 VNI490      0.0000 
     22 C16        24.4580   28.1650  -33.3610 C.ar      1 VNI490      0.0000 
     23 C17        25.3510   28.5650  -32.4030 C.ar      1 VNI490      0.0000 
     24 C18        24.9650   28.4840  -31.0670 C.ar      1 VNI490      0.0000 
     25 C19        24.8460   28.2150  -34.6860 C.2       1 VNI490      0.0000 
     26 N4         24.0910   27.8740  -35.7310 N.2       1 VNI490      0.0000 
     27 N5         24.8330   28.1060  -36.8840 N.2       1 VNI490      0.0000 
     28 C20        26.0070   28.6190  -36.4990 C.2       1 VNI490      0.0000 
     29 O2         26.0170   28.6950  -35.1310 O.3       1 VNI490      0.0000 
     30 C21        27.0320   28.9860  -37.3480 C.ar      1 VNI490      0.0000 
     31 C22        28.2160   29.5060  -36.8430 C.ar      1 VNI490      0.0000 
     32 C23        29.2260   29.8760  -37.7170 C.ar      1 VNI490      0.0000 
     33 C24        29.0420   29.7150  -39.0910 C.ar      1 VNI490      0.0000 
     34 C25        27.8540   29.1980  -39.6030 C.ar      1 VNI490      0.0000 
     35 C26        26.8530   28.8380  -38.7360 C.ar      1 VNI490      0.0000 
     36 H          21.5951   28.9974  -29.8782 H         1 VNI490      0.0000 
     37 H          22.2573   28.5636  -26.9998 H         1 VNI490      0.0000 
     38 H          21.8789   31.1115  -28.5639 H         1 VNI490      0.0000 
     39 H          23.4025   30.4583  -27.9378 H         1 VNI490      0.0000 
     40 H          23.6755   30.6520  -25.2536 H         1 VNI490      0.0000 
     41 H          22.9012   32.3302  -23.6168 H         1 VNI490      0.0000 
     42 H          20.5691   32.5871  -26.8714 H         1 VNI490      0.0000 
     43 H          19.7590   30.6462  -28.8858 H         1 VNI490      0.0000 
     44 H          17.3779   30.5245  -28.4257 H         1 VNI490      0.0000 
     45 H          18.0624   27.5582  -25.5404 H         1 VNI490      0.0000 
     46 H          21.8790   27.3369  -31.4414 H         1 VNI490      0.0000 
     47 H          22.5451   27.4213  -33.7518 H         1 VNI490      0.0000 
     48 H          26.2763   28.9144  -32.6497 H         1 VNI490      0.0000 
     49 H          25.6308   28.7953  -30.3315 H         1 VNI490      0.0000 
     50 H          28.3413   29.6151  -35.8308 H         1 VNI490      0.0000 
     51 H          30.1048   30.2661  -37.3605 H         1 VNI490      0.0000 
     52 H          29.8019   29.9847  -39.7399 H         1 VNI490      0.0000 
     53 H          27.7383   29.0915  -40.6159 H         1 VNI490      0.0000 
     54 H          25.9627   28.4570  -39.0866 H         1 VNI490      0.0000 
@<TRIPOS>BOND
     1    2    1 2    
     2    3    2 am   
     3   19    2 1    
     4    4    3 1    
     5   36    3 1    
     6    5    4 1    
     7   11    4 1    
     8   37    4 1    
     9    6    5 1    
    10   38    5 1    
    11   39    5 1    
    12    7    6 1    
    13   10    6 1    
    14    8    7 2    
    15   40    7 1    
    16    9    8 1    
    17   41    8 1    
    18   10    9 2    
    19   42   10 1    
    20   12   11 ar   
    21   17   11 ar   
    22   13   12 ar   
    23   43   12 1    
    24   14   13 ar   
    25   44   13 1    
    26   15   14 1    
    27   16   14 ar   
    28   17   16 ar   
    29   45   16 1    
    30   18   17 1    
    31   20   19 ar   
    32   24   19 ar   
    33   21   20 ar   
    34   46   20 1    
    35   22   21 ar   
    36   47   21 1    
    37   23   22 ar   
    38   25   22 1    
    39   24   23 ar   
    40   48   23 1    
    41   49   24 1    
    42   26   25 2    
    43   29   25 1    
    44   27   26 1    
    45   28   27 2    
    46   29   28 1    
    47   30   28 1    
    48   31   30 ar   
    49   35   30 ar   
    50   32   31 ar   
    51   50   31 1    
    52   33   32 ar   
    53   51   32 1    
    54   34   33 ar   
    55   52   33 1    
    56   35   34 ar   
    57   53   34 1    
    58   54   35 1    
@<TRIPOS>SUBSTRUCTURE
     1 VNI490      1 GROUP   
@<TRIPOS>SET

