#    Name: 3ogk_OGK_4_INTS_M
#    Modification time : Tue Mar 25 04:34:39 2014

@<TRIPOS>MOLECULE
3ogk_OGK_4_INTS_M
   81     0    12     0     0
SMALL
NO_CHARGES


@<TRIPOS>ATOM
      1 CA        -54.3615  -19.9485  -51.5870 C.3       4 GLC5        0.0000 
      2 CA        -55.8890  -19.5230  -52.5020 C.3      12 GLL5        0.0000 
      3 CA        -52.8340  -20.3740  -50.6720 C.3       8 GLP5        0.0000 
      4 CA        -57.3610  -20.4655  -53.4775 C.3       4 GLC5        0.0000 
      5 CA        -58.8330  -21.4080  -54.4530 C.3       8 GLP5        0.0000 
      6 CA        -54.6330  -20.5960  -53.0115 C.3       4 GLC5        0.0000 
      7 CA        -53.3770  -21.6690  -53.5210 C.3       8 GLP5        0.0000 
      8 CA        -54.6180  -18.9875  -50.4400 C.3       4 GLC5        0.0000 
      9 CA        -56.0000  -18.4360  -51.4040 C.3      12 GLL5        0.0000 
     10 CA        -53.2360  -19.5390  -49.4760 C.3       8 GLP5        0.0000 
     11 CA        -57.1345  -16.6535  -48.5065 C.3       4 GLC5        0.0000 
     12 CA        -57.3550  -16.6430  -50.1290 C.3      12 GLL5        0.0000 
     13 CA        -56.9140  -16.6640  -46.8840 C.3       8 GLP5        0.0000 
     14 CA        -58.4150  -16.0970  -48.1470 C.3       4 GLC5        0.0000 
     15 CA        -58.6520  -15.9170  -49.8430 C.3      12 GLL5        0.0000 
     16 CA        -58.1780  -16.2770  -46.4510 C.3       8 GLP5        0.0000 
     17 O         -61.2145  -14.1085  -48.1190 O.2       1 ALC1        0.0000 
     18 O         -59.8870  -13.7250  -49.1920 O.2       9 ALL1        0.0000 
     19 O         -62.5420  -14.4920  -47.0460 O.2       5 ALP1        0.0000 
     20 N         -60.2125  -11.8390  -45.8490 N.am      2 SEC2        0.0000 
     21 N         -59.5170  -12.7070  -46.9570 N.am     10 SEL2        0.0000 
     22 N         -60.9080  -10.9710  -44.7410 N.am      6 SEP2        0.0000 
     23 NZ        -59.6025   -9.7380  -46.5075 N.4       3 LYC4        0.0000 
     24 NZ        -59.0250  -10.6160  -47.7110 N.4      11 LYL4        0.0000 
     25 NZ        -60.8850   -9.6600  -44.5070 N.4       7 LYP4        0.0000 
     26 NZ        -57.9830   -9.8085  -48.2600 N.4       3 LYC4        0.0000 
     27 NZ        -56.7810   -7.7310  -49.1620 N.4       7 LYP4        0.0000 
     28 N         -59.6025   -9.7380  -46.5075 N.am      2 SEC2        0.0000 
     29 N         -59.0250  -10.6160  -47.7110 N.am     10 SEL2        0.0000 
     30 N         -60.1800   -8.8600  -45.3040 N.am      6 SEP2        0.0000 
     31 N         -57.9830   -9.8085  -48.2600 N.am      2 SEC2        0.0000 
     32 N         -56.9410   -9.0010  -48.8090 N.am      6 SEP2        0.0000 
     33 CA        -59.7035  -10.7725  -51.8060 C.3       4 GLC5        0.0000 
     34 CA        -59.7950  -11.4390  -49.8830 C.3      12 GLL5        0.0000 
     35 CA        -59.6120  -10.1060  -53.7290 C.3       8 GLP5        0.0000 
     36 CA        -59.0745  -12.6060  -51.4825 C.3       4 GLC5        0.0000 
     37 CA        -58.3540  -13.7730  -53.0820 C.3       8 GLP5        0.0000 
     38 CA        -62.4050  -12.8595  -48.3215 C.3       4 GLC5        0.0000 
     39 CA        -61.0340  -11.7730  -49.5540 C.3      12 GLL5        0.0000 
     40 CA        -63.7760  -13.9460  -47.0890 C.3       8 GLP5        0.0000 
     41 CA        -62.5570   -8.4520  -48.0765 C.3       4 GLC5        0.0000 
     42 CA        -63.0460  -10.4120  -48.4860 C.3      12 GLL5        0.0000 
     43 CA        -62.0680   -6.4920  -47.6670 C.3       8 GLP5        0.0000 
     44 CA        -64.8335   -9.0555  -48.4620 C.3       4 GLC5        0.0000 
     45 CA        -66.6210   -7.6990  -48.4380 C.3       8 GLP5        0.0000 
     46 CA        -63.4555  -11.7020  -49.7330 C.3       4 GLC5        0.0000 
     47 CA        -63.8650  -12.9920  -50.9800 C.3       8 GLP5        0.0000 
     48 CA        -59.4730  -17.0355  -47.7655 C.3       4 GLC5        0.0000 
     49 CA        -59.8230  -16.8090  -49.3950 C.3      12 GLL5        0.0000 
     50 CA        -59.1230  -17.2620  -46.1360 C.3       8 GLP5        0.0000 
     51 CA        -62.4245  -14.6610  -50.5555 C.3       4 GLC5        0.0000 
     52 CA        -60.9840  -16.3300  -50.1310 C.3      12 GLL5        0.0000 
     53 CA        -61.2255  -16.5535  -52.3120 C.3       4 GLC5        0.0000 
     54 CA        -61.4670  -16.7770  -54.4930 C.3       8 GLP5        0.0000 
     55 CA        -63.5725  -16.2900  -50.8035 C.3       4 GLC5        0.0000 
     56 CA        -61.9410  -17.5460  -50.1230 C.3      12 GLL5        0.0000 
     57 CA        -65.2040  -15.0340  -51.4840 C.3       8 GLP5        0.0000 
     58 CA        -62.1540  -18.2680  -52.0950 C.3       4 GLC5        0.0000 
     59 CA        -62.3670  -18.9900  -54.0670 C.3       8 GLP5        0.0000 
     60 CA        -59.1975  -18.4560  -47.9835 C.3       4 GLC5        0.0000 
     61 CA        -59.5990  -18.2900  -49.7100 C.3      12 GLL5        0.0000 
     62 CA        -58.7960  -18.6220  -46.2570 C.3       8 GLP5        0.0000 
     63 CA        -58.0645  -18.8725  -48.7840 C.3       4 GLC5        0.0000 
     64 CA        -58.5900  -18.7310  -50.8650 C.3      12 GLL5        0.0000 
     65 CA        -57.5390  -19.0140  -46.7030 C.3       8 GLP5        0.0000 
     66 CA        -57.6575  -20.5660  -50.7005 C.3       4 GLC5        0.0000 
     67 CA        -56.7250  -22.4010  -50.5360 C.3       8 GLP5        0.0000 
     68 CA        -59.9295  -18.4540  -52.5660 C.3       4 GLC5        0.0000 
     69 CA        -61.2690  -18.1770  -54.2670 C.3       8 GLP5        0.0000 
     70 CA        -58.7115  -20.0695  -52.6590 C.3       4 GLC5        0.0000 
     71 CA        -56.3347  -20.6902  -51.2445 C.3       4 GLC5        0.0000 
     72 CA        -56.6517  -18.0715  -49.1403 C.3       4 GLC5        0.0000 
     73 CA        -56.6010  -18.0370  -47.0070 C.3       8 GLP5        0.0000 
     74 CA        -58.1788  -15.0265  -51.5340 C.3       4 GLC5        0.0000 
     75 CA        -60.7388   -9.7875  -50.4523 C.3       4 GLC5        0.0000 
     76 CA        -61.0630   -7.9690  -51.1860 C.3       8 GLP5        0.0000 
     77 CA        -63.1820  -11.7728  -47.4675 C.3       4 GLC5        0.0000 
     78 CA        -61.7820  -11.2690  -48.2860 C.3      12 GLL5        0.0000 
     79 CA        -63.9500  -12.7050  -46.5490 C.3       8 GLP5        0.0000 
     80 CA        -61.7385   -9.4047  -49.7860 C.3       4 GLC5        0.0000 
     81 CA        -62.2532  -12.3375  -50.0686 C.3       4 GLC5        0.0000 
@<TRIPOS>BOND
@<TRIPOS>SUBSTRUCTURE
     1 ALC1       17 GROUP        1 X    ALC  0     ROOT ALC X 1
     2 SEC2       20 GROUP        1 X    SEC  0     **** SEC X 2
     3 LYC4       23 GROUP        1 X    LYC  0     **** LYC X 4
     4 GLC5        1 GROUP        1 X    GLC  0     **** GLC X 6
     5 ALP1       19 GROUP        1 Y    ALP  0     ROOT ALP Y 8
     6 SEP2       22 GROUP        1 Y    SEP  0     **** SEP Y 9
     7 LYP4       25 GROUP        1 Y    LYP  0     **** LYP Y 11
     8 GLP5        3 GROUP        1 Y    GLP  0     **** GLP Y 13
     9 ALL1       18 GROUP        1 Z    ALL  0     ROOT ALL Z 15
    10 SEL2       21 GROUP        1 Z    SEL  0     **** SEL Z 16
    11 LYL4       24 GROUP        1 Z    LYL  0     **** LYL Z 18
    12 GLL5        2 GROUP        1 Z    GLL  0     **** GLL Z 20
@<TRIPOS>SET

