#    Name: 3ogk_OGK_4_ligand
#    Modification time : Tue Mar 25 04:34:39 2014

@<TRIPOS>MOLECULE
3ogk_OGK_4_ligand
   49    51     1     0     0
SMALL
NO_CHARGES


@<TRIPOS>ATOM
      1 C01       -55.8890  -19.5230  -52.5020 C.3       1 OGK1100     0.0000 
      2 C02       -56.0000  -18.4360  -51.4040 C.3       1 OGK1100     0.0000 
      3 C03       -57.4050  -17.7760  -51.1430 C.3       1 OGK1100     0.0000 
      4 C04       -57.3550  -16.6430  -50.1290 C.3       1 OGK1100     0.0000 
      5 C05       -58.6520  -15.9170  -49.8430 C.3       1 OGK1100     0.0000 
      6 C06       -58.6420  -14.4020  -49.5300 C.2       1 OGK1100     0.0000 
      7 O07       -57.8180  -13.7350  -50.0270 O.2       1 OGK1100     0.0000 
      8 N08       -59.8870  -13.7250  -49.1920 N.am      1 OGK1100     0.0000 
      9 C09       -59.9550  -12.2510  -48.9060 C.3       1 OGK1100     0.0000 
     10 C10       -59.5680  -11.9250  -47.8760 C.2       1 OGK1100     0.0000 
     11 O11       -59.5170  -12.7070  -46.9570 O.co2     1 OGK1100     0.0000 
     12 O12       -59.0250  -10.6160  -47.7110 O.co2     1 OGK1100     0.0000 
     13 C13       -59.7950  -11.4390  -49.8830 C.3       1 OGK1100     0.0000 
     14 C14       -61.0340  -11.7730  -49.5540 C.3       1 OGK1100     0.0000 
     15 C15       -61.7820  -11.2690  -48.2860 C.3       1 OGK1100     0.0000 
     16 C16       -63.0460  -10.4120  -48.4860 C.3       1 OGK1100     0.0000 
     17 C17       -59.8230  -16.8090  -49.3950 C.3       1 OGK1100     0.0000 
     18 C18       -60.9840  -16.3300  -50.1310 C.3       1 OGK1100     0.0000 
     19 C19       -61.9410  -17.5460  -50.1230 C.3       1 OGK1100     0.0000 
     20 C20       -60.9990  -18.7540  -50.0370 C.2       1 OGK1100     0.0000 
     21 O21       -61.2840  -19.8930  -50.1850 O.2       1 OGK1100     0.0000 
     22 C22       -59.5990  -18.2900  -49.7100 C.3       1 OGK1100     0.0000 
     23 C23       -58.5900  -18.7310  -50.8650 C.3       1 OGK1100     0.0000 
     24 H         -55.2802  -17.6169  -51.6399 H         1 OGK1100     0.0000 
     25 H         -55.6445  -18.8676  -50.4386 H         1 OGK1100     0.0000 
     26 H         -57.6712  -17.2589  -52.1399 H         1 OGK1100     0.0000 
     27 H         -56.5935  -15.8975  -50.4689 H         1 OGK1100     0.0000 
     28 H         -56.9496  -17.0464  -49.1676 H         1 OGK1100     0.0000 
     29 H         -59.0361  -15.8119  -51.1027 H         1 OGK1100     0.0000 
     30 H         -60.7552  -14.2544  -49.1428 H         1 OGK1100     0.0000 
     31 H         -59.4938  -11.8700  -50.7360 H         1 OGK1100     0.0000 
     32 H         -59.5637  -10.5027  -49.6110 H         1 OGK1100     0.0000 
     33 H         -61.4385  -12.4833  -50.0608 H         1 OGK1100     0.0000 
     34 H         -61.0559  -10.6922  -47.6645 H         1 OGK1100     0.0000 
     35 H         -62.0500  -12.1591  -47.6678 H         1 OGK1100     0.0000 
     36 H         -59.9697  -16.6781  -48.3468 H         1 OGK1100     0.0000 
     37 H         -60.7468  -16.0996  -51.1439 H         1 OGK1100     0.0000 
     38 H         -61.4675  -15.5224  -49.6315 H         1 OGK1100     0.0000 
     39 H         -62.4814  -17.5739  -51.0316 H         1 OGK1100     0.0000 
     40 H         -62.5544  -17.5048  -49.2625 H         1 OGK1100     0.0000 
     41 H         -59.3184  -18.7997  -48.7868 H         1 OGK1100     0.0000 
     42 H         -58.1994  -19.7287  -50.5986 H         1 OGK1100     0.0000 
     43 H         -59.1810  -18.8572  -51.7889 H         1 OGK1100     0.0000 
     44 H         -54.9565  -19.8749  -52.5833 H         1 OGK1100     0.0000 
     45 H         -56.4819  -20.3054  -52.3113 H         1 OGK1100     0.0000 
     46 H         -56.1488  -19.1706  -53.4011 H         1 OGK1100     0.0000 
     47 H         -62.8488   -9.5714  -48.9904 H         1 OGK1100     0.0000 
     48 H         -63.7503  -10.9030  -48.9986 H         1 OGK1100     0.0000 
     49 H         -63.4533  -10.1417  -47.6136 H         1 OGK1100     0.0000 
@<TRIPOS>BOND
     1    2    1 1    
     2   44    1 1    
     3   45    1 1    
     4   46    1 1    
     5    3    2 1    
     6   24    2 1    
     7   25    2 1    
     8    4    3 1    
     9   23    3 1    
    10   26    3 1    
    11    5    4 1    
    12   27    4 1    
    13   28    4 1    
    14    6    5 1    
    15   17    5 1    
    16   29    5 1    
    17    7    6 2    
    18    8    6 am   
    19    9    8 1    
    20   30    8 1    
    21   10    9 1    
    22   13    9 1    
    23   14    9 1    
    24   11   10 ar   
    25   12   10 ar   
    26   14   13 1    
    27   31   13 1    
    28   32   13 1    
    29   15   14 1    
    30   33   14 1    
    31   16   15 1    
    32   34   15 1    
    33   35   15 1    
    34   47   16 1    
    35   48   16 1    
    36   49   16 1    
    37   18   17 1    
    38   22   17 1    
    39   36   17 1    
    40   19   18 1    
    41   37   18 1    
    42   38   18 1    
    43   20   19 1    
    44   39   19 1    
    45   40   19 1    
    46   21   20 2    
    47   22   20 1    
    48   23   22 1    
    49   41   22 1    
    50   42   23 1    
    51   43   23 1    
@<TRIPOS>SUBSTRUCTURE
     1 OGK1100     1 GROUP   
@<TRIPOS>SET

