#    Name: 3jqc_JU2_3_INTS_M
#    Modification time : Tue Mar 25 17:45:06 2014

@<TRIPOS>MOLECULE
3jqc_JU2_3_INTS_M
   32     0     6     0     0
SMALL
NO_CHARGES


@<TRIPOS>ATOM
      1 CA          1.7115   17.5990   28.6035 C.3       2 GLC5        0.0000 
      2 CA         -0.1970   16.7400   28.6110 C.3       6 GLL5        0.0000 
      3 CA          3.6200   18.4580   28.5960 C.3       4 GLP5        0.0000 
      4 CA         -2.0100   17.6130   28.7775 C.3       2 GLC5        0.0000 
      5 CA         -3.8230   18.4860   28.9440 C.3       4 GLP5        0.0000 
      6 CA         -0.9385   16.0200   30.0715 C.3       2 GLC5        0.0000 
      7 CA         -1.6800   15.3000   31.5320 C.3       4 GLP5        0.0000 
      8 CA          2.3660   18.9780   30.4035 C.3       2 GLC5        0.0000 
      9 CA          0.5700   18.8710   31.0820 C.3       6 GLL5        0.0000 
     10 CA          4.1620   19.0850   29.7250 C.3       4 GLP5        0.0000 
     11 CA         -0.9045   19.6405   29.6240 C.3       2 GLC5        0.0000 
     12 CA         -2.3790   20.4100   28.1660 C.3       4 GLP5        0.0000 
     13 CA          1.0050   20.6150   31.7770 C.3       2 GLC5        0.0000 
     14 CA          1.4400   22.3590   32.4720 C.3       4 GLP5        0.0000 
     15 CA         -0.3185   17.2035   31.9490 C.3       2 GLC5        0.0000 
     16 CA         -1.2070   15.5360   32.8160 C.3       4 GLP5        0.0000 
     17 O           1.8960   14.2660   29.8180 O.2       1 ALC1        0.0000 
     18 O           1.7540   15.5150   30.4120 O.2       5 ALL1        0.0000 
     19 O           2.0380   13.0170   29.2240 O.2       3 ALP1        0.0000 
     20 CA          2.1360   14.2035   32.6070 C.3       2 GLC5        0.0000 
     21 CA          2.4590   15.7850   31.5390 C.3       6 GLL5        0.0000 
     22 CA          1.8130   12.6220   33.6750 C.3       4 GLP5        0.0000 
     23 O           5.3195   13.3950   33.4065 O.2       1 ALC1        0.0000 
     24 O           4.8200   14.6980   33.9470 O.2       5 ALL1        0.0000 
     25 O           5.8190   12.0920   32.8660 O.2       3 ALP1        0.0000 
     26 O           4.9625   15.7780   34.9780 O.2       1 ALC1        0.0000 
     27 O           5.1050   16.8580   36.0090 O.2       3 ALP1        0.0000 
     28 O           4.4060   16.8075   34.9275 O.2       1 ALC1        0.0000 
     29 O           3.7070   16.7570   33.8460 O.2       5 ALL1        0.0000 
     30 CA          4.3383   16.3963   31.4805 C.3       2 GLC5        0.0000 
     31 CA          2.1560   17.1540   32.0650 C.3       6 GLL5        0.0000 
     32 CA          6.3690   16.3230   31.1590 C.3       4 GLP5        0.0000 
@<TRIPOS>BOND
@<TRIPOS>SUBSTRUCTURE
     1 ALC1       17 GROUP        1 X    ALC  0     ROOT ALC X 1
     2 GLC5        1 GROUP        1 X    GLC  0     **** GLC X 6
     3 ALP1       19 GROUP        1 Y    ALP  0     ROOT ALP Y 8
     4 GLP5        3 GROUP        1 Y    GLP  0     **** GLP Y 13
     5 ALL1       18 GROUP        1 Z    ALL  0     ROOT ALL Z 15
     6 GLL5        2 GROUP        1 Z    GLL  0     **** GLL Z 20
@<TRIPOS>SET

