#    Name: 3jqc_JU2_3_ligand
#    Modification time : Tue Mar 25 17:45:06 2014

@<TRIPOS>MOLECULE
3jqc_JU2_3_ligand
   18    19     1     0     0
SMALL
NO_CHARGES


@<TRIPOS>ATOM
      1 BR15       -0.1970   16.7400   28.6110 Br        1 JU2270      0.0000 
      2 C8          1.0170   16.5960   30.1520 C.2       1 JU2270      0.0000 
      3 C7          1.1780   17.6790   31.1100 C.2       1 JU2270      0.0000 
      4 C10         0.5700   18.8710   31.0820 C.1       1 JU2270      0.0000 
      5 N11         0.0290   19.8940   30.9900 N.1       1 JU2270      0.0000 
      6 N9          1.7540   15.5150   30.4120 N.pl3     1 JU2270      0.0000 
      7 C5          2.4590   15.7850   31.5390 C.2       1 JU2270      0.0000 
      8 C4          2.1560   17.1540   32.0650 C.2       1 JU2270      0.0000 
      9 C3          2.8390   17.6150   33.2810 C.2       1 JU2270      0.0000 
     10 O12         2.5990   18.7640   33.7380 O.2       1 JU2270      0.0000 
     11 N6          3.3520   15.0390   32.2190 N.2       1 JU2270      0.0000 
     12 C1          3.9500   15.5180   33.3330 C.2       1 JU2270      0.0000 
     13 N13         4.8200   14.6980   33.9470 N.pl3     1 JU2270      0.0000 
     14 N2          3.7070   16.7570   33.8460 N.am      1 JU2270      0.0000 
     15 H           1.7883   14.7013   29.9101 H         1 JU2270      0.0000 
     16 H           5.2961   15.0763   34.7409 H         1 JU2270      0.0000 
     17 H           4.9136   13.7827   33.5552 H         1 JU2270      0.0000 
     18 H           4.2242   17.0475   34.7215 H         1 JU2270      0.0000 
@<TRIPOS>BOND
     1    2    1 1    
     2    3    2 2    
     3    6    2 1    
     4    4    3 1    
     5    8    3 1    
     6    5    4 3    
     7    7    6 1    
     8   15    6 1    
     9    8    7 2    
    10   11    7 1    
    11    9    8 1    
    12   10    9 2    
    13   14    9 am   
    14   12   11 2    
    15   13   12 1    
    16   14   12 1    
    17   16   13 1    
    18   17   13 1    
    19   18   14 1    
@<TRIPOS>SUBSTRUCTURE
     1 JU2270      1 GROUP   
@<TRIPOS>SET

