#    Name: 1qpn_NCN_4_INTS_M
#    Modification time : Mon Mar 24 23:48:50 2014

@<TRIPOS>MOLECULE
1qpn_NCN_4_INTS_M
   46     0     9     0     0
SMALL
NO_CHARGES


@<TRIPOS>ATOM
      1 NZ         -6.5590   72.8160   12.4720 N.4       2 LYC4        0.0000 
      2 NZ         -5.3440   72.1600   11.4920 N.4       8 LYL4        0.0000 
      3 NZ         -7.7740   73.4720   13.4520 N.4       5 LYP4        0.0000 
      4 N          -4.0240   73.0010   12.0870 N.am      1 SEC2        0.0000 
      5 N          -5.3440   72.1600   11.4920 N.am      7 SEL2        0.0000 
      6 N          -2.7040   73.8420   12.6820 N.am      4 SEP2        0.0000 
      7 N          -6.5590   72.8160   12.4720 N.am      1 SEC2        0.0000 
      8 N          -7.7740   73.4720   13.4520 N.am      4 SEP2        0.0000 
      9 N          -3.7955   71.9945    9.1255 N.am      1 SEC2        0.0000 
     10 N          -3.6500   70.7550   10.0480 N.am      7 SEL2        0.0000 
     11 N          -3.9410   73.2340    8.2030 N.am      4 SEP2        0.0000 
     12 N          -5.0200   72.1990    8.7020 N.am      1 SEC2        0.0000 
     13 N          -6.0990   71.1640    9.2010 N.am      7 SEL2        0.0000 
     14 CA         -8.3610   69.4755    7.7540 C.3       3 GLC5        0.0000 
     15 CA         -7.5060   70.7160    9.1130 C.3       9 GLL5        0.0000 
     16 CA         -9.2160   68.2350    6.3950 C.3       6 GLP5        0.0000 
     17 CA         -7.7945   68.8255    9.4230 C.3       3 GLC5        0.0000 
     18 CA         -8.0830   66.9350    9.7330 C.3       6 GLP5        0.0000 
     19 CA         -8.2090   73.0545   10.9870 C.3       3 GLC5        0.0000 
     20 CA         -8.6540   71.6660    9.6560 C.3       9 GLL5        0.0000 
     21 CA         -7.7640   74.4430   12.3180 C.3       6 GLP5        0.0000 
     22 CA         -8.4985   74.4080    8.2250 C.3       3 GLC5        0.0000 
     23 CA        -10.0380   73.5640    9.3170 C.3       9 GLL5        0.0000 
     24 CA         -6.9590   75.2520    7.1330 C.3       6 GLP5        0.0000 
     25 CA        -10.2970   71.2965    6.6475 C.3       3 GLC5        0.0000 
     26 CA        -10.2810   73.3140    6.7570 C.3       9 GLL5        0.0000 
     27 CA        -10.3130   69.2790    6.5380 C.3       6 GLP5        0.0000 
     28 CA        -10.7700   76.2985    3.5955 C.3       3 GLC5        0.0000 
     29 CA        -10.9960   75.1490    5.3240 C.3       9 GLL5        0.0000 
     30 CA        -10.5440   77.4480    1.8670 C.3       6 GLP5        0.0000 
     31 N         -10.8120   79.1815    3.9130 N.am      1 SEC2        0.0000 
     32 N         -11.2060   77.9660    4.9760 N.am      7 SEL2        0.0000 
     33 N         -10.4180   80.3970    2.8500 N.am      4 SEP2        0.0000 
     34 CA         -9.8600   70.3558    8.0173 C.3       3 GLC5        0.0000 
     35 CA        -10.1600   71.1990    9.3370 C.3       9 GLL5        0.0000 
     36 CA         -9.1242   73.7043   10.9667 C.3       3 GLC5        0.0000 
     37 CA        -10.9310   72.3670    9.9140 C.3       9 GLL5        0.0000 
     38 CA         -8.8368   74.8057    6.4223 C.3       3 GLC5        0.0000 
     39 CA        -11.8927   72.8492    5.7003 C.3       3 GLC5        0.0000 
     40 CA        -13.0710   71.3390    5.6890 C.3       6 GLP5        0.0000 
     41 CA         -9.3667   73.1813    5.0663 C.3       3 GLC5        0.0000 
     42 CA        -10.5850   73.8260    5.4410 C.3       9 GLL5        0.0000 
     43 CA         -8.0190   72.0030    4.4210 C.3       6 GLP5        0.0000 
     44 CA         -9.1258   76.1855    7.4305 C.3       3 GLC5        0.0000 
     45 CA        -11.1420   76.0170    6.4440 C.3       9 GLL5        0.0000 
     46 CA         -7.2590   76.6060    7.7700 C.3       6 GLP5        0.0000 
@<TRIPOS>BOND
@<TRIPOS>SUBSTRUCTURE
     1 SEC2        4 GROUP        1 X    SEC  0     ROOT SEC X 2
     2 LYC4        1 GROUP        1 X    LYC  0     **** LYC X 4
     3 GLC5       14 GROUP        1 X    GLC  0     **** GLC X 6
     4 SEP2        6 GROUP        1 Y    SEP  0     ROOT SEP Y 9
     5 LYP4        3 GROUP        1 Y    LYP  0     **** LYP Y 11
     6 GLP5       16 GROUP        1 Y    GLP  0     **** GLP Y 13
     7 SEL2        5 GROUP        1 Z    SEL  0     ROOT SEL Z 16
     8 LYL4        2 GROUP        1 Z    LYL  0     **** LYL Z 18
     9 GLL5       15 GROUP        1 Z    GLL  0     **** GLL Z 20
@<TRIPOS>SET

