#    Name: 1qpn_NCN_4_ligand
#    Modification time : Mon Mar 24 23:48:50 2014

@<TRIPOS>MOLECULE
1qpn_NCN_4_ligand
   34    35     1     0     0
SMALL
NO_CHARGES


@<TRIPOS>ATOM
      1 P          -5.1310   70.9070   10.5980 P.3       1 NCN2904     0.0000 
      2 O1P        -5.3440   72.1600   11.4920 O.co2     1 NCN2904     0.0000 
      3 O2P        -3.6500   70.7550   10.0480 O.co2     1 NCN2904     0.0000 
      4 O3P        -5.6520   69.6220   11.3030 O.co2     1 NCN2904     0.0000 
      5 O5'        -6.0990   71.1640    9.2010 O.3       1 NCN2904     0.0000 
      6 C5'        -7.5060   70.7160    9.1130 C.3       1 NCN2904     0.0000 
      7 C4'        -8.6540   71.6660    9.6560 C.3       1 NCN2904     0.0000 
      8 O4'        -8.6310   72.9880    9.0750 O.3       1 NCN2904     0.0000 
      9 C3'       -10.1600   71.1990    9.3370 C.3       1 NCN2904     0.0000 
     10 O3'       -10.6720   69.9090    9.8930 O.3       1 NCN2904     0.0000 
     11 C2'       -10.9310   72.3670    9.9140 C.3       1 NCN2904     0.0000 
     12 O2'       -11.2330   72.2400   11.3670 O.3       1 NCN2904     0.0000 
     13 C1'       -10.0380   73.5640    9.3170 C.3       1 NCN2904     0.0000 
     14 N1        -10.4180   74.1550    7.9260 N.pl3     1 NCN2904     0.0000 
     15 C6        -10.2810   73.3140    6.7570 C.ar      1 NCN2904     0.0000 
     16 C5        -10.5850   73.8260    5.4410 C.ar      1 NCN2904     0.0000 
     17 C4        -10.9960   75.1490    5.3240 C.ar      1 NCN2904     0.0000 
     18 C3        -11.1420   76.0170    6.4440 C.ar      1 NCN2904     0.0000 
     19 C2        -10.8430   75.5130    7.7380 C.ar      1 NCN2904     0.0000 
     20 C7        -11.5930   77.4490    6.1150 C.2       1 NCN2904     0.0000 
     21 O7        -11.2060   77.9660    4.9760 O.co2     1 NCN2904     0.0000 
     22 O8        -12.3010   78.0590    7.0230 O.co2     1 NCN2904     0.0000 
     23 H          -7.6356   69.7326    9.6455 H         1 NCN2904     0.0000 
     24 H          -7.7737   70.4805    8.0451 H         1 NCN2904     0.0000 
     25 H          -8.5905   71.7352   10.7311 H         1 NCN2904     0.0000 
     26 H         -10.2703   71.2634    8.2633 H         1 NCN2904     0.0000 
     27 H         -11.8646   72.4051    9.3020 H         1 NCN2904     0.0000 
     28 H          -9.9470   74.3356   10.0327 H         1 NCN2904     0.0000 
     29 H          -9.9680   72.3544    6.8636 H         1 NCN2904     0.0000 
     30 H         -10.4935   73.2182    4.6414 H         1 NCN2904     0.0000 
     31 H         -11.2107   75.5371    4.3790 H         1 NCN2904     0.0000 
     32 H         -10.9302   76.1242    8.5551 H         1 NCN2904     0.0000 
     33 H         -11.1139   70.1563   10.7553 H         1 NCN2904     0.0000 
     34 H         -12.2101   72.4375   11.4464 H         1 NCN2904     0.0000 
@<TRIPOS>BOND
     1    2    1 ar   
     2    3    1 1    
     3    4    1 ar   
     4    5    1 1    
     5    6    5 1    
     6    7    6 1    
     7   23    6 1    
     8   24    6 1    
     9    8    7 1    
    10    9    7 1    
    11   25    7 1    
    12   13    8 1    
    13   10    9 1    
    14   11    9 1    
    15   26    9 1    
    16   33   10 1    
    17   12   11 1    
    18   13   11 1    
    19   27   11 1    
    20   34   12 1    
    21   14   13 1    
    22   28   13 1    
    23   15   14 ar   
    24   19   14 ar   
    25   16   15 ar   
    26   29   15 1    
    27   17   16 ar   
    28   30   16 1    
    29   18   17 ar   
    30   31   17 1    
    31   19   18 ar   
    32   20   18 1    
    33   32   19 1    
    34   21   20 ar   
    35   22   20 ar   
@<TRIPOS>SUBSTRUCTURE
     1 NCN2904     1 GROUP   
@<TRIPOS>SET

