#    Name: 1I9P_1_CAVITY_N1_6.mol2
#    Modification time : Tue Mar 11 07:55:23 2014

@<TRIPOS>MOLECULE
1I9P_1_CAVITY_N1_6.mol2
   78     0     6     0     0
SMALL
NO_CHARGES


@<TRIPOS>ATOM
      1 CA         -2.1259    4.3850   15.3185 C.3       5 GLY6        0.0000 
      2 N          -1.3018    3.3272   12.6349 N.2       2 ALA2        0.0000 
      3 N           0.2492    2.0615   11.9332 N.2       2 ALA2        0.0000 
      4 DU         -0.8898    2.7984   11.2930 H         6 CUB7        0.0000 
      5 DU         -0.4778    2.2695    9.9512 H         6 CUB7        0.0000 
      6 N          -1.2047    2.4776    7.9692 N.2       2 ALA2        0.0000 
      7 CA         -4.5618    4.4560   16.2194 C.3       5 GLY6        0.0000 
      8 CA         -3.0108    3.1903   15.5177 C.3       5 GLY6        0.0000 
      9 CA         -4.1497    3.9271   14.8775 C.3       5 GLY6        0.0000 
     10 DU         -5.2887    4.6640   14.2374 H         6 CUB7        0.0000 
     11 DU         -6.4276    5.4009   13.5972 H         6 CUB7        0.0000 
     12 OG         -1.4598    1.9245   14.8160 O.2       1 SER1        0.0000 
     13 OG         -2.5988    2.6614   14.1758 O.2       1 SER1        0.0000 
     14 DU         -3.7377    3.3983   13.5357 H         6 CUB7        0.0000 
     15 O          -4.8767    4.1352   12.8955 O.2       2 ALA2        0.0000 
     16 O          -6.0156    4.8720   12.2554 O.2       2 ALA2        0.0000 
     17 OG         -1.0478    1.3957   13.4742 O.2       1 SER1        0.0000 
     18 OG         -2.1867    2.1325   12.8340 O.2       1 SER1        0.0000 
     19 DU         -3.3257    2.8694   12.1938 H         6 CUB7        0.0000 
     20 O          -4.4646    3.6063   11.5537 O.2       2 ALA2        0.0000 
     21 OG         -0.6357    0.8668   12.1323 O.2       1 SER1        0.0000 
     22 DU         -1.7747    1.6037   11.4922 H         6 CUB7        0.0000 
     23 DU         -2.9136    2.3406   10.8520 H         6 CUB7        0.0000 
     24 CZ         -0.2237    0.3380   10.7905 C.ar      4 PHE5        0.0000 
     25 N          -1.3626    1.0748   10.1503 N.2       2 ALA2        0.0000 
     26 N          -2.5016    1.8117    9.5102 N.2       2 ALA2        0.0000 
     27 N          -0.9506    0.5460    8.8085 N.2       2 ALA2        0.0000 
     28 CA         -6.5856    3.9982   15.7783 C.3       5 GLY6        0.0000 
     29 CA         -3.8957    1.9955   15.7168 C.3       5 GLY6        0.0000 
     30 CA         -5.0346    2.7324   15.0767 C.3       5 GLY6        0.0000 
     31 CA         -6.1736    3.4693   14.4365 C.3       5 GLY6        0.0000 
     32 CA         -7.3125    4.2062   13.7963 C.3       5 GLY6        0.0000 
     33 OG         -3.4836    1.4667   14.3750 O.2       1 SER1        0.0000 
     34 DU         -4.6226    2.2036   13.7348 H         6 CUB7        0.0000 
     35 O          -5.7615    2.9405   13.0947 O.2       2 ALA2        0.0000 
     36 OG         -3.0716    0.9378   13.0331 O.2       1 SER1        0.0000 
     37 O          -4.2106    1.6747   12.3930 O.2       2 ALA2        0.0000 
     38 O          -5.3495    2.4116   11.7528 O.2       2 ALA2        0.0000 
     39 OG         -1.5206   -0.3279   12.3315 O.2       1 SER1        0.0000 
     40 OG         -2.6596    0.4090   11.6913 O.2       1 SER1        0.0000 
     41 N          -3.7985    1.1459   11.0511 N.2       2 ALA2        0.0000 
     42 N          -4.9375    1.8827   10.4110 N.2       2 ALA2        0.0000 
     43 CZ         -1.1086   -0.8568   10.9896 C.ar      4 PHE5        0.0000 
     44 N          -2.2475   -0.1199   10.3495 N.2       2 ALA2        0.0000 
     45 CA         -6.3315    2.0666   16.6177 C.3       5 GLY6        0.0000 
     46 OG         -3.6416    0.0640   16.5561 O.2       1 SER1        0.0000 
     47 CA         -4.7806    0.8008   15.9160 C.3       5 GLY6        0.0000 
     48 CA         -5.9195    1.5377   15.2758 C.3       5 GLY6        0.0000 
     49 CA         -7.0585    2.2746   14.6357 C.3       5 GLY6        0.0000 
     50 OG         -4.3685    0.2720   14.5741 O.2       1 SER1        0.0000 
     51 O          -5.5075    1.0089   13.9340 O.2       2 ALA2        0.0000 
     52 OG         -3.9565   -0.2569   13.2323 O.2       1 SER1        0.0000 
     53 O          -5.0954    0.4800   12.5921 O.2       2 ALA2        0.0000 
     54 OG         -2.4055   -1.5226   12.5306 O.2       1 SER1        0.0000 
     55 OG         -3.5444   -0.7857   11.8904 O.2       1 SER1        0.0000 
     56 O          -4.6834   -0.0488   11.2503 O.2       2 ALA2        0.0000 
     57 N          -5.8223    0.6880   10.6101 N.2       2 ALA2        0.0000 
     58 CA         -1.9935   -2.0515   11.1888 C.3       5 GLY6        0.0000 
     59 N          -3.1324   -1.3146   10.5486 N.2       2 ALA2        0.0000 
     60 N          -4.2714   -0.5777    9.9084 N.2       2 ALA2        0.0000 
     61 CA         -6.4895    0.6638   18.7988 C.3       5 GLY6        0.0000 
     62 O          -4.9385   -0.6019   18.0971 O.2       2 ALA2        0.0000 
     63 CA         -6.0775    0.1350   17.4570 C.3       5 GLY6        0.0000 
     64 CA         -7.2164    0.8719   16.8168 C.3       5 GLY6        0.0000 
     65 O          -4.5265   -1.1307   16.7553 O.2       2 ALA2        0.0000 
     66 OD1        -5.6654   -0.3939   16.1151 O.3       3 ASP3        0.0000 
     67 OD1        -6.8044    0.3430   15.4750 O.3       3 ASP3        0.0000 
     68 OG         -4.1145   -1.6596   15.4134 O.2       1 SER1        0.0000 
     69 OD1        -5.2534   -0.9227   14.7733 O.3       3 ASP3        0.0000 
     70 CA         -3.7024   -2.1885   14.0716 C.3       5 GLY6        0.0000 
     71 N          -4.8414   -1.4516   13.4314 N.2       2 ALA2        0.0000 
     72 CA         -3.2904   -2.7173   12.7298 C.3       5 GLY6        0.0000 
     73 N          -4.4293   -1.9804   12.0896 N.2       2 ALA2        0.0000 
     74 CA         -5.5683   -1.2436   11.4494 C.3       5 GLY6        0.0000 
     75 CA         -2.8783   -3.2462   11.3879 C.3       5 GLY6        0.0000 
     76 CA         -4.0173   -2.5093   10.7478 C.3       5 GLY6        0.0000 
     77 O          -5.1562   -1.7724   10.1076 O.2       2 ALA2        0.0000 
     78 CA         -4.9022   -3.7040   10.9469 C.3       5 GLY6        0.0000 
@<TRIPOS>BOND
@<TRIPOS>SUBSTRUCTURE
     1 SER1       12 GROUP   
     2 ALA2        2 GROUP   
     3 ASP3       66 GROUP   
     4 PHE5       24 GROUP   
     5 GLY6        1 GROUP   
     6 CUB7        4 GROUP   
@<TRIPOS>SET

