#    Name: 1i9p_IOE_1_INTS_M
#    Modification time : Tue Mar 25 06:49:13 2014

@<TRIPOS>MOLECULE
1i9p_IOE_1_INTS_M
   50     0    12     0     0
SMALL
NO_CHARGES


@<TRIPOS>ATOM
      1 CA         -2.3510   -0.6535   15.2325 C.3       4 GLC5        0.0000 
      2 CA         -4.1800    0.4630   15.4890 C.3      12 GLL5        0.0000 
      3 CA         -0.5220   -1.7700   14.9760 C.3       8 GLP5        0.0000 
      4 CA         -8.2705    1.3250   15.2710 C.3       4 GLC5        0.0000 
      5 CA         -6.5050    1.2040   15.5580 C.3      12 GLL5        0.0000 
      6 CA        -10.0360    1.4460   14.9840 C.3       8 GLP5        0.0000 
      7 CA         -7.9030    3.0800   15.2515 C.3       4 GLC5        0.0000 
      8 CA         -6.1370    2.3520   14.8100 C.3      12 GLL5        0.0000 
      9 CA         -9.6690    3.8080   15.6930 C.3       8 GLP5        0.0000 
     10 CA         -2.2725    4.3955   15.9585 C.3       4 GLC5        0.0000 
     11 CA         -2.3080    4.9940   13.9390 C.3      12 GLL5        0.0000 
     12 CA         -2.2370    3.7970   17.9780 C.3       8 GLP5        0.0000 
     13 CA         -0.4925    4.5930   14.9190 C.3       4 GLC5        0.0000 
     14 CA          1.3230    4.1920   15.8990 C.3       8 GLP5        0.0000 
     15 O          -5.8475   -3.8940   15.5325 O.2       1 ALC1        0.0000 
     16 O          -5.3910   -2.7190   16.1190 O.2       9 ALL1        0.0000 
     17 O          -6.3040   -5.0690   14.9460 O.2       5 ALP1        0.0000 
     18 O          -6.7405   -3.3205   16.2885 O.2       1 ALC1        0.0000 
     19 O          -8.0900   -3.9220   16.4580 O.2       5 ALP1        0.0000 
     20 Zn         -6.1900   -2.6695   15.7530 Zn        3 ZIC7        0.0000 
     21 Zn         -5.3910   -2.7190   16.1190 Zn       11 ZIL7        0.0000 
     22 Zn         -6.9890   -2.6200   15.3870 Zn        7 ZIP7        0.0000 
     23 Zn         -7.1990   -1.8555   16.2070 Zn        3 ZIC7        0.0000 
     24 Zn         -7.4090   -1.0910   17.0270 Zn       11 ZIL7        0.0000 
     25 N          -4.0390   -1.3015   18.7395 N.am      2 SEC2        0.0000 
     26 N          -5.3240   -0.9270   18.1850 N.am     10 SEL2        0.0000 
     27 N          -2.7540   -1.6760   19.2940 N.am      6 SEP2        0.0000 
     28 CA         -3.6605   12.1685   15.2405 C.3       4 GLC5        0.0000 
     29 CA         -3.2140   10.5740   14.8050 C.3      12 GLL5        0.0000 
     30 CA         -4.1070   13.7630   15.6760 C.3       8 GLP5        0.0000 
     31 CA         -2.7180   10.7665   16.4845 C.3       4 GLC5        0.0000 
     32 CA         -2.2220   10.9590   18.1640 C.3       8 GLP5        0.0000 
     33 CA         -4.2688    1.9835   16.7525 C.3       4 GLC5        0.0000 
     34 CA         -3.8510    1.6170   14.7430 C.3      12 GLL5        0.0000 
     35 CA         -4.5220    2.9270   18.3890 C.3       8 GLP5        0.0000 
     36 CA         -5.2758    1.8248   17.0617 C.3       4 GLC5        0.0000 
     37 CA         -5.5540    0.2410   15.9110 C.3      12 GLL5        0.0000 
     38 CA         -5.0030    2.6955   16.4950 C.3       4 GLC5        0.0000 
     39 CA         -3.2127    8.9578   16.5885 C.3       4 GLC5        0.0000 
     40 CA         -3.0030    9.2390   14.5910 C.3      12 GLL5        0.0000 
     41 CA         -3.8820    9.0500   18.1560 C.3       8 GLP5        0.0000 
     42 CA         -2.6525    7.8925   16.8995 C.3       4 GLC5        0.0000 
     43 CA         -1.8530    7.0760   15.2350 C.3      12 GLL5        0.0000 
     44 CA         -1.8300    5.2660   16.8105 C.3       4 GLC5        0.0000 
     45 CA         -0.0500    5.4635   15.7710 C.3       4 GLC5        0.0000 
     46 CA         -0.9930    6.3940   16.0510 C.3      12 GLL5        0.0000 
     47 CA         -0.5970    7.1060   17.4210 C.3       4 GLC5        0.0000 
     48 CA          0.2290    7.4770   19.1990 C.3       8 GLP5        0.0000 
     49 CA         -5.3099    9.7888   14.8556 C.3       4 GLC5        0.0000 
     50 CA         -7.3380    9.8440   15.2880 C.3       8 GLP5        0.0000 
@<TRIPOS>BOND
@<TRIPOS>SUBSTRUCTURE
     1 ALC1       15 GROUP        1 X    ALC  0     ROOT ALC X 1
     2 SEC2       25 GROUP        1 X    SEC  0     **** SEC X 2
     3 ZIC7       20 GROUP        1 X    ZIC  0     **** ZIC X 5
     4 GLC5        1 GROUP        1 X    GLC  0     **** GLC X 6
     5 ALP1       17 GROUP        1 Y    ALP  0     ROOT ALP Y 8
     6 SEP2       27 GROUP        1 Y    SEP  0     **** SEP Y 9
     7 ZIP7       22 GROUP        1 Y    ZIP  0     **** ZIP Y 12
     8 GLP5        3 GROUP        1 Y    GLP  0     **** GLP Y 13
     9 ALL1       16 GROUP        1 Z    ALL  0     ROOT ALL Z 15
    10 SEL2       26 GROUP        1 Z    SEL  0     **** SEL Z 16
    11 ZIL7       21 GROUP        1 Z    ZIL  0     **** ZIL Z 19
    12 GLL5        2 GROUP        1 Z    GLL  0     **** GLL Z 20
@<TRIPOS>SET

