#    Name: 1i9p_IOE_1_ligand
#    Modification time : Tue Mar 25 06:49:13 2014

@<TRIPOS>MOLECULE
1i9p_IOE_1_ligand
   34    35     1     0     0
SMALL
NO_CHARGES


@<TRIPOS>ATOM
      1 C01        -3.8510    1.6170   14.7430 C.ar      1 IOE555      0.0000 
      2 C02        -4.1800    0.4630   15.4890 C.ar      1 IOE555      0.0000 
      3 C03        -5.5540    0.2410   15.9110 C.ar      1 IOE555      0.0000 
      4 C04        -6.5050    1.2040   15.5580 C.ar      1 IOE555      0.0000 
      5 C05        -6.1370    2.3520   14.8100 C.ar      1 IOE555      0.0000 
      6 C06        -4.8310    2.5760   14.3920 C.ar      1 IOE555      0.0000 
      7 C07        -4.4640    3.8270   13.5640 C.2       1 IOE555      0.0000 
      8 O08        -5.4180    4.6030   13.2970 O.2       1 IOE555      0.0000 
      9 N09        -3.1290    4.1660   13.0660 N.am      1 IOE555      0.0000 
     10 C10        -2.3080    4.9940   13.9390 C.3       1 IOE555      0.0000 
     11 S11        -5.9440   -1.2630   16.8650 S.o2      1 IOE555      0.0000 
     12 NP2        -5.3910   -2.7190   16.1190 N.pl3     1 IOE555      0.0000 
     13 O13        -7.4090   -1.0910   17.0270 O.2       1 IOE555      0.0000 
     14 O14        -5.3240   -0.9270   18.1850 O.2       1 IOE555      0.0000 
     15 C15        -2.5470    6.3760   14.1340 C.ar      1 IOE555      0.0000 
     16 C16        -3.4810    7.1050   13.2430 C.ar      1 IOE555      0.0000 
     17 C17        -3.6960    8.5470   13.4920 C.ar      1 IOE555      0.0000 
     18 C18        -3.0030    9.2390   14.5910 C.ar      1 IOE555      0.0000 
     19 C19        -2.0840    8.4920   15.4510 C.ar      1 IOE555      0.0000 
     20 C20        -1.8530    7.0760   15.2350 C.ar      1 IOE555      0.0000 
     21 F21        -0.9930    6.3940   16.0510 F         1 IOE555      0.0000 
     22 F22        -3.2140   10.5740   14.8050 F         1 IOE555      0.0000 
     23 F23        -4.1280    6.4780   12.2160 F         1 IOE555      0.0000 
     24 H          -2.8742    1.7649   14.4468 H         1 IOE555      0.0000 
     25 H          -3.4738   -0.2191   15.7385 H         1 IOE555      0.0000 
     26 H          -7.4872    1.0862   15.8405 H         1 IOE555      0.0000 
     27 H          -6.8782    3.0412   14.5730 H         1 IOE555      0.0000 
     28 H          -2.8107    3.8526   12.1968 H         1 IOE555      0.0000 
     29 H          -1.2013    4.8471   13.6139 H         1 IOE555      0.0000 
     30 H          -2.2698    4.4701   14.9763 H         1 IOE555      0.0000 
     31 H          -4.4110   -2.7702   15.9268 H         1 IOE555      0.0000 
     32 H          -6.0892   -3.4098   15.9310 H         1 IOE555      0.0000 
     33 H          -4.3274    9.0612   12.8984 H         1 IOE555      0.0000 
     34 H          -1.6076    8.9729   16.2023 H         1 IOE555      0.0000 
@<TRIPOS>BOND
     1    2    1 ar   
     2    6    1 ar   
     3   24    1 1    
     4    3    2 ar   
     5   25    2 1    
     6    4    3 ar   
     7   11    3 1    
     8    5    4 ar   
     9   26    4 1    
    10    6    5 ar   
    11   27    5 1    
    12    7    6 1    
    13    8    7 2    
    14    9    7 am   
    15   10    9 1    
    16   28    9 1    
    17   15   10 1    
    18   29   10 1    
    19   30   10 1    
    20   12   11 1    
    21   13   11 2    
    22   14   11 2    
    23   31   12 1    
    24   32   12 1    
    25   16   15 ar   
    26   20   15 ar   
    27   17   16 ar   
    28   23   16 1    
    29   18   17 ar   
    30   33   17 1    
    31   19   18 ar   
    32   22   18 1    
    33   20   19 ar   
    34   34   19 1    
    35   21   20 1    
@<TRIPOS>SUBSTRUCTURE
     1 IOE555      1 GROUP   
@<TRIPOS>SET

