#    Name: 4dbs_0HV_1_INTS_M
#    Modification time : Tue Mar 25 09:33:20 2014

@<TRIPOS>MOLECULE
4dbs_0HV_1_INTS_M
   22     0     6     0     0
SMALL
NO_CHARGES


@<TRIPOS>ATOM
      1 N          16.9975   17.5720   21.1650 N.am      1 SEC2        0.0000 
      2 N          17.9860   18.0100   21.8570 N.am      5 SEL2        0.0000 
      3 N          16.0090   17.1340   20.4730 N.am      3 SEP2        0.0000 
      4 N          17.6915   19.3510   21.4690 N.am      1 SEC2        0.0000 
      5 N          17.3970   20.6920   21.0810 N.am      3 SEP2        0.0000 
      6 CA         20.7315   18.3000   20.6908 C.3       2 GLC5        0.0000 
      7 CA         20.1550   17.1780   22.4490 C.3       6 GLL5        0.0000 
      8 CA         20.8250   19.8340   19.1620 C.3       4 GLP5        0.0000 
      9 CA         22.5012   19.0977   27.8223 C.3       2 GLC5        0.0000 
     10 CA         21.8180   19.9120   25.6780 C.3       6 GLL5        0.0000 
     11 CA         22.7500   18.0490   29.4910 C.3       4 GLP5        0.0000 
     12 CA         22.1885   19.7368   28.5898 C.3       2 GLC5        0.0000 
     13 CA         22.2750   21.2200   27.6380 C.3       6 GLL5        0.0000 
     14 CA         25.6998   20.2050   29.7392 C.3       2 GLC5        0.0000 
     15 CA         24.4880   21.2680   28.5050 C.3       6 GLL5        0.0000 
     16 CA         26.7090   19.5500   31.4640 C.3       4 GLP5        0.0000 
     17 CA         26.3438   21.7880   28.2467 C.3       2 GLC5        0.0000 
     18 CA         27.9970   22.7160   28.4790 C.3       4 GLP5        0.0000 
     19 CA         25.5503   18.5023   27.1803 C.3       2 GLC5        0.0000 
     20 CA         24.8930   20.4520   27.5240 C.3       6 GLL5        0.0000 
     21 CA         26.6550   16.7640   27.2900 C.3       4 GLP5        0.0000 
     22 CA         23.4473   19.4473   28.6440 C.3       2 GLC5        0.0000 
@<TRIPOS>BOND
@<TRIPOS>SUBSTRUCTURE
     1 SEC2        1 GROUP        1 X    SEC  0     ROOT SEC X 2
     2 GLC5        6 GROUP        1 X    GLC  0     **** GLC X 6
     3 SEP2        3 GROUP        1 Y    SEP  0     ROOT SEP Y 9
     4 GLP5        8 GROUP        1 Y    GLP  0     **** GLP Y 13
     5 SEL2        2 GROUP        1 Z    SEL  0     ROOT SEL Z 16
     6 GLL5        7 GROUP        1 Z    GLL  0     **** GLL Z 20
@<TRIPOS>SET

