#    Name: 4dbs_0HV_1_ligand
#    Modification time : Tue Mar 25 09:33:20 2014

@<TRIPOS>MOLECULE
4dbs_0HV_1_ligand
   34    36     1     0     0
SMALL
NO_CHARGES


@<TRIPOS>ATOM
      1 C01        21.1210   16.3540   21.9900 C.ar      1 0HV402      0.0000 
      2 C02        22.3780   16.5070   22.4330 C.ar      1 0HV402      0.0000 
      3 C03        22.6780   17.4730   23.3280 C.ar      1 0HV402      0.0000 
      4 C04        21.7480   18.3260   23.8220 C.ar      1 0HV402      0.0000 
      5 C05        20.4900   18.1450   23.3480 C.ar      1 0HV402      0.0000 
      6 C06        20.1550   17.1780   22.4490 C.ar      1 0HV402      0.0000 
      7 N07        22.2050   19.1500   24.7130 N.pl3     1 0HV402      0.0000 
      8 C08        21.8180   19.9120   25.6780 C.ar      1 0HV402      0.0000 
      9 C09        20.5460   20.3340   25.8090 C.ar      1 0HV402      0.0000 
     10 C10        20.1430   21.1590   26.7930 C.ar      1 0HV402      0.0000 
     11 C11        20.9790   21.6290   27.7390 C.ar      1 0HV402      0.0000 
     12 C12        22.2750   21.2200   27.6380 C.ar      1 0HV402      0.0000 
     13 C13        22.6870   20.3810   26.6290 C.ar      1 0HV402      0.0000 
     14 C14        23.1990   21.6330   28.5420 C.ar      1 0HV402      0.0000 
     15 C15        24.4880   21.2680   28.5050 C.ar      1 0HV402      0.0000 
     16 C16        24.8930   20.4520   27.5240 C.ar      1 0HV402      0.0000 
     17 C17        23.9980   20.0290   26.6170 C.ar      1 0HV402      0.0000 
     18 C18        18.8560   16.9900   22.0490 C.2       1 0HV402      0.0000 
     19 O19        18.4310   15.8570   21.8950 O.co2     1 0HV402      0.0000 
     20 O20        17.9860   18.0100   21.8570 O.co2     1 0HV402      0.0000 
     21 N21        20.4820   22.4440   28.5760 N.pl3     1 0HV402      0.0000 
     22 O22        21.0550   23.4770   29.1330 O.2       1 0HV402      0.0000 
     23 O23        19.2480   22.4030   29.0350 O.2       1 0HV402      0.0000 
     24 H          20.8897   15.6117   21.3022 H         1 0HV402      0.0000 
     25 H          23.1358   15.8743   22.0845 H         1 0HV402      0.0000 
     26 H          23.6795   17.5693   23.6582 H         1 0HV402      0.0000 
     27 H          19.7213   18.7925   23.6959 H         1 0HV402      0.0000 
     28 H          23.4055   19.2295   24.5975 H         1 0HV402      0.0000 
     29 H          19.8256   19.9992   25.1008 H         1 0HV402      0.0000 
     30 H          19.1228   21.4522   26.8256 H         1 0HV402      0.0000 
     31 H          22.8745   22.2841   29.3226 H         1 0HV402      0.0000 
     32 H          25.1550   21.6097   29.2192 H         1 0HV402      0.0000 
     33 H          25.8846   20.1496   27.4639 H         1 0HV402      0.0000 
     34 H          24.3306   19.3779   25.8388 H         1 0HV402      0.0000 
@<TRIPOS>BOND
     1    2    1 ar   
     2    6    1 ar   
     3   24    1 1    
     4    3    2 ar   
     5   25    2 1    
     6    4    3 ar   
     7   26    3 1    
     8    5    4 ar   
     9    7    4 1    
    10    6    5 ar   
    11   27    5 1    
    12   18    6 1    
    13    8    7 1    
    14   28    7 1    
    15    9    8 ar   
    16   13    8 ar   
    17   10    9 ar   
    18   29    9 1    
    19   11   10 ar   
    20   30   10 1    
    21   12   11 ar   
    22   21   11 1    
    23   13   12 ar   
    24   14   12 ar   
    25   17   13 ar   
    26   15   14 ar   
    27   31   14 1    
    28   16   15 ar   
    29   32   15 1    
    30   17   16 ar   
    31   33   16 1    
    32   34   17 1    
    33   19   18 ar   
    34   20   18 ar   
    35   22   21 2    
    36   23   21 2    
@<TRIPOS>SUBSTRUCTURE
     1 0HV402      1 GROUP   
@<TRIPOS>SET

