#    Name: 3bwm_SAM_1_INTS_M
#    Modification time : Mon Mar 24 20:10:14 2014

@<TRIPOS>MOLECULE
3bwm_SAM_1_INTS_M
   91     0    12     0     0
SMALL
NO_CHARGES


@<TRIPOS>ATOM
      1 OD1        -8.2775   -7.9035  -12.6830 O.co2     3 ASC3        0.0000 
      2 OD1        -9.4360   -7.0620  -12.6230 O.co2    11 ASL3        0.0000 
      3 OD1        -7.1190   -8.7450  -12.7430 O.co2     7 ASP3        0.0000 
      4 O          -9.4355   -5.7495  -13.1755 O.2       1 ALC1        0.0000 
      5 O          -9.4360   -7.0620  -12.6230 O.2       9 ALL1        0.0000 
      6 O          -9.4350   -4.4370  -13.7280 O.2       5 ALP1        0.0000 
      7 O         -10.3780   -7.0025  -11.5190 O.2       1 ALC1        0.0000 
      8 O         -11.3200   -6.9430  -10.4150 O.2       5 ALP1        0.0000 
      9 O          -8.2775   -7.9035  -12.6830 O.2       1 ALC1        0.0000 
     10 O          -7.1190   -8.7450  -12.7430 O.2       5 ALP1        0.0000 
     11 CA        -11.1965   -5.7820  -14.1055 C.3       4 GLC5        0.0000 
     12 CA        -10.4130   -7.7640  -13.5030 C.3      12 GLL5        0.0000 
     13 CA        -11.9800   -3.8000  -14.7080 C.3       8 GLP5        0.0000 
     14 CA        -10.9425   -7.9255  -11.5475 C.3       4 GLC5        0.0000 
     15 CA        -11.4720   -8.0870   -9.5920 C.3       8 GLP5        0.0000 
     16 N         -10.0550  -11.1220  -12.1560 N.am      2 SEC2        0.0000 
     17 N         -10.3250   -9.7440  -12.1090 N.am     10 SEL2        0.0000 
     18 N          -9.7850  -12.5000  -12.2030 N.am      6 SEP2        0.0000 
     19 N         -12.9495   -9.0265  -11.6855 N.am      2 SEC2        0.0000 
     20 N         -12.1760   -9.3000  -13.0060 N.am     10 SEL2        0.0000 
     21 N         -13.7230   -8.7530  -10.3650 N.am      6 SEP2        0.0000 
     22 CA         -8.6385   -5.0435  -15.3720 C.3       4 GLC5        0.0000 
     23 CA         -8.9970   -7.1410  -15.5640 C.3      12 GLL5        0.0000 
     24 CA         -8.2800   -2.9460  -15.1800 C.3       8 GLP5        0.0000 
     25 CA         -7.8495   -9.9670  -17.7635 C.3       4 GLC5        0.0000 
     26 CA         -7.0440   -8.8400  -16.5830 C.3      12 GLL5        0.0000 
     27 CA         -8.6550  -11.0940  -18.9440 C.3       8 GLP5        0.0000 
     28 CA         -6.2535   -6.8220  -19.4330 C.3       4 GLC5        0.0000 
     29 CA         -7.3440   -6.4940  -17.8540 C.3      12 GLL5        0.0000 
     30 CA         -5.1630   -7.1500  -21.0120 C.3       8 GLP5        0.0000 
     31 CA         -8.1965   -4.0830  -16.6740 C.3       4 GLC5        0.0000 
     32 CA         -8.1130   -5.2200  -18.1680 C.3      12 GLL5        0.0000 
     33 O         -10.5570   -3.9190  -18.7680 O.2       1 ALC1        0.0000 
     34 O         -10.1140   -5.0880  -19.4150 O.2       9 ALL1        0.0000 
     35 O         -11.0000   -2.7500  -18.1210 O.2       5 ALP1        0.0000 
     36 O         -10.4545   -3.5260  -19.7990 O.2       1 ALC1        0.0000 
     37 O         -10.7950   -1.9640  -20.1830 O.2       5 ALP1        0.0000 
     38 O          -9.8085   -2.7310  -20.7175 O.2       1 ALC1        0.0000 
     39 O          -8.8220   -3.4980  -21.2520 O.2       9 ALL1        0.0000 
     40 CA         -7.9495   -3.0710  -17.1710 C.3       4 GLC5        0.0000 
     41 CA         -7.6190   -3.1960  -19.1620 C.3      12 GLL5        0.0000 
     42 CA         -6.0705   -3.0265  -17.7545 C.3       4 GLC5        0.0000 
     43 CA         -4.5220   -2.8570  -16.3470 C.3       8 GLP5        0.0000 
     44 CA         -6.4805    1.1420  -20.1415 C.3       4 GLC5        0.0000 
     45 CA         -4.8980    0.8150  -18.9200 C.3      12 GLL5        0.0000 
     46 CA         -8.0630    1.4690  -21.3630 C.3       8 GLP5        0.0000 
     47 CA         -5.5870    2.8120  -19.1615 C.3       4 GLC5        0.0000 
     48 CA         -6.2760    4.8090  -19.4030 C.3       8 GLP5        0.0000 
     49 CA         -4.5095    1.9660  -17.1760 C.3       4 GLC5        0.0000 
     50 CA         -4.1210    3.1170  -15.4320 C.3       8 GLP5        0.0000 
     51 CA         -3.9750    0.0210  -17.3945 C.3       4 GLC5        0.0000 
     52 CA         -3.0520   -0.7730  -15.8690 C.3       8 GLP5        0.0000 
     53 O          -3.4920    1.9625  -17.8275 O.2       1 ALC1        0.0000 
     54 O          -3.7380    1.3650  -19.2590 O.2       9 ALL1        0.0000 
     55 O          -3.2460    2.5600  -16.3960 O.2       5 ALP1        0.0000 
     56 O          -2.9530    2.7285  -19.1455 O.2       1 ALC1        0.0000 
     57 O          -2.1680    4.0920  -19.0320 O.2       5 ALP1        0.0000 
     58 N          -5.5495    2.8715  -17.7265 N.am      2 SEC2        0.0000 
     59 N          -5.8080    1.5340  -18.1820 N.am     10 SEL2        0.0000 
     60 N          -5.2910    4.2090  -17.2710 N.am      6 SEP2        0.0000 
     61 CA         -7.9060    2.4565  -16.6515 C.3       4 GLC5        0.0000 
     62 CA         -7.0310    0.9870  -17.8250 C.3      12 GLL5        0.0000 
     63 CA         -8.7810    3.9260  -15.4780 C.3       8 GLP5        0.0000 
     64 CA         -8.9660    0.8370  -17.6960 C.3       4 GLC5        0.0000 
     65 CA        -10.9010    0.6870  -17.5670 C.3       8 GLP5        0.0000 
     66 CA         -7.5470    1.2280  -19.5940 C.3       4 GLC5        0.0000 
     67 CA         -6.6535    2.8980  -18.6140 C.3       4 GLC5        0.0000 
     68 CA         -5.5760    2.0520  -16.6285 C.3       4 GLC5        0.0000 
     69 N          -8.5885    0.3675  -18.9580 N.am      2 SEC2        0.0000 
     70 N          -7.3170   -0.3020  -18.1970 N.am     10 SEL2        0.0000 
     71 N          -9.8600    1.0370  -19.7190 N.am      6 SEP2        0.0000 
     72 CA        -10.9990   -7.6835  -15.7908 C.3       4 GLC5        0.0000 
     73 CA         -9.7470   -8.2220  -14.8000 C.3      12 GLL5        0.0000 
     74 CA        -11.9180   -7.3740  -17.4300 C.3       8 GLP5        0.0000 
     75 CA        -10.3122   -7.4205  -16.8927 C.3       4 GLC5        0.0000 
     76 CA         -8.2770   -8.0328  -19.0412 C.3       4 GLC5        0.0000 
     77 CA         -8.4160   -7.7930  -17.1470 C.3      12 GLL5        0.0000 
     78 CA         -8.6740   -8.9220  -20.5820 C.3       8 GLP5        0.0000 
     79 CA         -6.0243   -5.1245  -17.1475 C.3       4 GLC5        0.0000 
     80 CA         -4.3200   -4.3920  -16.2840 C.3       8 GLP5        0.0000 
     81 CA         -8.5440   -7.0805  -19.7258 C.3       4 GLC5        0.0000 
     82 CA        -10.1660   -6.3065  -18.1498 C.3       4 GLC5        0.0000 
     83 CA         -8.7150   -5.2580  -19.5710 C.3      12 GLL5        0.0000 
     84 CA         -7.1493   -5.7445  -21.0392 C.3       4 GLC5        0.0000 
     85 CA         -5.9400   -6.7960  -22.1370 C.3       8 GLP5        0.0000 
     86 CA         -7.8528   -1.8205  -20.8040 C.3       4 GLC5        0.0000 
     87 CA         -8.0020   -4.1280  -20.3120 C.3      12 GLL5        0.0000 
     88 CA         -7.8950    0.0210  -21.8710 C.3       8 GLP5        0.0000 
     89 CA         -6.8537   -0.3658  -20.4842 C.3       4 GLC5        0.0000 
     90 CA         -6.4230   -1.0180  -18.9060 C.3      12 GLL5        0.0000 
     91 CA         -5.1673   -1.8048  -17.7223 C.3       4 GLC5        0.0000 
@<TRIPOS>BOND
@<TRIPOS>SUBSTRUCTURE
     1 ALC1        4 GROUP        1 X    ALC  0     ROOT ALC X 1
     2 SEC2       16 GROUP        1 X    SEC  0     **** SEC X 2
     3 ASC3        1 GROUP        1 X    ASC  0     **** ASC X 3
     4 GLC5       11 GROUP        1 X    GLC  0     **** GLC X 6
     5 ALP1        6 GROUP        1 Y    ALP  0     ROOT ALP Y 8
     6 SEP2       18 GROUP        1 Y    SEP  0     **** SEP Y 9
     7 ASP3        3 GROUP        1 Y    ASP  0     **** ASP Y 10
     8 GLP5       13 GROUP        1 Y    GLP  0     **** GLP Y 13
     9 ALL1        5 GROUP        1 Z    ALL  0     ROOT ALL Z 15
    10 SEL2       17 GROUP        1 Z    SEL  0     **** SEL Z 16
    11 ASL3        2 GROUP        1 Z    ASL  0     **** ASL Z 17
    12 GLL5       12 GROUP        1 Z    GLL  0     **** GLL Z 20
@<TRIPOS>SET

