#    Name: 3bwm_SAM_1_ligand
#    Modification time : Mon Mar 24 20:10:14 2014

@<TRIPOS>MOLECULE
3bwm_SAM_1_ligand
   50    52     1     0     0
SMALL
NO_CHARGES


@<TRIPOS>ATOM
      1 N          -9.4360   -7.0620  -12.6230 N.4       1 SAM301      0.0000 
      2 CA        -10.4130   -7.7640  -13.5030 C.3       1 SAM301      0.0000 
      3 C         -10.9990   -9.0000  -12.8290 C.2       1 SAM301      0.0000 
      4 O         -10.3250   -9.7440  -12.1090 O.co2     1 SAM301      0.0000 
      5 OXT       -12.1760   -9.3000  -13.0060 O.co2     1 SAM301      0.0000 
      6 CB         -9.7470   -8.2220  -14.8000 C.3       1 SAM301      0.0000 
      7 CG         -8.9970   -7.1410  -15.5640 C.3       1 SAM301      0.0000 
      8 SD         -8.4160   -7.7930  -17.1470 S.3       1 SAM301      0.0000 
      9 CE         -7.0440   -8.8400  -16.5830 C.3       1 SAM301      0.0000 
     10 C5'        -7.3440   -6.4940  -17.8540 C.3       1 SAM301      0.0000 
     11 C4'        -8.1130   -5.2200  -18.1680 C.3       1 SAM301      0.0000 
     12 O4'        -7.3080   -4.0610  -18.0740 O.3       1 SAM301      0.0000 
     13 C3'        -8.7150   -5.2580  -19.5710 C.3       1 SAM301      0.0000 
     14 O3'       -10.1140   -5.0880  -19.4150 O.3       1 SAM301      0.0000 
     15 C2'        -8.0020   -4.1280  -20.3120 C.3       1 SAM301      0.0000 
     16 O2'        -8.8220   -3.4980  -21.2520 O.3       1 SAM301      0.0000 
     17 C1'        -7.6190   -3.1960  -19.1620 C.3       1 SAM301      0.0000 
     18 N9         -6.4770   -2.2900  -19.3950 N.pl3     1 SAM301      0.0000 
     19 C8         -5.3020   -2.5430  -20.0470 C.2       1 SAM301      0.0000 
     20 N7         -4.5310   -1.4370  -19.9740 N.2       1 SAM301      0.0000 
     21 C5         -5.2020   -0.4870  -19.2890 C.ar      1 SAM301      0.0000 
     22 C6         -4.8980    0.8150  -18.9200 C.ar      1 SAM301      0.0000 
     23 N6         -3.7380    1.3650  -19.2590 N.pl3     1 SAM301      0.0000 
     24 N1         -5.8080    1.5340  -18.1820 N.ar      1 SAM301      0.0000 
     25 C2         -7.0310    0.9870  -17.8250 C.ar      1 SAM301      0.0000 
     26 N3         -7.3170   -0.3020  -18.1970 N.ar      1 SAM301      0.0000 
     27 C4         -6.4230   -1.0180  -18.9060 C.ar      1 SAM301      0.0000 
     28 H         -11.2261   -7.1030  -13.7631 H         1 SAM301      0.0000 
     29 H         -10.5229   -8.6574  -15.4623 H         1 SAM301      0.0000 
     30 H          -9.0455   -9.0486  -14.5655 H         1 SAM301      0.0000 
     31 H          -8.0936   -6.8344  -15.0966 H         1 SAM301      0.0000 
     32 H          -9.6081   -6.3248  -15.8623 H         1 SAM301      0.0000 
     33 H          -6.9434   -6.9835  -18.7185 H         1 SAM301      0.0000 
     34 H          -6.6037   -6.3767  -17.0887 H         1 SAM301      0.0000 
     35 H          -8.9568   -5.1537  -17.4681 H         1 SAM301      0.0000 
     36 H          -8.4405   -6.1882  -20.0031 H         1 SAM301      0.0000 
     37 H          -7.0933   -4.5309  -20.7069 H         1 SAM301      0.0000 
     38 H          -8.5087   -2.6179  -18.9018 H         1 SAM301      0.0000 
     39 H          -5.0736   -3.3700  -20.4800 H         1 SAM301      0.0000 
     40 H          -3.3494    1.0697  -20.1318 H         1 SAM301      0.0000 
     41 H          -3.3578    2.0248  -18.6108 H         1 SAM301      0.0000 
     42 H          -7.7068    1.5430  -17.2910 H         1 SAM301      0.0000 
     43 H          -8.5050   -7.4014  -12.7568 H         1 SAM301      0.0000 
     44 H          -9.4174   -6.0779  -12.7996 H         1 SAM301      0.0000 
     45 H          -9.6554   -7.1819  -11.6548 H         1 SAM301      0.0000 
     46 H          -6.7026   -9.4306  -17.3142 H         1 SAM301      0.0000 
     47 H          -6.2697   -8.2956  -16.2604 H         1 SAM301      0.0000 
     48 H          -7.3178   -9.4362  -15.8283 H         1 SAM301      0.0000 
     49 H         -10.2162   -4.2247  -18.9207 H         1 SAM301      0.0000 
     50 H          -9.4676   -2.9583  -20.7117 H         1 SAM301      0.0000 
@<TRIPOS>BOND
     1    2    1 1    
     2   43    1 1    
     3   44    1 1    
     4   45    1 1    
     5    3    2 1    
     6    6    2 1    
     7   28    2 1    
     8    4    3 ar   
     9    5    3 ar   
    10    7    6 1    
    11   29    6 1    
    12   30    6 1    
    13    8    7 1    
    14   31    7 1    
    15   32    7 1    
    16    9    8 1    
    17   10    8 1    
    18   46    9 1    
    19   47    9 1    
    20   48    9 1    
    21   11   10 1    
    22   33   10 1    
    23   34   10 1    
    24   12   11 1    
    25   13   11 1    
    26   35   11 1    
    27   17   12 1    
    28   14   13 1    
    29   15   13 1    
    30   36   13 1    
    31   49   14 1    
    32   16   15 1    
    33   17   15 1    
    34   37   15 1    
    35   50   16 1    
    36   18   17 1    
    37   38   17 1    
    38   19   18 1    
    39   27   18 1    
    40   20   19 2    
    41   39   19 1    
    42   21   20 1    
    43   22   21 ar   
    44   27   21 ar   
    45   23   22 1    
    46   24   22 ar   
    47   40   23 1    
    48   41   23 1    
    49   25   24 ar   
    50   26   25 ar   
    51   42   25 1    
    52   27   26 ar   
@<TRIPOS>SUBSTRUCTURE
     1 SAM301      1 GROUP   
@<TRIPOS>SET

