#    Name: 3fi3_JK2_1_INTS_M
#    Modification time : Tue Mar 25 04:10:07 2014

@<TRIPOS>MOLECULE
3fi3_JK2_1_INTS_M
   89     0     9     0     0
SMALL
NO_CHARGES


@<TRIPOS>ATOM
      1 CA        -34.0250  -35.7870  -11.8800 C.3       3 GLC5        0.0000 
      2 CA        -33.3090  -34.0270  -12.5320 C.3       9 GLL5        0.0000 
      3 CA        -34.7410  -37.5470  -11.2280 C.3       6 GLP5        0.0000 
      4 CA        -24.6930  -34.4395   -7.0380 C.3       3 GLC5        0.0000 
      5 CA        -24.2980  -36.2220   -7.7080 C.3       9 GLL5        0.0000 
      6 CA        -25.0880  -32.6570   -6.3680 C.3       6 GLP5        0.0000 
      7 CA        -23.5310  -37.9340   -5.3155 C.3       3 GLC5        0.0000 
      8 CA        -24.9510  -38.2560   -6.7010 C.3       9 GLL5        0.0000 
      9 CA        -22.1110  -37.6120   -3.9300 C.3       6 GLP5        0.0000 
     10 CA        -23.5195  -39.8315   -6.5105 C.3       3 GLC5        0.0000 
     11 CA        -22.0880  -41.4070   -6.3200 C.3       6 GLP5        0.0000 
     12 CA        -26.0695  -39.9885   -4.7130 C.3       3 GLC5        0.0000 
     13 CA        -25.8270  -39.3590   -6.6540 C.3       9 GLL5        0.0000 
     14 CA        -26.3120  -40.6180   -2.7720 C.3       6 GLP5        0.0000 
     15 CA        -27.7250  -38.5470  -10.6060 C.3       3 GLC5        0.0000 
     16 CA        -27.1030  -38.5160   -8.5500 C.3       9 GLL5        0.0000 
     17 CA        -28.3470  -38.5780  -12.6620 C.3       6 GLP5        0.0000 
     18 CA        -29.2140  -38.7750   -9.1255 C.3       3 GLC5        0.0000 
     19 CA        -31.3250  -39.0340   -9.7010 C.3       6 GLP5        0.0000 
     20 CA        -28.4375  -38.9780   -6.6700 C.3       3 GLC5        0.0000 
     21 CA        -26.9140  -39.4950   -7.5680 C.3       9 GLL5        0.0000 
     22 CA        -29.9610  -38.4610   -5.7720 C.3       6 GLP5        0.0000 
     23 N         -33.5805  -35.0080   -9.0475 N.am      2 SEC2        0.0000 
     24 N         -32.1900  -34.8750   -9.6820 N.am      8 SEL2        0.0000 
     25 N         -34.9710  -35.1410   -8.4130 N.am      5 SEP2        0.0000 
     26 CA        -30.7270  -30.0215  -12.6875 C.3       3 GLC5        0.0000 
     27 CA        -31.9370  -31.7160  -13.3660 C.3       9 GLL5        0.0000 
     28 CA        -29.5170  -28.3270  -12.0090 C.3       6 GLP5        0.0000 
     29 O         -36.0775  -34.0450  -11.9240 O.2       1 ALC1        0.0000 
     30 O         -36.0530  -34.0000  -13.3410 O.2       7 ALL1        0.0000 
     31 O         -36.1020  -34.0900  -10.5070 O.2       4 ALP1        0.0000 
     32 CA        -38.6740  -37.3520  -11.3980 C.3       3 GLC5        0.0000 
     33 CA        -40.2900  -36.2520  -11.2990 C.3       9 GLL5        0.0000 
     34 CA        -37.0580  -38.4520  -11.4970 C.3       6 GLP5        0.0000 
     35 CA        -38.4015  -38.9655  -12.9265 C.3       3 GLC5        0.0000 
     36 CA        -39.7450  -39.4790  -14.3560 C.3       9 GLL5        0.0000 
     37 CA        -38.2010  -39.6365  -18.3935 C.3       3 GLC5        0.0000 
     38 CA        -38.4350  -37.7620  -17.5380 C.3       9 GLL5        0.0000 
     39 CA        -37.9670  -41.5110  -19.2490 C.3       6 GLP5        0.0000 
     40 CA        -30.5190  -35.9115  -12.3458 C.3       3 GLC5        0.0000 
     41 CA        -30.2270  -34.7160  -10.6870 C.3       9 GLL5        0.0000 
     42 CA        -31.3700  -37.2400  -13.5810 C.3       6 GLP5        0.0000 
     43 CA        -28.4230  -36.6407  -12.0233 C.3       3 GLC5        0.0000 
     44 CA        -29.1090  -34.4500  -11.5340 C.3       9 GLL5        0.0000 
     45 CA        -27.5445  -33.9117   -9.8592 C.3       3 GLC5        0.0000 
     46 CA        -26.5900  -33.1200   -8.3340 C.3       6 GLP5        0.0000 
     47 CA        -36.2035  -38.2947  -14.7720 C.3       3 GLC5        0.0000 
     48 CA        -36.8610  -36.1110  -14.9630 C.3       9 GLL5        0.0000 
     49 CA        -35.0880  -40.0040  -14.3960 C.3       6 GLP5        0.0000 
     50 CA        -37.0233  -37.0672  -12.9330 C.3       3 GLC5        0.0000 
     51 CA        -31.9202  -34.2703  -13.8475 C.3       3 GLC5        0.0000 
     52 CA        -31.1520  -34.7410  -15.5080 C.3       6 GLP5        0.0000 
     53 CA        -28.3210  -37.2295  -11.1390 C.3       3 GLC5        0.0000 
     54 CA        -28.8270  -36.0060   -9.2150 C.3       9 GLL5        0.0000 
     55 CA        -26.1358  -35.2480   -8.2300 C.3       3 GLC5        0.0000 
     56 CA        -26.2300  -37.4530   -8.6090 C.3       9 GLL5        0.0000 
     57 CA        -30.3923  -37.3902   -9.5398 C.3       3 GLC5        0.0000 
     58 CA        -29.2718  -36.3183   -7.4878 C.3       3 GLC5        0.0000 
     59 CA        -30.0920  -35.4870   -9.5420 C.3       9 GLL5        0.0000 
     60 CA        -29.0840  -36.8900   -5.5970 C.3       6 GLP5        0.0000 
     61 CA        -29.8090  -33.0735   -9.7311 C.3       3 GLC5        0.0000 
     62 CA        -29.7380  -31.1120   -9.1360 C.3       6 GLP5        0.0000 
     63 CA        -27.8918  -34.4020   -8.9565 C.3       3 GLC5        0.0000 
     64 CA        -25.3552  -36.8517   -5.7438 C.3       3 GLC5        0.0000 
     65 CA        -25.1330  -37.2990   -7.6430 C.3       9 GLL5        0.0000 
     66 CA        -25.9950  -36.9430   -3.8120 C.3       6 GLP5        0.0000 
     67 CA        -24.0337  -38.1527   -8.7260 C.3       3 GLC5        0.0000 
     68 CA        -23.0970  -38.7780  -10.1430 C.3       6 GLP5        0.0000 
     69 CA        -25.6920  -37.8752   -5.2447 C.3       3 GLC5        0.0000 
     70 CA        -27.2365  -37.8487   -6.1372 C.3       3 GLC5        0.0000 
     71 CA        -25.3577  -41.0255   -6.7770 C.3       3 GLC5        0.0000 
     72 CA        -24.3450  -42.6240   -6.4430 C.3       6 GLP5        0.0000 
     73 CA        -25.7749  -39.7918   -9.0617 C.3       3 GLC5        0.0000 
     74 CA        -24.8130  -40.6120  -10.2930 C.3       6 GLP5        0.0000 
     75 CA        -27.7381  -37.4180   -6.9675 C.3       3 GLC5        0.0000 
     76 CA        -30.7398  -32.0650  -10.5983 C.3       3 GLC5        0.0000 
     77 CA        -32.0680  -33.5720  -11.8420 C.3       9 GLL5        0.0000 
     78 CA        -31.4140  -33.4155  -14.1653 C.3       3 GLC5        0.0000 
     79 CA        -31.4150  -32.4640  -12.2790 C.3       9 GLL5        0.0000 
     80 CA        -32.9695  -30.7045  -12.5437 C.3       3 GLC5        0.0000 
     81 CA        -34.2630  -29.3190  -12.2650 C.3       6 GLP5        0.0000 
     82 CA        -32.3155  -33.7260  -14.6520 C.3       3 GLC5        0.0000 
     83 CA        -33.1510  -32.1330  -14.0230 C.3       9 GLL5        0.0000 
     84 CA        -33.8710  -31.0150  -13.0305 C.3       3 GLC5        0.0000 
     85 CA        -33.8070  -33.2890  -13.5690 C.3       9 GLL5        0.0000 
     86 CA        -37.8870  -37.1893  -12.3577 C.3       3 GLC5        0.0000 
     87 CA        -38.2400  -35.4400  -13.0210 C.3       9 GLL5        0.0000 
     88 CA        -37.7118  -37.7990  -13.2267 C.3       3 GLC5        0.0000 
     89 CA        -38.9540  -37.2320  -14.5800 C.3       9 GLL5        0.0000 
@<TRIPOS>BOND
@<TRIPOS>SUBSTRUCTURE
     1 ALC1       29 GROUP        1 X    ALC  0     ROOT ALC X 1
     2 SEC2       23 GROUP        1 X    SEC  0     **** SEC X 2
     3 GLC5        1 GROUP        1 X    GLC  0     **** GLC X 6
     4 ALP1       31 GROUP        1 Y    ALP  0     ROOT ALP Y 8
     5 SEP2       25 GROUP        1 Y    SEP  0     **** SEP Y 9
     6 GLP5        3 GROUP        1 Y    GLP  0     **** GLP Y 13
     7 ALL1       30 GROUP        1 Z    ALL  0     ROOT ALL Z 15
     8 SEL2       24 GROUP        1 Z    SEL  0     **** SEL Z 16
     9 GLL5        2 GROUP        1 Z    GLL  0     **** GLL Z 20
@<TRIPOS>SET

