#    Name: 3fi3_JK2_1_ligand
#    Modification time : Tue Mar 25 04:10:07 2014

@<TRIPOS>MOLECULE
3fi3_JK2_1_ligand
   63    67     1     0     0
SMALL
NO_CHARGES


@<TRIPOS>ATOM
      1 C12       -29.1090  -34.4500  -11.5340 C.ar      1 JK2600      0.0000 
      2 C13       -31.2930  -35.5830   -8.9320 C.2       1 JK2600      0.0000 
      3 C14       -36.8610  -36.1110  -14.9630 C.ar      1 JK2600      0.0000 
      4 C16       -33.3090  -34.0270  -12.5320 C.ar      1 JK2600      0.0000 
      5 C18       -35.0510  -33.8380  -14.2330 C.2       1 JK2600      0.0000 
      6 C26       -27.7630  -35.7560  -10.0170 C.ar      1 JK2600      0.0000 
      7 C27       -37.1160  -35.2540  -13.7750 C.ar      1 JK2600      0.0000 
      8 C31       -26.2300  -37.4530   -8.6090 C.ar      1 JK2600      0.0000 
      9 C35       -30.0920  -35.4870   -9.5420 C.ar      1 JK2600      0.0000 
     10 C36       -30.2270  -34.7160  -10.6870 C.ar      1 JK2600      0.0000 
     11 F38       -24.2980  -36.2220   -7.7080 F         1 JK2600      0.0000 
     12 C28       -25.1330  -37.2990   -7.6430 C.ar      1 JK2600      0.0000 
     13 C07       -24.9510  -38.2560   -6.7010 C.ar      1 JK2600      0.0000 
     14 C04       -25.8270  -39.3590   -6.6540 C.ar      1 JK2600      0.0000 
     15 C10       -27.1030  -38.5160   -8.5500 C.ar      1 JK2600      0.0000 
     16 C05       -26.9140  -39.4950   -7.5680 C.ar      1 JK2600      0.0000 
     17 N21       -26.5760  -36.4090   -9.5350 N.pl3     1 JK2600      0.0000 
     18 C11       -27.8890  -34.9570  -11.2350 C.ar      1 JK2600      0.0000 
     19 C17       -28.8270  -36.0060   -9.2150 C.ar      1 JK2600      0.0000 
     20 N37       -31.5100  -34.3530  -10.7610 N.pl3     1 JK2600      0.0000 
     21 N19       -32.1900  -34.8750   -9.6820 N.2       1 JK2600      0.0000 
     22 C30       -32.0680  -33.5720  -11.8420 C.ar      1 JK2600      0.0000 
     23 C09       -31.4150  -32.4640  -12.2790 C.ar      1 JK2600      0.0000 
     24 C06       -31.9370  -31.7160  -13.3660 C.ar      1 JK2600      0.0000 
     25 C29       -33.8070  -33.2890  -13.5690 C.ar      1 JK2600      0.0000 
     26 C08       -33.1510  -32.1330  -14.0230 C.ar      1 JK2600      0.0000 
     27 O22       -35.1270  -33.9320  -15.4050 O.2       1 JK2600      0.0000 
     28 N20       -36.0530  -34.0000  -13.3410 N.am      1 JK2600      0.0000 
     29 C15       -38.2400  -35.4400  -13.0210 C.ar      1 JK2600      0.0000 
     30 C33       -39.1920  -36.4130  -13.4160 C.ar      1 JK2600      0.0000 
     31 O24       -40.3470  -36.5940  -12.6540 O.3       1 JK2600      0.0000 
     32 C02       -40.2900  -36.2520  -11.2990 C.3       1 JK2600      0.0000 
     33 C34       -38.9540  -37.2320  -14.5800 C.ar      1 JK2600      0.0000 
     34 O25       -39.8680  -38.2160  -14.9430 O.3       1 JK2600      0.0000 
     35 C03       -39.7450  -39.4790  -14.3560 C.3       1 JK2600      0.0000 
     36 C32       -37.7770  -37.0600  -15.3330 C.ar      1 JK2600      0.0000 
     37 O23       -37.5470  -37.8430  -16.4630 O.3       1 JK2600      0.0000 
     38 C01       -38.4350  -37.7620  -17.5380 C.3       1 JK2600      0.0000 
     39 H         -29.2642  -33.8660  -12.3691 H         1 JK2600      0.0000 
     40 H         -31.4895  -36.0559   -8.1252 H         1 JK2600      0.0000 
     41 H         -35.9915  -35.9525  -15.4665 H         1 JK2600      0.0000 
     42 H         -33.7363  -34.8801  -12.1945 H         1 JK2600      0.0000 
     43 H         -24.1874  -38.2004   -6.0152 H         1 JK2600      0.0000 
     44 H         -25.6845  -40.0922   -5.9418 H         1 JK2600      0.0000 
     45 H         -27.8803  -38.5983   -9.2085 H         1 JK2600      0.0000 
     46 H         -27.5341  -40.2944   -7.4969 H         1 JK2600      0.0000 
     47 H         -25.6363  -35.9719  -10.0313 H         1 JK2600      0.0000 
     48 H         -27.0659  -34.8171  -11.7996 H         1 JK2600      0.0000 
     49 H         -28.7316  -36.5749   -8.3592 H         1 JK2600      0.0000 
     50 H         -30.5405  -32.1449  -11.8402 H         1 JK2600      0.0000 
     51 H         -31.4589  -30.8783  -13.6916 H         1 JK2600      0.0000 
     52 H         -33.5101  -31.5909  -14.7958 H         1 JK2600      0.0000 
     53 H         -36.2884  -33.5721  -12.5371 H         1 JK2600      0.0000 
     54 H         -38.4147  -34.8923  -12.1730 H         1 JK2600      0.0000 
     55 H         -39.5966  -36.7821  -10.8110 H         1 JK2600      0.0000 
     56 H         -40.0659  -35.2862  -11.1688 H         1 JK2600      0.0000 
     57 H         -41.1621  -36.4153  -10.8377 H         1 JK2600      0.0000 
     58 H         -38.8572  -39.8951  -14.5526 H         1 JK2600      0.0000 
     59 H         -39.8348  -39.4364  -13.3610 H         1 JK2600      0.0000 
     60 H         -40.4450  -40.1120  -14.6866 H         1 JK2600      0.0000 
     61 H         -38.4800  -36.8363  -17.9136 H         1 JK2600      0.0000 
     62 H         -38.1685  -38.3694  -18.2864 H         1 JK2600      0.0000 
     63 H         -39.3649  -38.0157  -17.2715 H         1 JK2600      0.0000 
@<TRIPOS>BOND
     1   10    1 ar   
     2   18    1 ar   
     3   39    1 1    
     4    9    2 1    
     5   21    2 2    
     6   40    2 1    
     7    7    3 ar   
     8   36    3 ar   
     9   41    3 1    
    10   22    4 ar   
    11   25    4 ar   
    12   42    4 1    
    13   25    5 1    
    14   27    5 2    
    15   28    5 am   
    16   17    6 1    
    17   18    6 ar   
    18   19    6 ar   
    19   28    7 1    
    20   29    7 ar   
    21   12    8 ar   
    22   15    8 ar   
    23   17    8 1    
    24   10    9 ar   
    25   19    9 ar   
    26   20   10 1    
    27   12   11 1    
    28   13   12 ar   
    29   14   13 ar   
    30   43   13 1    
    31   16   14 ar   
    32   44   14 1    
    33   16   15 ar   
    34   45   15 1    
    35   46   16 1    
    36   47   17 1    
    37   48   18 1    
    38   49   19 1    
    39   21   20 1    
    40   22   20 1    
    41   23   22 ar   
    42   24   23 ar   
    43   50   23 1    
    44   26   24 ar   
    45   51   24 1    
    46   26   25 ar   
    47   52   26 1    
    48   53   28 1    
    49   30   29 ar   
    50   54   29 1    
    51   31   30 1    
    52   33   30 ar   
    53   32   31 1    
    54   55   32 1    
    55   56   32 1    
    56   57   32 1    
    57   34   33 1    
    58   36   33 ar   
    59   35   34 1    
    60   58   35 1    
    61   59   35 1    
    62   60   35 1    
    63   37   36 1    
    64   38   37 1    
    65   61   38 1    
    66   62   38 1    
    67   63   38 1    
@<TRIPOS>SUBSTRUCTURE
     1 JK2600      1 GROUP   
@<TRIPOS>SET

