#    Name: 3o15_3NM_1_INTS_M
#    Modification time : Tue Mar 25 03:07:57 2014

@<TRIPOS>MOLECULE
3o15_3NM_1_INTS_M
   50     0     9     0     0
SMALL
NO_CHARGES


@<TRIPOS>ATOM
      1 CA          6.5325   38.3320    7.5680 C.3       3 GLC5        0.0000 
      2 CA          7.5630   40.2870    7.1910 C.3       9 GLL5        0.0000 
      3 CA          5.5020   36.3770    7.9450 C.3       6 GLP5        0.0000 
      4 CA          5.9900   40.1470    6.1645 C.3       3 GLC5        0.0000 
      5 CA          4.4170   40.0070    5.1380 C.3       6 GLP5        0.0000 
      6 CA          9.4290   40.1790    7.8265 C.3       3 GLC5        0.0000 
      7 CA         11.2950   40.0710    8.4620 C.3       6 GLP5        0.0000 
      8 CA          7.7850   39.3890    8.8240 C.3       3 GLC5        0.0000 
      9 CA          8.0070   38.4910   10.4570 C.3       6 GLP5        0.0000 
     10 CA         10.1115   45.2435    4.8530 C.3       3 GLC5        0.0000 
     11 CA          9.2610   43.4730    5.4710 C.3       9 GLL5        0.0000 
     12 CA         10.9620   47.0140    4.2350 C.3       6 GLP5        0.0000 
     13 CA          9.4565   44.8025    7.0665 C.3       3 GLC5        0.0000 
     14 CA          9.6520   46.1320    8.6620 C.3       6 GLP5        0.0000 
     15 NZ          7.6915   39.7950    2.8865 N.4       2 LYC4        0.0000 
     16 NZ          8.6130   38.4880    3.7970 N.4       8 LYL4        0.0000 
     17 NZ          6.7700   41.1020    1.9760 N.4       5 LYP4        0.0000 
     18 N           6.9800   40.6830   12.3220 N.am      1 SEC2        0.0000 
     19 N           6.8400   42.0690   12.0830 N.am      7 SEL2        0.0000 
     20 N           7.1200   39.2970   12.5610 N.am      4 SEP2        0.0000 
     21 N           6.3245   45.1575   12.2850 N.am      1 SEC2        0.0000 
     22 N           7.3590   44.5350   12.6670 N.am      7 SEL2        0.0000 
     23 N           5.2900   45.7800   11.9030 N.am      4 SEP2        0.0000 
     24 N           8.2730   45.4790   13.2930 N.am      1 SEC2        0.0000 
     25 N           9.1870   46.4230   13.9190 N.am      4 SEP2        0.0000 
     26 N           7.1340   44.7870   13.8740 N.am      1 SEC2        0.0000 
     27 N           6.9090   45.0390   15.0810 N.am      4 SEP2        0.0000 
     28 CA          6.4210   43.2225    6.9975 C.3       3 GLC5        0.0000 
     29 CA          8.0230   42.8460    8.1620 C.3       9 GLL5        0.0000 
     30 CA          4.8190   43.5990    5.8330 C.3       6 GLP5        0.0000 
     31 N          10.3165   43.8245   12.4790 N.am      1 SEC2        0.0000 
     32 N           9.2660   42.8160   12.4650 N.am      7 SEL2        0.0000 
     33 N          11.3670   44.8330   12.4930 N.am      4 SEP2        0.0000 
     34 N           9.3235   42.8290   13.8495 N.am      1 SEC2        0.0000 
     35 N           9.3810   42.8420   15.2340 N.am      4 SEP2        0.0000 
     36 CA          6.3740   44.1900    9.9455 C.3       3 GLC5        0.0000 
     37 CA          7.4690   42.6360    9.4190 C.3       9 GLL5        0.0000 
     38 CA          5.2790   45.7440   10.4720 C.3       6 GLP5        0.0000 
     39 CA          7.7380   40.5635    9.9380 C.3       3 GLC5        0.0000 
     40 CA          6.8948   41.7535    5.5480 C.3       3 GLC5        0.0000 
     41 CA          8.1020   41.9110    7.1370 C.3       9 GLL5        0.0000 
     42 CA          5.9570   42.4080    3.9320 C.3       6 GLP5        0.0000 
     43 CA          7.4603   42.6035    4.8048 C.3       3 GLC5        0.0000 
     44 CA          8.6660   42.1250    5.8840 C.3       9 GLL5        0.0000 
     45 CA         10.3247   41.9580    6.5528 C.3       3 GLC5        0.0000 
     46 CA         11.6860   41.1170    7.4280 C.3       6 GLP5        0.0000 
     47 CA          9.8742   41.7477    7.5388 C.3       3 GLC5        0.0000 
     48 CA          6.1530   42.2980    9.6662 C.3       3 GLC5        0.0000 
     49 CA          4.5600   41.8550   10.5420 C.3       6 GLP5        0.0000 
     50 CA          8.6990   44.4365    8.7263 C.3       3 GLC5        0.0000 
@<TRIPOS>BOND
@<TRIPOS>SUBSTRUCTURE
     1 SEC2       18 GROUP        1 X    SEC  0     ROOT SEC X 2
     2 LYC4       15 GROUP        1 X    LYC  0     **** LYC X 4
     3 GLC5        1 GROUP        1 X    GLC  0     **** GLC X 6
     4 SEP2       20 GROUP        1 Y    SEP  0     ROOT SEP Y 9
     5 LYP4       17 GROUP        1 Y    LYP  0     **** LYP Y 11
     6 GLP5        3 GROUP        1 Y    GLP  0     **** GLP Y 13
     7 SEL2       19 GROUP        1 Z    SEL  0     ROOT SEL Z 16
     8 LYL4       16 GROUP        1 Z    LYL  0     **** LYL Z 18
     9 GLL5        2 GROUP        1 Z    GLL  0     **** GLL Z 20
@<TRIPOS>SET

