#    Name: 3o15_3NM_1_ligand
#    Modification time : Tue Mar 25 03:07:58 2014

@<TRIPOS>MOLECULE
3o15_3NM_1_ligand
   23    23     1     0     0
SMALL
NO_CHARGES


@<TRIPOS>ATOM
      1 N           8.6580   41.0630    5.0730 N.2       1 3NM236      0.0000 
      2 P           7.9470   43.2280   11.9360 P.3       1 3NM236      0.0000 
      3 S           7.5630   40.2870    7.1910 S.3       1 3NM236      0.0000 
      4 C1          9.2610   43.4730    5.4710 C.3       1 3NM236      0.0000 
      5 O1          7.3900   37.6970    5.4600 O.co2     1 3NM236      0.0000 
      6 C2          8.6660   42.1250    5.8840 C.2       1 3NM236      0.0000 
      7 O2          8.6130   38.4880    3.7970 O.co2     1 3NM236      0.0000 
      8 C3          8.1080   39.9680    5.5970 C.2       1 3NM236      0.0000 
      9 O3          8.0100   43.5620   10.3630 O.3       1 3NM236      0.0000 
     10 C4          8.0260   38.6120    4.8930 C.2       1 3NM236      0.0000 
     11 O4          6.8400   42.0690   12.0830 O.co2     1 3NM236      0.0000 
     12 C5          8.1020   41.9110    7.1370 C.2       1 3NM236      0.0000 
     13 O5          7.3590   44.5350   12.6670 O.co2     1 3NM236      0.0000 
     14 C6          8.0230   42.8460    8.1620 C.3       1 3NM236      0.0000 
     15 O6          9.2660   42.8160   12.4650 O.co2     1 3NM236      0.0000 
     16 C7          7.4690   42.6360    9.4190 C.3       1 3NM236      0.0000 
     17 H           7.5319   43.8296    7.7133 H         1 3NM236      0.0000 
     18 H           9.1096   43.2979    8.3199 H         1 3NM236      0.0000 
     19 H           6.3605   42.7416    9.3898 H         1 3NM236      0.0000 
     20 H           7.6578   41.5959    9.7701 H         1 3NM236      0.0000 
     21 H          10.2322   43.3968    5.2454 H         1 3NM236      0.0000 
     22 H           8.8021   43.8508    4.6668 H         1 3NM236      0.0000 
     23 H           9.1819   44.1529    6.2000 H         1 3NM236      0.0000 
@<TRIPOS>BOND
     1    6    1 1    
     2    8    1 2    
     3    9    2 1    
     4   11    2 ar   
     5   13    2 ar   
     6   15    2 ar   
     7    8    3 1    
     8   12    3 1    
     9    6    4 1    
    10   21    4 1    
    11   22    4 1    
    12   23    4 1    
    13   10    5 ar   
    14   12    6 2    
    15   10    7 ar   
    16   10    8 1    
    17   16    9 1    
    18   14   12 1    
    19   16   14 1    
    20   17   14 1    
    21   18   14 1    
    22   19   16 1    
    23   20   16 1    
@<TRIPOS>SUBSTRUCTURE
     1 3NM236      1 GROUP   
@<TRIPOS>SET

