#    Name: 4fog_C2F_2_INTS_M
#    Modification time : Mon Mar 24 20:25:59 2014

@<TRIPOS>MOLECULE
4fog_C2F_2_INTS_M
   47     0     6     0     0
SMALL
NO_CHARGES


@<TRIPOS>ATOM
      1 O          59.3495   -0.5870   -7.5750 O.2       1 ALC1        0.0000 
      2 O          59.8400   -1.9470   -8.3670 O.2       5 ALL1        0.0000 
      3 O          58.8590    0.7730   -6.7830 O.2       3 ALP1        0.0000 
      4 O          58.4550   -0.6110   -6.6435 O.2       1 ALC1        0.0000 
      5 O          58.0510   -1.9950   -6.5040 O.2       5 ALL1        0.0000 
      6 CA         54.0745   -7.4830   -5.5065 C.3       2 GLC5        0.0000 
      7 CA         54.9680   -5.9030   -6.2900 C.3       6 GLL5        0.0000 
      8 CA         53.1810   -9.0630   -4.7230 C.3       4 GLP5        0.0000 
      9 CA         55.0335   -8.5560   -6.8410 C.3       2 GLC5        0.0000 
     10 CA         55.8850   -6.8770   -7.1060 C.3       6 GLL5        0.0000 
     11 CA         54.1820  -10.2350   -6.5760 C.3       4 GLP5        0.0000 
     12 CA         56.4515   -7.1965   -8.9255 C.3       2 GLC5        0.0000 
     13 CA         57.0180   -7.5160  -10.7450 C.3       4 GLP5        0.0000 
     14 CA         57.2045   -8.0110   -7.3285 C.3       2 GLC5        0.0000 
     15 CA         58.5240   -9.1450   -7.5510 C.3       4 GLP5        0.0000 
     16 CA         57.9975   -7.0010   -7.3705 C.3       2 GLC5        0.0000 
     17 CA         57.4710   -4.8570   -7.1900 C.3       6 GLL5        0.0000 
     18 CA         52.8580   -7.1290   -6.2300 C.3       2 GLC5        0.0000 
     19 CA         53.6020   -5.4850   -6.8990 C.3       6 GLL5        0.0000 
     20 CA         52.1140   -8.7730   -5.5610 C.3       4 GLP5        0.0000 
     21 CA         55.5075   -5.2205   -3.7450 C.3       2 GLC5        0.0000 
     22 CA         54.9980   -4.2430   -4.3510 C.3       6 GLL5        0.0000 
     23 CA         56.0170   -6.1980   -3.1390 C.3       4 GLP5        0.0000 
     24 CA         51.2745   -3.3365   -7.6065 C.3       2 GLC5        0.0000 
     25 CA         52.9600   -3.0000   -6.8000 C.3       6 GLL5        0.0000 
     26 CA         49.5890   -3.6730   -8.4130 C.3       4 GLP5        0.0000 
     27 CA         50.7665   -3.0820   -5.9550 C.3       2 GLC5        0.0000 
     28 CA         52.2610   -1.8500   -5.9580 C.3       6 GLL5        0.0000 
     29 CA         49.2720   -4.3140   -5.9520 C.3       4 GLP5        0.0000 
     30 CA         57.5560   -4.6865   -5.1037 C.3       2 GLC5        0.0000 
     31 CA         56.7430   -4.1930   -6.1050 C.3       6 GLL5        0.0000 
     32 CA         58.0050   -4.8480   -3.5600 C.3       4 GLP5        0.0000 
     33 CA         55.7218   -6.2940   -4.9185 C.3       2 GLC5        0.0000 
     34 CA         50.4010   -1.3835   -7.9288 C.3       2 GLC5        0.0000 
     35 CA         51.8870   -0.4770   -6.6640 C.3       6 GLL5        0.0000 
     36 CA         48.7490   -2.3840   -8.4360 C.3       4 GLP5        0.0000 
     37 CA         51.3462   -2.9007   -8.5510 C.3       2 GLC5        0.0000 
     38 CA         52.9140   -1.4430   -9.0420 C.3       6 GLL5        0.0000 
     39 CA         55.0352   -1.8542   -9.6160 C.3       2 GLC5        0.0000 
     40 CA         53.2930   -2.8140   -8.3360 C.3       6 GLL5        0.0000 
     41 CA         56.9670   -1.5800  -10.5430 C.3       4 GLP5        0.0000 
     42 CA         49.0072    1.9450   -6.7103 C.3       2 GLC5        0.0000 
     43 CA         49.9850    2.9040   -8.6740 C.3       6 GLL5        0.0000 
     44 CA         48.7750    0.9880   -4.9860 C.3       4 GLP5        0.0000 
     45 CA         46.7895    3.1378   -7.5210 C.3       2 GLC5        0.0000 
     46 CA         48.4940    2.9000   -8.1950 C.3       6 GLL5        0.0000 
     47 CA         45.5450    3.5620   -6.2490 C.3       4 GLP5        0.0000 
@<TRIPOS>BOND
@<TRIPOS>SUBSTRUCTURE
     1 ALC1        1 GROUP        1 X    ALC  0     ROOT ALC X 1
     2 GLC5        6 GROUP        1 X    GLC  0     **** GLC X 6
     3 ALP1        3 GROUP        1 Y    ALP  0     ROOT ALP Y 8
     4 GLP5        8 GROUP        1 Y    GLP  0     **** GLP Y 13
     5 ALL1        2 GROUP        1 Z    ALL  0     ROOT ALL Z 15
     6 GLL5        7 GROUP        1 Z    GLL  0     **** GLL Z 20
@<TRIPOS>SET

