#    Name: 4fog_C2F_2_ligand
#    Modification time : Mon Mar 24 20:25:59 2014

@<TRIPOS>MOLECULE
4fog_C2F_2_ligand
   56    58     1     0     0
SMALL
NO_CHARGES


@<TRIPOS>ATOM
      1 N1         58.5210   -4.1170   -7.9680 N.2       1 C2F302      0.0000 
      2 C2         58.8180   -2.6920   -7.6340 C.2       1 C2F302      0.0000 
      3 NA2        59.8400   -1.9470   -8.3670 N.pl3     1 C2F302      0.0000 
      4 N3         58.0510   -1.9950   -6.5040 N.am      1 C2F302      0.0000 
      5 C4         57.0490   -2.7020   -5.7580 C.2       1 C2F302      0.0000 
      6 O4         56.3710   -2.0170   -4.7150 O.2       1 C2F302      0.0000 
      7 C4A        56.7430   -4.1930   -6.1050 C.2       1 C2F302      0.0000 
      8 N5         55.7320   -4.9490   -5.4130 N.pl3     1 C2F302      0.0000 
      9 C6         54.9680   -5.9030   -6.2900 C.3       1 C2F302      0.0000 
     10 C7         55.8850   -6.8770   -7.1060 C.3       1 C2F302      0.0000 
     11 N8         57.1630   -6.2640   -7.5030 N.pl3     1 C2F302      0.0000 
     12 C8A        57.4710   -4.8570   -7.1900 C.2       1 C2F302      0.0000 
     13 C9         53.6020   -5.4850   -6.8990 C.3       1 C2F302      0.0000 
     14 N10        53.2120   -4.2880   -6.1400 N.pl3     1 C2F302      0.0000 
     15 C11        54.9980   -4.2430   -4.3510 C.3       1 C2F302      0.0000 
     16 C12        52.2190   -0.2890   -8.1790 C.ar      1 C2F302      0.0000 
     17 C13        52.9140   -1.4430   -9.0420 C.ar      1 C2F302      0.0000 
     18 C14        53.2930   -2.8140   -8.3360 C.ar      1 C2F302      0.0000 
     19 C15        52.9600   -3.0000   -6.8000 C.ar      1 C2F302      0.0000 
     20 C16        52.2610   -1.8500   -5.9580 C.ar      1 C2F302      0.0000 
     21 C17        51.8870   -0.4770   -6.6640 C.ar      1 C2F302      0.0000 
     22 C          51.7420    1.0230   -8.8360 C.2       1 C2F302      0.0000 
     23 O          51.8560    1.1540  -10.0190 O.2       1 C2F302      0.0000 
     24 N          50.6300    1.6880   -8.1230 N.am      1 C2F302      0.0000 
     25 CA         49.9850    2.9040   -8.6740 C.3       1 C2F302      0.0000 
     26 CB         48.4940    2.9000   -8.1950 C.3       1 C2F302      0.0000 
     27 CG         47.5740    2.5270   -9.3910 C.3       1 C2F302      0.0000 
     28 CD         48.0470    1.1790  -10.0020 C.2       1 C2F302      0.0000 
     29 OE1        48.1000    1.2890  -11.4100 O.co2     1 C2F302      0.0000 
     30 OE2        47.1250    0.1780   -9.6530 O.co2     1 C2F302      0.0000 
     31 CT         50.7330    4.1750   -8.1820 C.2       1 C2F302      0.0000 
     32 O1         51.0260    4.2900   -7.0340 O.co2     1 C2F302      0.0000 
     33 O2         51.3140    5.0480   -9.1320 O.co2     1 C2F302      0.0000 
     34 H          59.9682   -0.9930   -8.0961 H         1 C2F302      0.0000 
     35 H          60.3270   -2.4525   -9.0792 H         1 C2F302      0.0000 
     36 H          58.2818   -1.0379   -6.3173 H         1 C2F302      0.0000 
     37 H          54.5718   -6.7230   -5.4166 H         1 C2F302      0.0000 
     38 H          55.3125   -7.2007   -7.9882 H         1 C2F302      0.0000 
     39 H          56.0524   -7.7670   -6.4809 H         1 C2F302      0.0000 
     40 H          57.8454   -6.8199   -8.0016 H         1 C2F302      0.0000 
     41 H          52.9119   -6.2858   -6.7523 H         1 C2F302      0.0000 
     42 H          53.7507   -5.2642   -7.9325 H         1 C2F302      0.0000 
     43 H          53.1141   -4.3537   -5.1313 H         1 C2F302      0.0000 
     44 H          53.0961   -1.3044   -9.9676 H         1 C2F302      0.0000 
     45 H          53.7143   -3.5124   -8.8314 H         1 C2F302      0.0000 
     46 H          52.0654   -1.9830   -5.0283 H         1 C2F302      0.0000 
     47 H          51.4640    0.2190   -6.1579 H         1 C2F302      0.0000 
     48 H          50.3044    1.3100   -7.2488 H         1 C2F302      0.0000 
     49 H          49.9925    2.8805   -9.7391 H         1 C2F302      0.0000 
     50 H          48.2390    3.8825   -7.8419 H         1 C2F302      0.0000 
     51 H          48.3804    2.1683   -7.4160 H         1 C2F302      0.0000 
     52 H          47.6384    3.2973  -10.1403 H         1 C2F302      0.0000 
     53 H          46.5622    2.4204   -9.0390 H         1 C2F302      0.0000 
     54 H          55.6095   -3.9194   -3.6289 H         1 C2F302      0.0000 
     55 H          54.5122   -3.4433   -4.7038 H         1 C2F302      0.0000 
     56 H          54.3166   -4.8316   -3.9161 H         1 C2F302      0.0000 
@<TRIPOS>BOND
     1    2    1 2    
     2   12    1 1    
     3    3    2 1    
     4    4    2 1    
     5   34    3 1    
     6   35    3 1    
     7    5    4 am   
     8   36    4 1    
     9    6    5 2    
    10    7    5 1    
    11    8    7 1    
    12   12    7 2    
    13    9    8 1    
    14   15    8 1    
    15   10    9 1    
    16   13    9 1    
    17   37    9 1    
    18   11   10 1    
    19   38   10 1    
    20   39   10 1    
    21   12   11 1    
    22   40   11 1    
    23   14   13 1    
    24   41   13 1    
    25   42   13 1    
    26   19   14 1    
    27   43   14 1    
    28   54   15 1    
    29   55   15 1    
    30   56   15 1    
    31   17   16 ar   
    32   21   16 ar   
    33   22   16 1    
    34   18   17 ar   
    35   44   17 1    
    36   19   18 ar   
    37   45   18 1    
    38   20   19 ar   
    39   21   20 ar   
    40   46   20 1    
    41   47   21 1    
    42   23   22 2    
    43   24   22 am   
    44   25   24 1    
    45   48   24 1    
    46   26   25 1    
    47   31   25 1    
    48   49   25 1    
    49   27   26 1    
    50   50   26 1    
    51   51   26 1    
    52   28   27 1    
    53   52   27 1    
    54   53   27 1    
    55   29   28 ar   
    56   30   28 ar   
    57   32   31 ar   
    58   33   31 ar   
@<TRIPOS>SUBSTRUCTURE
     1 C2F302      1 GROUP   
@<TRIPOS>SET

