#    Name: 1yim_CM4_1_INTS_M
#    Modification time : Tue Mar 25 11:05:00 2014

@<TRIPOS>MOLECULE
1yim_CM4_1_INTS_M
  103     0    12     0     0
SMALL
NO_CHARGES


@<TRIPOS>ATOM
      1 CA         30.3295   -3.8245   28.6005 C.3       4 GLC5        0.0000 
      2 CA         29.1000   -2.2340   27.7600 C.3      12 GLL5        0.0000 
      3 CA         31.5590   -5.4150   29.4410 C.3       8 GLP5        0.0000 
      4 N          24.0940   -1.5250   27.6655 N.am      2 SEC2        0.0000 
      5 N          25.2990   -0.9880   26.6280 N.am     10 SEL2        0.0000 
      6 N          22.8890   -2.0620   28.7030 N.am      6 SEP2        0.0000 
      7 O          24.7520   -2.1015   26.1370 O.2       1 ALC1        0.0000 
      8 O          25.2990   -0.9880   26.6280 O.2       9 ALL1        0.0000 
      9 O          24.2050   -3.2150   25.6460 O.2       5 ALP1        0.0000 
     10 CA         27.1210    0.4710   29.1120 C.3       4 GLC5        0.0000 
     11 CA         27.5700   -0.4280   27.2480 C.3      12 GLL5        0.0000 
     12 CA         26.6720    1.3700   30.9760 C.3       8 GLP5        0.0000 
     13 CA         29.0675    3.0585   27.6710 C.3       4 GLC5        0.0000 
     14 CA         29.5970    1.3180   28.6670 C.3      12 GLL5        0.0000 
     15 CA         28.5380    4.7990   26.6750 C.3       8 GLP5        0.0000 
     16 CA         28.1345    1.3440   29.8215 C.3       4 GLC5        0.0000 
     17 CA         29.6355    2.5425   30.1385 C.3       4 GLC5        0.0000 
     18 CA         29.6740    3.7670   31.6100 C.3       8 GLP5        0.0000 
     19 CA         31.7955    1.7555   25.5085 C.3       4 GLC5        0.0000 
     20 CA         32.8850    1.0110   27.1460 C.3      12 GLL5        0.0000 
     21 CA         30.7060    2.5000   23.8710 C.3       8 GLP5        0.0000 
     22 CA         34.5940    0.0770   26.2040 C.3       4 GLC5        0.0000 
     23 CA         36.3030   -0.8570   25.2620 C.3       8 GLP5        0.0000 
     24 CA         35.1590    1.0180   25.7200 C.3       4 GLC5        0.0000 
     25 CA         34.1260    1.6730   27.0850 C.3      12 GLL5        0.0000 
     26 CA         36.1920    0.3630   24.3550 C.3       8 GLP5        0.0000 
     27 CA         37.2450    1.8675   28.5190 C.3       4 GLC5        0.0000 
     28 CA         35.1250    1.4780   28.0530 C.3      12 GLL5        0.0000 
     29 CA         39.3650    2.2570   28.9850 C.3       8 GLP5        0.0000 
     30 N          37.3570    1.7290   28.6060 N.am      2 SEC2        0.0000 
     31 N          36.3070    2.1470   27.9560 N.am     10 SEL2        0.0000 
     32 N          38.4070    1.3110   29.2560 N.am      6 SEP2        0.0000 
     33 O          36.6560    2.7385   26.4790 O.2       1 ALC1        0.0000 
     34 O          36.3070    2.1470   27.9560 O.2       9 ALL1        0.0000 
     35 O          37.0050    3.3300   25.0020 O.2       5 ALP1        0.0000 
     36 CA         34.6555   -3.8355   27.1625 C.3       4 GLC5        0.0000 
     37 CA         32.8980   -3.1820   26.1170 C.3      12 GLL5        0.0000 
     38 CA         36.4130   -4.4890   28.2080 C.3       8 GLP5        0.0000 
     39 CA         35.6825   -4.7985   22.5735 C.3       4 GLC5        0.0000 
     40 CA         33.7120   -4.1590   22.1090 C.3      12 GLL5        0.0000 
     41 CA         37.6530   -5.4380   23.0380 C.3       8 GLP5        0.0000 
     42 OD1        31.9325   -5.2275   20.0275 O.co2     3 ASC3        0.0000 
     43 OD1        32.7970   -4.2870   19.8050 O.co2    11 ASL3        0.0000 
     44 OD1        31.0680   -6.1680   20.2500 O.co2     7 ASP3        0.0000 
     45 O          31.9325   -5.2275   20.0275 O.2       1 ALC1        0.0000 
     46 O          32.7970   -4.2870   19.8050 O.2       9 ALL1        0.0000 
     47 O          31.0680   -6.1680   20.2500 O.2       5 ALP1        0.0000 
     48 CA         33.9805   -5.8650   17.9445 C.3       4 GLC5        0.0000 
     49 CA         33.2080   -4.3320   18.3910 C.3      12 GLL5        0.0000 
     50 CA         34.7530   -7.3980   17.4980 C.3       8 GLP5        0.0000 
     51 CA         33.0680   -5.4425   16.8685 C.3       4 GLC5        0.0000 
     52 CA         32.0240   -3.8010   17.5810 C.3      12 GLL5        0.0000 
     53 CA         34.1120   -7.0840   16.1560 C.3       8 GLP5        0.0000 
     54 CA         32.1055   -2.8350   15.9295 C.3       4 GLC5        0.0000 
     55 CA         32.1870   -1.8690   14.2780 C.3       8 GLP5        0.0000 
     56 CA         30.8445   -1.5580   19.6385 C.3       4 GLC5        0.0000 
     57 CA         31.0960   -3.1580   18.6210 C.3      12 GLL5        0.0000 
     58 CA         30.5930    0.0420   20.6560 C.3       8 GLP5        0.0000 
     59 CA         31.9415   -1.4380   20.2030 C.3       4 GLC5        0.0000 
     60 CA         31.9200   -3.1100   19.9150 C.3      12 GLL5        0.0000 
     61 CA         31.9630    0.2340   20.4910 C.3       8 GLP5        0.0000 
     62 CA         26.4722   -4.4495   28.0590 C.3       4 GLC5        0.0000 
     63 CA         28.0750   -3.1540   27.5580 C.3      12 GLL5        0.0000 
     64 CA         25.5050   -5.9640   28.7470 C.3       8 GLP5        0.0000 
     65 CA         28.3994   -3.3495   25.6653 C.3       4 GLC5        0.0000 
     66 CA         26.8040   -2.7160   27.1840 C.3      12 GLL5        0.0000 
     67 CA         29.1030   -3.9940   23.9090 C.3       8 GLP5        0.0000 
     68 CA         26.6908    0.1495   25.4892 C.3       4 GLC5        0.0000 
     69 CA         26.5410   -1.3560   27.0290 C.3      12 GLL5        0.0000 
     70 CA         26.3260    1.1910   23.8400 C.3       8 GLP5        0.0000 
     71 CA         29.3464   -0.5290   29.8604 C.3       4 GLC5        0.0000 
     72 CA         30.0470    0.1100   27.8480 C.3      12 GLL5        0.0000 
     73 CA         28.5460   -1.5920   31.3250 C.3       8 GLP5        0.0000 
     74 CA         32.3833    3.1405   27.1058 C.3       4 GLC5        0.0000 
     75 CA         31.2610    4.9390   27.0960 C.3       8 GLP5        0.0000 
     76 CA         35.1767    3.2712   26.8730 C.3       4 GLC5        0.0000 
     77 CA         35.7280    4.9670   26.1770 C.3       8 GLP5        0.0000 
     78 CA         35.4592    2.7302   29.7865 C.3       4 GLC5        0.0000 
     79 CA         35.9030    4.4170   30.9850 C.3       8 GLP5        0.0000 
     80 CA         35.6593    0.0932   26.9250 C.3       4 GLC5        0.0000 
     81 CA         34.7850   -0.6095   30.7640 C.3       4 GLC5        0.0000 
     82 CA         34.9060    0.6090   29.1230 C.3      12 GLL5        0.0000 
     83 CA         35.2950   -1.5180   32.3510 C.3       8 GLP5        0.0000 
     84 CA         30.7578   -3.3483   25.0847 C.3       4 GLC5        0.0000 
     85 CA         31.9270   -2.2230   26.4040 C.3      12 GLL5        0.0000 
     86 CA         31.9366   -4.0346   28.0330 C.3       4 GLC5        0.0000 
     87 CA         32.7193   -5.1835   25.3435 C.3       4 GLC5        0.0000 
     88 CA         32.3500   -7.0570   25.2370 C.3       8 GLP5        0.0000 
     89 CA         34.6957   -2.0835   25.3560 C.3       4 GLC5        0.0000 
     90 CA         33.2790   -3.4380   24.7830 C.3      12 GLL5        0.0000 
     91 CA         31.0635   -3.5232   24.0875 C.3       4 GLC5        0.0000 
     92 CA         30.3465   -2.8040   24.2845 C.3       4 GLC5        0.0000 
     93 CA         31.7900   -1.7100   23.9950 C.3      12 GLL5        0.0000 
     94 CA         31.1480    0.4430   24.2655 C.3       4 GLC5        0.0000 
     95 CA         29.6700   -1.1380   23.8145 C.3       4 GLC5        0.0000 
     96 CA         31.3900   -1.5180   25.3250 C.3      12 GLL5        0.0000 
     97 CA         27.7500   -0.6620   22.9690 C.3       8 GLP5        0.0000 
     98 CA         33.4184   -0.8041   24.0132 C.3       4 GLC5        0.0000 
     99 CA         35.0020    0.2450   23.4280 C.3       8 GLP5        0.0000 
    100 CA         33.9115   -5.8768   22.3568 C.3       4 GLC5        0.0000 
    101 CA         33.9570   -7.5800   23.3530 C.3       8 GLP5        0.0000 
    102 CA         29.9145   -3.3993   17.1840 C.3       4 GLC5        0.0000 
    103 CA         28.2690   -3.3190   16.2670 C.3       8 GLP5        0.0000 
@<TRIPOS>BOND
@<TRIPOS>SUBSTRUCTURE
     1 ALC1        7 GROUP        1 X    ALC  0     ROOT ALC X 1
     2 SEC2        4 GROUP        1 X    SEC  0     **** SEC X 2
     3 ASC3       42 GROUP        1 X    ASC  0     **** ASC X 3
     4 GLC5        1 GROUP        1 X    GLC  0     **** GLC X 6
     5 ALP1        9 GROUP        1 Y    ALP  0     ROOT ALP Y 8
     6 SEP2        6 GROUP        1 Y    SEP  0     **** SEP Y 9
     7 ASP3       44 GROUP        1 Y    ASP  0     **** ASP Y 10
     8 GLP5        3 GROUP        1 Y    GLP  0     **** GLP Y 13
     9 ALL1        8 GROUP        1 Z    ALL  0     ROOT ALL Z 15
    10 SEL2        5 GROUP        1 Z    SEL  0     **** SEL Z 16
    11 ASL3       43 GROUP        1 Z    ASL  0     **** ASL Z 17
    12 GLL5        2 GROUP        1 Z    GLL  0     **** GLL Z 20
@<TRIPOS>SET

