#    Name: 1yim_CM4_1_ligand
#    Modification time : Tue Mar 25 11:05:00 2014

@<TRIPOS>MOLECULE
1yim_CM4_1_ligand
   65    69     1     0     0
SMALL
NO_CHARGES


@<TRIPOS>ATOM
      1 C1         31.3460   -0.6100   28.4010 C.3       1 CM4600      0.0000 
      2 C2         31.5340   -2.0300   27.8620 C.3       1 CM4600      0.0000 
      3 O3         30.3010   -2.7370   28.1140 O.3       1 CM4600      0.0000 
      4 C4         29.1000   -2.2340   27.7600 C.ar      1 CM4600      0.0000 
      5 C5         28.0750   -3.1540   27.5580 C.ar      1 CM4600      0.0000 
      6 C6         26.8040   -2.7160   27.1840 C.ar      1 CM4600      0.0000 
      7 C7         26.5410   -1.3560   27.0290 C.ar      1 CM4600      0.0000 
      8 O8         25.2990   -0.9880   26.6280 O.3       1 CM4600      0.0000 
      9 C9         27.5700   -0.4280   27.2480 C.ar      1 CM4600      0.0000 
     10 C10        28.8790   -0.8580   27.6130 C.ar      1 CM4600      0.0000 
     11 C11        30.0470    0.1100   27.8480 C.3       1 CM4600      0.0000 
     12 C12        29.5970    1.3180   28.6670 C.3       1 CM4600      0.0000 
     13 C13        32.6670    0.1540   28.2350 C.ar      1 CM4600      0.0000 
     14 C14        32.8850    1.0110   27.1460 C.ar      1 CM4600      0.0000 
     15 C15        34.1260    1.6730   27.0850 C.ar      1 CM4600      0.0000 
     16 C16        35.1250    1.4780   28.0530 C.ar      1 CM4600      0.0000 
     17 O17        36.3070    2.1470   27.9560 O.3       1 CM4600      0.0000 
     18 C18        34.9060    0.6090   29.1230 C.ar      1 CM4600      0.0000 
     19 C19        33.6440   -0.0110   29.2310 C.ar      1 CM4600      0.0000 
     20 C20        31.9270   -2.2230   26.4040 C.ar      1 CM4600      0.0000 
     21 C21        32.8980   -3.1820   26.1170 C.ar      1 CM4600      0.0000 
     22 C22        33.2790   -3.4380   24.7830 C.ar      1 CM4600      0.0000 
     23 C23        32.7690   -2.6670   23.7490 C.ar      1 CM4600      0.0000 
     24 C24        31.7900   -1.7100   23.9950 C.ar      1 CM4600      0.0000 
     25 C25        31.3900   -1.5180   25.3250 C.ar      1 CM4600      0.0000 
     26 O26        33.1060   -2.9180   22.4710 O.3       1 CM4600      0.0000 
     27 C27        33.7120   -4.1590   22.1090 C.3       1 CM4600      0.0000 
     28 C28        34.0200   -4.1880   20.6120 C.3       1 CM4600      0.0000 
     29 N29        32.7970   -4.2870   19.8050 N.4       1 CM4600      0.0000 
     30 C30        33.2080   -4.3320   18.3910 C.3       1 CM4600      0.0000 
     31 C31        32.0240   -3.8010   17.5810 C.3       1 CM4600      0.0000 
     32 C32        31.0960   -3.1580   18.6210 C.3       1 CM4600      0.0000 
     33 C33        31.9200   -3.1100   19.9150 C.3       1 CM4600      0.0000 
     34 H          31.1891   -0.7266   29.5115 H         1 CM4600      0.0000 
     35 H          32.3168   -2.5141   28.4913 H         1 CM4600      0.0000 
     36 H          28.2533   -4.1587   27.6843 H         1 CM4600      0.0000 
     37 H          26.0542   -3.4041   27.0212 H         1 CM4600      0.0000 
     38 H          27.3874    0.5777   27.1463 H         1 CM4600      0.0000 
     39 H          30.3320    0.5023   26.8297 H         1 CM4600      0.0000 
     40 H          32.1864    1.1482   26.4381 H         1 CM4600      0.0000 
     41 H          34.3074    2.3261   26.2986 H         1 CM4600      0.0000 
     42 H          35.6288    0.4244   29.8063 H         1 CM4600      0.0000 
     43 H          33.4373   -0.5942   30.0549 H         1 CM4600      0.0000 
     44 H          33.3435   -3.7100   26.8779 H         1 CM4600      0.0000 
     45 H          33.9382   -4.2019   24.5873 H         1 CM4600      0.0000 
     46 H          31.3794   -1.1708   23.2471 H         1 CM4600      0.0000 
     47 H          30.6440   -0.8028   25.5182 H         1 CM4600      0.0000 
     48 H          33.0553   -5.0122   22.3308 H         1 CM4600      0.0000 
     49 H          34.6566   -4.3224   22.6469 H         1 CM4600      0.0000 
     50 H          34.6835   -5.0425   20.4147 H         1 CM4600      0.0000 
     51 H          34.5774   -3.2745   20.3586 H         1 CM4600      0.0000 
     52 H          32.2564   -5.1774   20.0327 H         1 CM4600      0.0000 
     53 H          33.4143   -5.3419   18.0804 H         1 CM4600      0.0000 
     54 H          34.0595   -3.6971   18.2156 H         1 CM4600      0.0000 
     55 H          31.5217   -4.6081   17.1055 H         1 CM4600      0.0000 
     56 H          32.3591   -3.0606   16.8959 H         1 CM4600      0.0000 
     57 H          30.2395   -3.7720   18.7646 H         1 CM4600      0.0000 
     58 H          30.8486   -2.1692   18.3172 H         1 CM4600      0.0000 
     59 H          32.4831   -2.2065   19.9296 H         1 CM4600      0.0000 
     60 H          31.2593   -3.1947   20.7456 H         1 CM4600      0.0000 
     61 H          30.3016    2.0268   28.7012 H         1 CM4600      0.0000 
     62 H          28.7748    1.7402   28.2851 H         1 CM4600      0.0000 
     63 H          29.3863    1.0683   29.6121 H         1 CM4600      0.0000 
     64 H          24.8905   -1.8207   26.2543 H         1 CM4600      0.0000 
     65 H          36.3633    2.4354   27.0001 H         1 CM4600      0.0000 
@<TRIPOS>BOND
     1    2    1 1    
     2   11    1 1    
     3   13    1 1    
     4   34    1 1    
     5    3    2 1    
     6   20    2 1    
     7   35    2 1    
     8    4    3 1    
     9    5    4 ar   
    10   10    4 ar   
    11    6    5 ar   
    12   36    5 1    
    13    7    6 ar   
    14   37    6 1    
    15    8    7 1    
    16    9    7 ar   
    17   64    8 1    
    18   10    9 ar   
    19   38    9 1    
    20   11   10 1    
    21   12   11 1    
    22   39   11 1    
    23   61   12 1    
    24   62   12 1    
    25   63   12 1    
    26   14   13 ar   
    27   19   13 ar   
    28   15   14 ar   
    29   40   14 1    
    30   16   15 ar   
    31   41   15 1    
    32   17   16 1    
    33   18   16 ar   
    34   65   17 1    
    35   19   18 ar   
    36   42   18 1    
    37   43   19 1    
    38   21   20 ar   
    39   25   20 ar   
    40   22   21 ar   
    41   44   21 1    
    42   23   22 ar   
    43   45   22 1    
    44   24   23 ar   
    45   26   23 1    
    46   25   24 ar   
    47   46   24 1    
    48   47   25 1    
    49   27   26 1    
    50   28   27 1    
    51   48   27 1    
    52   49   27 1    
    53   29   28 1    
    54   50   28 1    
    55   51   28 1    
    56   30   29 1    
    57   33   29 1    
    58   52   29 1    
    59   31   30 1    
    60   53   30 1    
    61   54   30 1    
    62   32   31 1    
    63   55   31 1    
    64   56   31 1    
    65   33   32 1    
    66   57   32 1    
    67   58   32 1    
    68   59   33 1    
    69   60   33 1    
@<TRIPOS>SUBSTRUCTURE
     1 CM4600      1 GROUP   
@<TRIPOS>SET

