#    Name: 2f2c_AP9_1_INTS_M
#    Modification time : Tue Mar 25 12:14:28 2014

@<TRIPOS>MOLECULE
2f2c_AP9_1_INTS_M
   58     0     9     0     0
SMALL
NO_CHARGES


@<TRIPOS>ATOM
      1 O          26.8705   23.6810   58.4055 O.2       1 ALC1        0.0000 
      2 O          27.4990   22.7740   58.0140 O.2       7 ALL1        0.0000 
      3 O          26.2420   24.5880   58.7970 O.2       4 ALP1        0.0000 
      4 CA         26.9175   21.9400   60.1480 C.3       3 GLC5        0.0000 
      5 CA         28.4380   22.0740   58.8400 C.3       9 GLL5        0.0000 
      6 CA         25.3970   21.8060   61.4560 C.3       6 GLP5        0.0000 
      7 CA         28.1285   23.2200   60.7315 C.3       3 GLC5        0.0000 
      8 CA         27.8190   24.3660   62.6230 C.3       6 GLP5        0.0000 
      9 CA         33.6675   21.1880   57.8260 C.3       3 GLC5        0.0000 
     10 CA         31.8920   20.9050   57.4820 C.3       9 GLL5        0.0000 
     11 CA         35.4430   21.4710   58.1700 C.3       6 GLP5        0.0000 
     12 CA         29.3985   23.6155   61.4720 C.3       3 GLC5        0.0000 
     13 CA         30.9780   22.8650   60.3210 C.3       9 GLL5        0.0000 
     14 N          32.0885   23.0445   65.9140 N.am      2 SEC2        0.0000 
     15 N          32.0290   23.2780   64.2540 N.am      8 SEL2        0.0000 
     16 N          32.1480   22.8110   67.5740 N.am      5 SEP2        0.0000 
     17 CA         35.0390   24.5645   63.1945 C.3       3 GLC5        0.0000 
     18 CA         33.8670   25.8130   62.3340 C.3       9 GLL5        0.0000 
     19 CA         36.2110   23.3160   64.0550 C.3       6 GLP5        0.0000 
     20 CA         32.7950   28.0180   64.3055 C.3       3 GLC5        0.0000 
     21 CA         33.3530   27.0990   62.9770 C.3       9 GLL5        0.0000 
     22 CA         32.2370   28.9370   65.6340 C.3       6 GLP5        0.0000 
     23 CA         31.4160   26.3955   63.4370 C.3       3 GLC5        0.0000 
     24 CA         29.4790   25.6920   63.8970 C.3       6 GLP5        0.0000 
     25 CA         35.4390   26.8965   61.4610 C.3       3 GLC5        0.0000 
     26 CA         33.7960   26.0270   60.8190 C.3       9 GLL5        0.0000 
     27 CA         37.0820   27.7660   62.1030 C.3       6 GLP5        0.0000 
     28 CA         29.2055   23.1570   62.5590 C.3       3 GLC5        0.0000 
     29 CA         30.5920   21.9480   62.4950 C.3       9 GLL5        0.0000 
     30 O          30.3285   20.9545   64.8795 O.2       1 ALC1        0.0000 
     31 O          29.9800   21.0910   63.3560 O.2       7 ALL1        0.0000 
     32 O          30.6770   20.8180   66.4030 O.2       4 ALP1        0.0000 
     33 CA         29.7740   18.9285   66.0400 C.3       3 GLC5        0.0000 
     34 CA         30.1820   18.8130   63.9450 C.3       9 GLL5        0.0000 
     35 CA         29.3660   19.0440   68.1350 C.3       6 GLP5        0.0000 
     36 O          29.4300   17.0390   65.5185 O.2       1 ALC1        0.0000 
     37 O          30.3920   16.5260   64.5730 O.2       7 ALL1        0.0000 
     38 O          28.4680   17.5520   66.4640 O.2       4 ALP1        0.0000 
     39 CA         26.3000   19.7645   61.2705 C.3       3 GLC5        0.0000 
     40 CA         27.2030   17.7230   61.0850 C.3       9 GLL5        0.0000 
     41 CA         25.4670   17.1015   61.2975 C.3       3 GLC5        0.0000 
     42 CA         23.7310   16.4800   61.5100 C.3       6 GLP5        0.0000 
     43 CA         27.0060   20.6350   61.8425 C.3       3 GLC5        0.0000 
     44 CA         28.6150   19.4640   62.2290 C.3       9 GLL5        0.0000 
     45 CA         31.7089   19.1388   56.4905 C.3       3 GLC5        0.0000 
     46 CA         30.4190   20.7610   57.8500 C.3       9 GLL5        0.0000 
     47 CA         33.0150   17.8200   55.7880 C.3       6 GLP5        0.0000 
     48 CA         30.6707   24.5607   63.2328 C.3       3 GLC5        0.0000 
     49 CA         32.1810   23.8960   62.0980 C.3       9 GLL5        0.0000 
     50 CA         35.0735   27.3555   62.9708 C.3       3 GLC5        0.0000 
     51 CA         36.5370   28.2550   63.2860 C.3       6 GLP5        0.0000 
     52 CA         28.2387   19.3542   64.5550 C.3       3 GLC5        0.0000 
     53 CA         29.6030   19.8100   63.1530 C.3       9 GLL5        0.0000 
     54 CA         26.5850   19.3970   65.5610 C.3       6 GLP5        0.0000 
     55 CA         27.9535   18.3485   64.4507 C.3       3 GLC5        0.0000 
     56 CA         29.8090   17.4750   63.8060 C.3       9 GLL5        0.0000 
     57 CA         27.5072   19.0942   63.8605 C.3       3 GLC5        0.0000 
     58 CA         28.2440   18.1190   62.0910 C.3       9 GLL5        0.0000 
@<TRIPOS>BOND
@<TRIPOS>SUBSTRUCTURE
     1 ALC1        1 GROUP        1 X    ALC  0     ROOT ALC X 1
     2 SEC2       14 GROUP        1 X    SEC  0     **** SEC X 2
     3 GLC5        4 GROUP        1 X    GLC  0     **** GLC X 6
     4 ALP1        3 GROUP        1 Y    ALP  0     ROOT ALP Y 8
     5 SEP2       16 GROUP        1 Y    SEP  0     **** SEP Y 9
     6 GLP5        6 GROUP        1 Y    GLP  0     **** GLP Y 13
     7 ALL1        2 GROUP        1 Z    ALL  0     ROOT ALL Z 15
     8 SEL2       15 GROUP        1 Z    SEL  0     **** SEL Z 16
     9 GLL5        5 GROUP        1 Z    GLL  0     **** GLL Z 20
@<TRIPOS>SET

