#    Name: 2f2c_AP9_1_ligand
#    Modification time : Tue Mar 25 12:14:29 2014

@<TRIPOS>MOLECULE
2f2c_AP9_1_ligand
   54    56     1     0     0
SMALL
NO_CHARGES


@<TRIPOS>ATOM
      1 O1         27.4990   22.7740   58.0140 O.3       1 AP9401      0.0000 
      2 C15        28.4380   22.0740   58.8400 C.3       1 AP9401      0.0000 
      3 C12        29.8230   22.1260   58.1860 C.3       1 AP9401      0.0000 
      4 C13        30.4190   20.7610   57.8500 C.3       1 AP9401      0.0000 
      5 C14        31.8920   20.9050   57.4820 C.3       1 AP9401      0.0000 
      6 C16        29.6500   20.0820   56.7200 C.3       1 AP9401      0.0000 
      7 N2         30.7740   22.9020   58.9760 N.pl3     1 AP9401      0.0000 
      8 C2         30.9780   22.8650   60.3210 C.ar      1 AP9401      0.0000 
      9 N3         31.8580   23.7890   60.7880 N.ar      1 AP9401      0.0000 
     10 C4         32.1810   23.8960   62.0980 C.ar      1 AP9401      0.0000 
     11 C5         31.5440   22.9630   63.0390 C.ar      1 AP9401      0.0000 
     12 N7         32.0290   23.2780   64.2540 N.2       1 AP9401      0.0000 
     13 C8         32.8930   24.3140   64.1050 C.2       1 AP9401      0.0000 
     14 N9         32.9950   24.6910   62.8170 N.pl3     1 AP9401      0.0000 
     15 C9         33.8670   25.8130   62.3340 C.3       1 AP9401      0.0000 
     16 C10        33.3530   27.0990   62.9770 C.3       1 AP9401      0.0000 
     17 C11        33.7960   26.0270   60.8190 C.3       1 AP9401      0.0000 
     18 C6         30.5920   21.9480   62.4950 C.ar      1 AP9401      0.0000 
     19 N1         30.3580   21.9660   61.1510 N.ar      1 AP9401      0.0000 
     20 N6         29.9800   21.0910   63.3560 N.pl3     1 AP9401      0.0000 
     21 C1A        29.6030   19.8100   63.1530 C.ar      1 AP9401      0.0000 
     22 C2A        30.1820   18.8130   63.9450 C.ar      1 AP9401      0.0000 
     23 C3A        29.8090   17.4750   63.8060 C.ar      1 AP9401      0.0000 
     24 N10        30.3920   16.5260   64.5730 N.pl3     1 AP9401      0.0000 
     25 C4A        28.8350   17.1250   62.8750 C.ar      1 AP9401      0.0000 
     26 C5A        28.2440   18.1190   62.0910 C.ar      1 AP9401      0.0000 
     27 CL1        27.2030   17.7230   61.0850 Cl        1 AP9401      0.0000 
     28 C6A        28.6150   19.4640   62.2290 C.ar      1 AP9401      0.0000 
     29 H          28.1659   21.0225   58.9620 H         1 AP9401      0.0000 
     30 H          28.5204   22.5249   59.8322 H         1 AP9401      0.0000 
     31 H          29.6916   22.6577   57.2046 H         1 AP9401      0.0000 
     32 H          30.3522   20.1324   58.7360 H         1 AP9401      0.0000 
     33 H          31.3750   23.5809   58.3859 H         1 AP9401      0.0000 
     34 H          33.3815   24.7334   64.8504 H         1 AP9401      0.0000 
     35 H          34.8741   25.6705   62.6309 H         1 AP9401      0.0000 
     36 H          29.7635   21.5015   64.3556 H         1 AP9401      0.0000 
     37 H          30.8976   19.0724   64.6443 H         1 AP9401      0.0000 
     38 H          31.2309   16.1206   64.2097 H         1 AP9401      0.0000 
     39 H          29.9326   16.3138   65.4355 H         1 AP9401      0.0000 
     40 H          28.5524   16.1477   62.7640 H         1 AP9401      0.0000 
     41 H          28.1657   20.1813   61.6584 H         1 AP9401      0.0000 
     42 H          32.4250   21.2995   58.2305 H         1 AP9401      0.0000 
     43 H          32.3072   20.0229   57.2598 H         1 AP9401      0.0000 
     44 H          32.0199   21.4978   56.6869 H         1 AP9401      0.0000 
     45 H          29.6613   20.6283   55.8825 H         1 AP9401      0.0000 
     46 H          30.0366   19.1883   56.4923 H         1 AP9401      0.0000 
     47 H          28.6907   19.9337   56.9603 H         1 AP9401      0.0000 
     48 H          33.3931   27.0568   63.9753 H         1 AP9401      0.0000 
     49 H          33.8890   27.8949   62.6955 H         1 AP9401      0.0000 
     50 H          32.4019   27.2836   62.7294 H         1 AP9401      0.0000 
     51 H          34.3833   26.7800   60.5224 H         1 AP9401      0.0000 
     52 H          34.0856   25.2133   60.3150 H         1 AP9401      0.0000 
     53 H          32.8674   26.2434   60.5176 H         1 AP9401      0.0000 
     54 H          26.8026   23.1147   58.6456 H         1 AP9401      0.0000 
@<TRIPOS>BOND
     1    2    1 1    
     2   54    1 1    
     3    3    2 1    
     4   29    2 1    
     5   30    2 1    
     6    4    3 1    
     7    7    3 1    
     8   31    3 1    
     9    5    4 1    
    10    6    4 1    
    11   32    4 1    
    12   42    5 1    
    13   43    5 1    
    14   44    5 1    
    15   45    6 1    
    16   46    6 1    
    17   47    6 1    
    18    8    7 1    
    19   33    7 1    
    20    9    8 ar   
    21   19    8 ar   
    22   10    9 ar   
    23   11   10 ar   
    24   14   10 1    
    25   12   11 1    
    26   18   11 ar   
    27   13   12 2    
    28   14   13 1    
    29   34   13 1    
    30   15   14 1    
    31   16   15 1    
    32   17   15 1    
    33   35   15 1    
    34   48   16 1    
    35   49   16 1    
    36   50   16 1    
    37   51   17 1    
    38   52   17 1    
    39   53   17 1    
    40   19   18 ar   
    41   20   18 1    
    42   21   20 1    
    43   36   20 1    
    44   22   21 ar   
    45   28   21 ar   
    46   23   22 ar   
    47   37   22 1    
    48   24   23 1    
    49   25   23 ar   
    50   38   24 1    
    51   39   24 1    
    52   26   25 ar   
    53   40   25 1    
    54   27   26 1    
    55   28   26 ar   
    56   41   28 1    
@<TRIPOS>SUBSTRUCTURE
     1 AP9401      1 GROUP   
@<TRIPOS>SET

