#    Name: 1t0i_FMN_2_INTS_M
#    Modification time : Tue Mar 25 04:04:08 2014

@<TRIPOS>MOLECULE
1t0i_FMN_2_INTS_M
   72     0     9     0     0
SMALL
NO_CHARGES


@<TRIPOS>ATOM
      1 N          14.5515  103.2460   18.5005 N.am      1 SEC2        0.0000 
      2 N          16.0240  103.0450   18.8680 N.am      7 SEL2        0.0000 
      3 N          13.0790  103.4470   18.1330 N.am      4 SEP2        0.0000 
      4 N          21.5630  101.8695   18.3585 N.am      1 SEC2        0.0000 
      5 N          20.2580  101.6690   19.2830 N.am      7 SEL2        0.0000 
      6 N          22.8680  102.0700   17.4340 N.am      4 SEP2        0.0000 
      7 N          20.8015   99.2245   18.9645 N.am      1 SEC2        0.0000 
      8 N          19.5500   99.0780   19.6770 N.am      7 SEL2        0.0000 
      9 N          22.0530   99.3710   18.2520 N.am      4 SEP2        0.0000 
     10 CA         18.4455   95.3590   21.6655 C.3       3 GLC5        0.0000 
     11 CA         19.6500   95.4080   19.8000 C.3       9 GLL5        0.0000 
     12 CA         17.2410   95.3100   23.5310 C.3       6 GLP5        0.0000 
     13 CA         20.5180   96.0185   17.9750 C.3       3 GLC5        0.0000 
     14 CA         21.3860   96.6290   16.1500 C.3       6 GLP5        0.0000 
     15 CA         22.4650   93.8815   18.7010 C.3       3 GLC5        0.0000 
     16 CA         20.7090   94.4230   19.3820 C.3       9 GLL5        0.0000 
     17 CA         24.2210   93.3400   18.0200 C.3       6 GLP5        0.0000 
     18 CA         20.4885   95.0480   17.5785 C.3       3 GLC5        0.0000 
     19 CA         20.2680   95.6730   15.7750 C.3       6 GLP5        0.0000 
     20 CA         17.1370   92.1690   18.2260 C.3       3 GLC5        0.0000 
     21 CA         17.8750   93.7130   19.2130 C.3       9 GLL5        0.0000 
     22 CA         16.3990   90.6250   17.2390 C.3       6 GLP5        0.0000 
     23 CA         17.9005   94.3940   17.4600 C.3       3 GLC5        0.0000 
     24 CA         17.9260   95.0750   15.7070 C.3       6 GLP5        0.0000 
     25 CA         13.9085   98.6385   20.8125 C.3       3 GLC5        0.0000 
     26 CA         15.4620   98.2550   19.5800 C.3       9 GLL5        0.0000 
     27 CA         12.3550   99.0220   22.0450 C.3       6 GLP5        0.0000 
     28 CA         13.2910   99.3180   19.2325 C.3       3 GLC5        0.0000 
     29 CA         14.6930   98.0140   18.2910 C.3       9 GLL5        0.0000 
     30 CA         11.8890  100.6220   20.1740 C.3       6 GLP5        0.0000 
     31 CA         12.9530   98.0200   20.2500 C.3       3 GLC5        0.0000 
     32 CA         13.5510   97.0180   18.4550 C.3       9 GLL5        0.0000 
     33 CA         11.0075   95.9730   16.5350 C.3       3 GLC5        0.0000 
     34 CA         13.0970   96.5200   17.0880 C.3       9 GLL5        0.0000 
     35 CA          8.9180   95.4260   15.9820 C.3       6 GLP5        0.0000 
     36 CA         11.6950   98.0825   16.7755 C.3       3 GLC5        0.0000 
     37 CA         10.2930   99.6450   16.4630 C.3       6 GLP5        0.0000 
     38 CA         15.0220   96.3450   14.8260 C.3       3 GLC5        0.0000 
     39 CA         14.1780   95.6750   16.4220 C.3       9 GLL5        0.0000 
     40 CA         15.8660   97.0150   13.2300 C.3       6 GLP5        0.0000 
     41 CA         16.0520   95.3750   16.0645 C.3       3 GLC5        0.0000 
     42 N          14.0200   92.8300   13.0655 N.am      1 SEC2        0.0000 
     43 N          12.8860   94.0130   13.2520 N.am      7 SEL2        0.0000 
     44 N          15.1540   91.6470   12.8790 N.am      4 SEP2        0.0000 
     45 N          11.3915   93.5395   13.7935 N.am      1 SEC2        0.0000 
     46 N           9.8970   93.0660   14.3350 N.am      4 SEP2        0.0000 
     47 N          12.9215   94.9400   12.3790 N.am      1 SEC2        0.0000 
     48 N          12.9570   95.8670   11.5060 N.am      4 SEP2        0.0000 
     49 N          14.9275   92.3570   13.7570 N.am      1 SEC2        0.0000 
     50 N          14.7010   93.0670   14.6350 N.am      7 SEL2        0.0000 
     51 N          14.9425   92.2520   15.9620 N.am      1 SEC2        0.0000 
     52 N          15.1840   91.4370   17.2890 N.am      4 SEP2        0.0000 
     53 N          15.9755   93.0365   14.6830 N.am      1 SEC2        0.0000 
     54 N          17.2500   93.0060   14.7310 N.am      4 SEP2        0.0000 
     55 NZ         12.8925   92.9180   16.9540 N.4       2 LYC4        0.0000 
     56 NZ         12.3980   93.4010   15.5980 N.4       8 LYL4        0.0000 
     57 NZ         14.4760   91.6840   18.3860 N.4       5 LYP4        0.0000 
     58 N          12.8925   92.9180   16.9540 N.am      1 SEC2        0.0000 
     59 N          12.3980   93.4010   15.5980 N.am      7 SEL2        0.0000 
     60 N          13.3870   92.4350   18.3100 N.am      4 SEP2        0.0000 
     61 N          11.1475   93.2335   14.9665 N.am      1 SEC2        0.0000 
     62 CA         19.7993   93.7862   21.3245 C.3       3 GLC5        0.0000 
     63 CA         19.4190   92.6570   23.0580 C.3       6 GLP5        0.0000 
     64 CA         18.7550   93.5343   21.2228 C.3       3 GLC5        0.0000 
     65 CA         16.5570   94.4926   20.4124 C.3       3 GLC5        0.0000 
     66 CA         18.3070   95.1100   19.5620 C.3       9 GLL5        0.0000 
     67 CA         15.3710   93.7100   21.4530 C.3       6 GLP5        0.0000 
     68 CA         19.8239   97.7007   18.0557 C.3       3 GLC5        0.0000 
     69 CA         17.8020   97.4680   19.3890 C.3       9 GLL5        0.0000 
     70 CA         20.9500   98.0420   16.5430 C.3       6 GLP5        0.0000 
     71 CA         13.0087   96.9102   14.8170 C.3       3 GLC5        0.0000 
     72 CA         12.3800   97.7230   12.8790 C.3       6 GLP5        0.0000 
@<TRIPOS>BOND
@<TRIPOS>SUBSTRUCTURE
     1 SEC2        1 GROUP        1 X    SEC  0     ROOT SEC X 2
     2 LYC4       55 GROUP        1 X    LYC  0     **** LYC X 4
     3 GLC5       10 GROUP        1 X    GLC  0     **** GLC X 6
     4 SEP2        3 GROUP        1 Y    SEP  0     ROOT SEP Y 9
     5 LYP4       57 GROUP        1 Y    LYP  0     **** LYP Y 11
     6 GLP5       12 GROUP        1 Y    GLP  0     **** GLP Y 13
     7 SEL2        2 GROUP        1 Z    SEL  0     ROOT SEL Z 16
     8 LYL4       56 GROUP        1 Z    LYL  0     **** LYL Z 18
     9 GLL5       11 GROUP        1 Z    GLL  0     **** GLL Z 20
@<TRIPOS>SET

