#    Name: 1t0i_FMN_2_ligand
#    Modification time : Tue Mar 25 04:04:09 2014

@<TRIPOS>MOLECULE
1t0i_FMN_2_ligand
   50    52     1     0     0
SMALL
NO_CHARGES


@<TRIPOS>ATOM
      1 N1         16.4150  100.8240   19.0140 N.2       1 FMN200      0.0000 
      2 C2         16.8330  102.1380   19.0540 C.2       1 FMN200      0.0000 
      3 O2         16.0240  103.0450   18.8680 O.2       1 FMN200      0.0000 
      4 N3         18.1560  102.4430   19.2950 N.am      1 FMN200      0.0000 
      5 C4         19.0720  101.4290   19.5020 C.2       1 FMN200      0.0000 
      6 O4         20.2580  101.6690   19.2830 O.2       1 FMN200      0.0000 
      7 C4A        18.6500  100.1030   19.4700 C.2       1 FMN200      0.0000 
      8 N5         19.5500   99.0780   19.6770 N.2       1 FMN200      0.0000 
      9 C5A        19.1350   97.7620   19.6340 C.ar      1 FMN200      0.0000 
     10 C6         20.0520   96.7400   19.8620 C.ar      1 FMN200      0.0000 
     11 C7         19.6500   95.4080   19.8000 C.ar      1 FMN200      0.0000 
     12 C7M        20.7090   94.4230   19.3820 C.3       1 FMN200      0.0000 
     13 C8         18.3070   95.1100   19.5620 C.ar      1 FMN200      0.0000 
     14 C8M        17.8750   93.7130   19.2130 C.3       1 FMN200      0.0000 
     15 C9         17.3950   96.1390   19.3560 C.ar      1 FMN200      0.0000 
     16 C9A        17.8020   97.4680   19.3890 C.ar      1 FMN200      0.0000 
     17 N10        16.8910   98.4920   19.1950 N.pl3     1 FMN200      0.0000 
     18 C10        17.3200   99.8030   19.2200 C.2       1 FMN200      0.0000 
     19 C1'        15.4620   98.2550   19.5800 C.3       1 FMN200      0.0000 
     20 C2'        14.6930   98.0140   18.2910 C.3       1 FMN200      0.0000 
     21 O2'        14.1770   99.2440   17.8310 O.3       1 FMN200      0.0000 
     22 C3'        13.5510   97.0180   18.4550 C.3       1 FMN200      0.0000 
     23 O3'        13.9520   95.9190   19.2420 O.3       1 FMN200      0.0000 
     24 C4'        13.0970   96.5200   17.0880 C.3       1 FMN200      0.0000 
     25 O4'        11.9230   95.7530   17.2290 O.3       1 FMN200      0.0000 
     26 C5'        14.1780   95.6750   16.4220 C.3       1 FMN200      0.0000 
     27 O5'        13.8350   95.4440   15.0780 O.3       1 FMN200      0.0000 
     28 P          13.4450   93.9560   14.6190 P.3       1 FMN200      0.0000 
     29 O1P        12.8860   94.0130   13.2520 O.co2     1 FMN200      0.0000 
     30 O2P        14.7010   93.0670   14.6350 O.co2     1 FMN200      0.0000 
     31 O3P        12.3980   93.4010   15.5980 O.co2     1 FMN200      0.0000 
     32 H          18.4634  103.4273   19.3211 H         1 FMN200      0.0000 
     33 H          21.0326   96.9695   20.0776 H         1 FMN200      0.0000 
     34 H          16.4022   95.9132   19.1761 H         1 FMN200      0.0000 
     35 H          15.0620   99.1219   20.0770 H         1 FMN200      0.0000 
     36 H          15.3856   97.3847   20.2088 H         1 FMN200      0.0000 
     37 H          15.3917   97.6017   17.5585 H         1 FMN200      0.0000 
     38 H          12.7135   97.5427   18.9054 H         1 FMN200      0.0000 
     39 H          12.9212   97.3888   16.4588 H         1 FMN200      0.0000 
     40 H          14.2675   94.7421   16.9953 H         1 FMN200      0.0000 
     41 H          15.1286   96.2167   16.5221 H         1 FMN200      0.0000 
     42 H          21.0689   94.6285   18.4719 H         1 FMN200      0.0000 
     43 H          21.4860   94.4237   20.0115 H         1 FMN200      0.0000 
     44 H          20.3558   93.4879   19.3533 H         1 FMN200      0.0000 
     45 H          18.3135   93.3870   18.3755 H         1 FMN200      0.0000 
     46 H          18.1041   93.0618   19.9365 H         1 FMN200      0.0000 
     47 H          16.8872   93.6549   19.0684 H         1 FMN200      0.0000 
     48 H          14.6655   99.9416   18.3552 H         1 FMN200      0.0000 
     49 H          13.1031   95.4457   19.4770 H         1 FMN200      0.0000 
     50 H          12.1794   94.8315   16.9373 H         1 FMN200      0.0000 
@<TRIPOS>BOND
     1    2    1 1    
     2   18    1 2    
     3    3    2 2    
     4    4    2 am   
     5    5    4 am   
     6   32    4 1    
     7    6    5 2    
     8    7    5 1    
     9    8    7 2    
    10   18    7 1    
    11    9    8 1    
    12   10    9 ar   
    13   16    9 ar   
    14   11   10 ar   
    15   33   10 1    
    16   12   11 1    
    17   13   11 ar   
    18   42   12 1    
    19   43   12 1    
    20   44   12 1    
    21   14   13 1    
    22   15   13 ar   
    23   45   14 1    
    24   46   14 1    
    25   47   14 1    
    26   16   15 ar   
    27   34   15 1    
    28   17   16 1    
    29   18   17 1    
    30   19   17 1    
    31   20   19 1    
    32   35   19 1    
    33   36   19 1    
    34   21   20 1    
    35   22   20 1    
    36   37   20 1    
    37   48   21 1    
    38   23   22 1    
    39   24   22 1    
    40   38   22 1    
    41   49   23 1    
    42   25   24 1    
    43   26   24 1    
    44   39   24 1    
    45   50   25 1    
    46   27   26 1    
    47   40   26 1    
    48   41   26 1    
    49   28   27 1    
    50   29   28 ar   
    51   30   28 ar   
    52   31   28 ar   
@<TRIPOS>SUBSTRUCTURE
     1 FMN200      1 GROUP   
@<TRIPOS>SET

