#    Name: 2ggs_NDP_1_INTS_M
#    Modification time : Tue Mar 25 14:25:07 2014

@<TRIPOS>MOLECULE
2ggs_NDP_1_INTS_M
  118     0    12     0     0
SMALL
NO_CHARGES


@<TRIPOS>ATOM
      1 NZ         -9.0650   31.5095   33.8345 N.4       3 LYC4        0.0000 
      2 NZ         -8.8750   32.0340   32.5630 N.4      11 LYL4        0.0000 
      3 NZ         -9.2550   30.9850   35.1060 N.4       7 LYP4        0.0000 
      4 N          -7.5505   32.2200   33.0695 N.am      2 SEC2        0.0000 
      5 N          -8.8750   32.0340   32.5630 N.am     10 SEL2        0.0000 
      6 N          -6.2260   32.4060   33.5760 N.am      6 SEP2        0.0000 
      7 N          -9.0650   31.5095   33.8345 N.am      2 SEC2        0.0000 
      8 N          -9.2550   30.9850   35.1060 N.am      6 SEP2        0.0000 
      9 N          -7.7555   31.0740   32.0670 N.am      2 SEC2        0.0000 
     10 N          -6.6360   30.1140   31.5710 N.am      6 SEP2        0.0000 
     11 NZ        -10.1985   32.0080   33.8775 N.4       3 LYC4        0.0000 
     12 NZ        -11.1420   33.0310   32.6490 N.4      11 LYL4        0.0000 
     13 N         -12.3870   33.7830   32.2645 N.am      2 SEC2        0.0000 
     14 N         -11.1420   33.0310   32.6490 N.am     10 SEL2        0.0000 
     15 N         -13.6320   34.5350   31.8800 N.am      6 SEP2        0.0000 
     16 CA         -8.9035   32.2920   26.7420 C.3       4 GLC5        0.0000 
     17 CA         -9.8960   31.4690   28.3270 C.3      12 GLL5        0.0000 
     18 CA         -7.9110   33.1150   25.1570 C.3       8 GLP5        0.0000 
     19 N          -7.5605   31.6765   27.0995 N.am      2 SEC2        0.0000 
     20 N          -8.8900   30.9990   27.4260 N.am     10 SEL2        0.0000 
     21 N          -6.2310   32.3540   26.7730 N.am      6 SEP2        0.0000 
     22 O         -13.1780   29.9345   27.5005 O.2       1 ALC1        0.0000 
     23 O         -12.0730   30.8220   27.6400 O.2       9 ALL1        0.0000 
     24 O         -14.2830   29.0470   27.3610 O.2       5 ALP1        0.0000 
     25 CA        -10.5255   31.2945   26.0110 C.3       4 GLC5        0.0000 
     26 CA         -9.4410   29.8490   26.8020 C.3      12 GLL5        0.0000 
     27 CA        -11.6100   32.7400   25.2200 C.3       8 GLP5        0.0000 
     28 CA         -8.7095   30.9750   25.3955 C.3       4 GLC5        0.0000 
     29 CA         -7.9780   32.1010   23.9890 C.3       8 GLP5        0.0000 
     30 CA         -6.4820   27.7650   22.1475 C.3       4 GLC5        0.0000 
     31 CA         -6.8380   26.8220   24.0320 C.3      12 GLL5        0.0000 
     32 CA         -6.1260   28.7080   20.2630 C.3       8 GLP5        0.0000 
     33 O          -5.7070   25.0220   22.8465 O.2       1 ALC1        0.0000 
     34 O          -5.7800   25.9640   24.0390 O.2       9 ALL1        0.0000 
     35 O          -5.6340   24.0800   21.6540 O.2       5 ALP1        0.0000 
     36 N          -7.3595   26.6470   21.6095 N.am      2 SEC2        0.0000 
     37 N          -7.7250   26.8860   22.9920 N.am     10 SEL2        0.0000 
     38 N          -6.9940   26.4080   20.2270 N.am      6 SEP2        0.0000 
     39 CA         -9.7550   26.3200   23.7525 C.3       4 GLC5        0.0000 
     40 CA         -8.8750   27.6660   23.0030 C.3      12 GLL5        0.0000 
     41 CA        -10.6350   24.9740   24.5020 C.3       8 GLP5        0.0000 
     42 CA         -8.5455   26.0075   21.7680 C.3       4 GLC5        0.0000 
     43 CA         -8.2160   24.3490   20.5330 C.3       8 GLP5        0.0000 
     44 CA         -8.7055   28.4590   21.3040 C.3       4 GLC5        0.0000 
     45 CA         -8.5360   29.2520   19.6050 C.3       8 GLP5        0.0000 
     46 CA         -8.1470   30.2175   24.5840 C.3       4 GLC5        0.0000 
     47 CA         -8.3160   28.3340   25.1790 C.3      12 GLL5        0.0000 
     48 N         -12.2840   36.6300   31.0730 N.am      2 SEC2        0.0000 
     49 N         -10.9370   35.9690   31.1730 N.am     10 SEL2        0.0000 
     50 N         -13.6310   37.2910   30.9730 N.am      6 SEP2        0.0000 
     51 N         -10.2020   36.1690   34.4655 N.am      2 SEC2        0.0000 
     52 N          -9.3840   36.0920   33.1940 N.am     10 SEL2        0.0000 
     53 N         -11.0200   36.2460   35.7370 N.am      6 SEP2        0.0000 
     54 CA        -10.6330   38.0085   29.5950 C.3       4 GLC5        0.0000 
     55 CA         -8.7970   37.1060   29.6630 C.3      12 GLL5        0.0000 
     56 CA        -12.4690   38.9110   29.5270 C.3       8 GLP5        0.0000 
     57 CA         -9.6195   37.0910   27.6570 C.3       4 GLC5        0.0000 
     58 CA        -10.4420   37.0760   25.6510 C.3       8 GLP5        0.0000 
     59 CA         -8.3180   37.2220   27.0390 C.3       4 GLC5        0.0000 
     60 CA         -7.5610   37.7260   29.0240 C.3      12 GLL5        0.0000 
     61 CA         -9.0750   36.7180   25.0540 C.3       8 GLP5        0.0000 
     62 CA         -7.3005   39.4060   28.2425 C.3       4 GLC5        0.0000 
     63 CA         -7.0400   41.0860   27.4610 C.3       8 GLP5        0.0000 
     64 N          -4.3765   37.2485   27.2745 N.am      2 SEC2        0.0000 
     65 N          -5.7580   37.2200   27.6660 N.am     10 SEL2        0.0000 
     66 N          -2.9950   37.2770   26.8830 N.am      6 SEP2        0.0000 
     67 CA         -3.6795   37.2690   28.9105 C.3       4 GLC5        0.0000 
     68 CA         -5.5140   37.0060   30.0300 C.3      12 GLL5        0.0000 
     69 CA         -1.8450   37.5320   27.7910 C.3       8 GLP5        0.0000 
     70 N          -3.5850   36.9560   28.3165 N.am      2 SEC2        0.0000 
     71 N          -4.1750   36.6350   29.7500 N.am     10 SEL2        0.0000 
     72 O          -3.4275   36.7865   30.8990 O.2       1 ALC1        0.0000 
     73 O          -4.1750   36.6350   29.7500 O.2       9 ALL1        0.0000 
     74 O          -2.6800   36.9380   32.0480 O.2       5 ALP1        0.0000 
     75 CA         -6.3770   39.8100   28.8215 C.3       4 GLC5        0.0000 
     76 CA         -5.7140   38.5340   30.1820 C.3      12 GLL5        0.0000 
     77 CA         -7.4685   39.3450   31.0405 C.3       4 GLC5        0.0000 
     78 CA         -9.2230   40.1560   31.8990 C.3       8 GLP5        0.0000 
     79 CA         -7.6095   39.2105   32.2395 C.3       4 GLC5        0.0000 
     80 CA         -5.9960   38.2650   32.5800 C.3      12 GLL5        0.0000 
     81 CA         -5.8660   40.8065   35.9890 C.3       4 GLC5        0.0000 
     82 CA         -5.1920   39.9940   34.2340 C.3      12 GLL5        0.0000 
     83 CA         -6.5400   41.6190   37.7440 C.3       8 GLP5        0.0000 
     84 N         -13.6915   27.8965   27.3430 N.am      2 SEC2        0.0000 
     85 N         -13.1000   26.7460   27.3250 N.am     10 SEL2        0.0000 
     86 N         -14.2830   29.0470   27.3610 N.am      6 SEP2        0.0000 
     87 N         -12.9955   26.3065   25.9095 N.am      2 SEC2        0.0000 
     88 N         -12.8910   25.8670   24.4940 N.am      6 SEP2        0.0000 
     89 N         -13.7620   25.5300   27.7500 N.am      2 SEC2        0.0000 
     90 N         -14.4240   24.3140   28.1750 N.am      6 SEP2        0.0000 
     91 N         -11.4885   24.7860   27.1985 N.am      2 SEC2        0.0000 
     92 N         -10.7970   25.8500   27.8400 N.am     10 SEL2        0.0000 
     93 N         -12.1800   23.7220   26.5570 N.am      6 SEP2        0.0000 
     94 CA        -11.0285   31.8445   26.8042 C.3       4 GLC5        0.0000 
     95 CA        -10.9980   30.4290   28.4500 C.3      12 GLL5        0.0000 
     96 CA        -12.0120   31.8165   29.3458 C.3       4 GLC5        0.0000 
     97 CA        -13.5770   32.6840   30.3030 C.3       8 GLP5        0.0000 
     98 CA         -9.1438   26.3708   24.6960 C.3       4 GLC5        0.0000 
     99 CA         -7.1400   27.5800   25.1700 C.3      12 GLL5        0.0000 
    100 CA         -6.0178   28.5572   24.1050 C.3       4 GLC5        0.0000 
    101 CA         -4.3830   29.3470   23.3200 C.3       8 GLP5        0.0000 
    102 CA         -8.7010   38.7860   30.6212 C.3       4 GLC5        0.0000 
    103 CA         -5.2230   35.2730   28.7048 C.3       4 GLC5        0.0000 
    104 CA         -6.3940   36.7620   28.8290 C.3      12 GLL5        0.0000 
    105 CA         -4.4920   33.6620   27.9800 C.3       8 GLP5        0.0000 
    106 CA         -5.7610   35.3135   30.5527 C.3       4 GLC5        0.0000 
    107 CA         -5.5680   33.7430   31.6760 C.3       8 GLP5        0.0000 
    108 CA         -7.3643   40.1005   33.6815 C.3       4 GLC5        0.0000 
    109 CA         -5.9290   38.7120   33.8920 C.3      12 GLL5        0.0000 
    110 CA         -9.1680   40.8480   33.3000 C.3       8 GLP5        0.0000 
    111 CA         -4.8753   42.1308   34.4340 C.3       4 GLC5        0.0000 
    112 CA         -4.8760   43.9260   35.2280 C.3       8 GLP5        0.0000 
    113 CA         -2.9015   40.3642   31.9315 C.3       4 GLC5        0.0000 
    114 CA         -4.5570   40.6770   33.0460 C.3      12 GLL5        0.0000 
    115 CA         -1.1670   40.3240   31.4570 C.3       8 GLP5        0.0000 
    116 CA         -5.7205   41.7122   31.7305 C.3       4 GLC5        0.0000 
    117 CA         -4.7150   40.1320   31.7660 C.3      12 GLL5        0.0000 
    118 CA         -6.8050   43.0200   31.0550 C.3       8 GLP5        0.0000 
@<TRIPOS>BOND
@<TRIPOS>SUBSTRUCTURE
     1 ALC1       22 GROUP        1 X    ALC  0     ROOT ALC X 1
     2 SEC2        4 GROUP        1 X    SEC  0     **** SEC X 2
     3 LYC4        1 GROUP        1 X    LYC  0     **** LYC X 4
     4 GLC5       16 GROUP        1 X    GLC  0     **** GLC X 6
     5 ALP1       24 GROUP        1 Y    ALP  0     ROOT ALP Y 8
     6 SEP2        6 GROUP        1 Y    SEP  0     **** SEP Y 9
     7 LYP4        3 GROUP        1 Y    LYP  0     **** LYP Y 11
     8 GLP5       18 GROUP        1 Y    GLP  0     **** GLP Y 13
     9 ALL1       23 GROUP        1 Z    ALL  0     ROOT ALL Z 15
    10 SEL2        5 GROUP        1 Z    SEL  0     **** SEL Z 16
    11 LYL4        2 GROUP        1 Z    LYL  0     **** LYL Z 18
    12 GLL5       17 GROUP        1 Z    GLL  0     **** GLL Z 20
@<TRIPOS>SET

