#    Name: 2ggs_NDP_1_ligand
#    Modification time : Tue Mar 25 14:25:07 2014

@<TRIPOS>MOLECULE
2ggs_NDP_1_ligand
   74    78     1     0     0
SMALL
NO_CHARGES


@<TRIPOS>ATOM
      1 PA         -9.8710   32.8900   31.8990 P.3       1 NDP900      0.0000 
      2 O1A        -8.8750   32.0340   32.5630 O.co2     1 NDP900      0.0000 
      3 O2A       -11.1420   33.0310   32.6490 O.co2     1 NDP900      0.0000 
      4 O5B       -10.2130   32.3780   30.4440 O.3       1 NDP900      0.0000 
      5 C5B        -9.2160   31.7800   29.6350 C.3       1 NDP900      0.0000 
      6 C4B        -9.8960   31.4690   28.3270 C.3       1 NDP900      0.0000 
      7 O4B        -8.8900   30.9990   27.4260 O.3       1 NDP900      0.0000 
      8 C3B       -10.9980   30.4290   28.4500 C.3       1 NDP900      0.0000 
      9 O3B       -12.0730   30.8220   27.6400 O.3       1 NDP900      0.0000 
     10 C2B       -10.3130   29.1890   27.8610 C.3       1 NDP900      0.0000 
     11 O2B       -11.2900   28.3730   27.2890 O.3       1 NDP900      0.0000 
     12 C1B        -9.4410   29.8490   26.8020 C.3       1 NDP900      0.0000 
     13 N9A        -8.3540   28.9600   26.3800 N.pl3     1 NDP900      0.0000 
     14 C8A        -7.2680   28.5820   27.1100 C.2       1 NDP900      0.0000 
     15 N7A        -6.5200   27.7290   26.3530 N.2       1 NDP900      0.0000 
     16 C5A        -7.1400   27.5800   25.1700 C.ar      1 NDP900      0.0000 
     17 C6A        -6.8380   26.8220   24.0320 C.ar      1 NDP900      0.0000 
     18 N6A        -5.7800   25.9640   24.0390 N.pl3     1 NDP900      0.0000 
     19 N1A        -7.7250   26.8860   22.9920 N.ar      1 NDP900      0.0000 
     20 C2A        -8.8750   27.6660   23.0030 C.ar      1 NDP900      0.0000 
     21 N3A        -9.1700   28.3930   24.1310 N.ar      1 NDP900      0.0000 
     22 C4A        -8.3160   28.3340   25.1790 C.ar      1 NDP900      0.0000 
     23 O3         -9.0580   34.2690   31.6370 O.3       1 NDP900      0.0000 
     24 PN         -9.6330   35.7800   31.7680 P.3       1 NDP900      0.0000 
     25 O1N       -10.9370   35.9690   31.1730 O.co2     1 NDP900      0.0000 
     26 O2N        -9.3840   36.0920   33.1940 O.co2     1 NDP900      0.0000 
     27 O5D        -8.5010   36.5500   30.9400 O.3       1 NDP900      0.0000 
     28 C5D        -8.7970   37.1060   29.6630 C.3       1 NDP900      0.0000 
     29 C4D        -7.5610   37.7260   29.0240 C.3       1 NDP900      0.0000 
     30 O4D        -7.0930   38.7490   29.8720 O.3       1 NDP900      0.0000 
     31 C3D        -6.3940   36.7620   28.8290 C.3       1 NDP900      0.0000 
     32 O3D        -5.7580   37.2200   27.6660 O.3       1 NDP900      0.0000 
     33 C2D        -5.5140   37.0060   30.0300 C.3       1 NDP900      0.0000 
     34 O2D        -4.1750   36.6350   29.7500 O.3       1 NDP900      0.0000 
     35 C1D        -5.7140   38.5340   30.1820 C.3       1 NDP900      0.0000 
     36 N1N        -5.4180   38.9630   31.5540 N.pl3     1 NDP900      0.0000 
     37 C2N        -5.9960   38.2650   32.5800 C.2       1 NDP900      0.0000 
     38 C3N        -5.9290   38.7120   33.8920 C.2       1 NDP900      0.0000 
     39 C7N        -6.5850   37.9060   34.9660 C.2       1 NDP900      0.0000 
     40 O7N        -6.3200   38.2270   36.3120 O.2       1 NDP900      0.0000 
     41 N7N        -7.3900   36.8970   34.6400 N.am      1 NDP900      0.0000 
     42 C4N        -5.1920   39.9940   34.2340 C.3       1 NDP900      0.0000 
     43 C5N        -4.5570   40.6770   33.0460 C.2       1 NDP900      0.0000 
     44 C6N        -4.7150   40.1320   31.7660 C.2       1 NDP900      0.0000 
     45 P2B       -11.8290   26.9910   28.0330 P.3       1 NDP900      0.0000 
     46 O1X       -13.1000   26.7460   27.3250 O.co2     1 NDP900      0.0000 
     47 O2X       -11.9830   27.2540   29.4930 O.co2     1 NDP900      0.0000 
     48 O3X       -10.7970   25.8500   27.8400 O.co2     1 NDP900      0.0000 
     49 H          -8.8468   30.8548   30.0583 H         1 NDP900      0.0000 
     50 H          -8.3898   32.4517   29.4410 H         1 NDP900      0.0000 
     51 H         -10.3312   32.3883   27.9417 H         1 NDP900      0.0000 
     52 H         -11.2069   30.2657   29.4470 H         1 NDP900      0.0000 
     53 H          -9.7151   28.7680   28.5907 H         1 NDP900      0.0000 
     54 H         -10.0606   30.1183   25.9779 H         1 NDP900      0.0000 
     55 H          -7.0634   28.8663   28.0032 H         1 NDP900      0.0000 
     56 H          -5.5963   25.4849   23.1807 H         1 NDP900      0.0000 
     57 H          -5.2802   25.8888   24.9019 H         1 NDP900      0.0000 
     58 H          -9.4857   27.6936   22.1832 H         1 NDP900      0.0000 
     59 H          -9.5684   37.8934   29.7315 H         1 NDP900      0.0000 
     60 H          -9.1852   36.3414   28.9669 H         1 NDP900      0.0000 
     61 H          -7.8312   38.1323   28.0600 H         1 NDP900      0.0000 
     62 H          -6.7421   35.8019   28.8012 H         1 NDP900      0.0000 
     63 H          -5.9546   36.5400   30.8617 H         1 NDP900      0.0000 
     64 H          -5.0804   39.0107   29.4739 H         1 NDP900      0.0000 
     65 H          -6.5011   37.3742   32.3790 H         1 NDP900      0.0000 
     66 H          -7.4791   36.7032   33.6630 H         1 NDP900      0.0000 
     67 H          -7.8330   36.4238   35.4015 H         1 NDP900      0.0000 
     68 H          -4.4101   39.7677   34.9829 H         1 NDP900      0.0000 
     69 H          -5.8980   40.6933   34.7197 H         1 NDP900      0.0000 
     70 H          -4.0328   41.5167   33.2242 H         1 NDP900      0.0000 
     71 H          -4.2871   40.6286   30.9569 H         1 NDP900      0.0000 
     72 H         -12.7407   30.0818   27.7192 H         1 NDP900      0.0000 
     73 H          -6.1879   38.1004   27.4657 H         1 NDP900      0.0000 
     74 H          -3.6944   36.7227   30.6225 H         1 NDP900      0.0000 
@<TRIPOS>BOND
     1    2    1 ar   
     2    3    1 ar   
     3    4    1 1    
     4   23    1 1    
     5    5    4 1    
     6    6    5 1    
     7   49    5 1    
     8   50    5 1    
     9    7    6 1    
    10    8    6 1    
    11   51    6 1    
    12   12    7 1    
    13    9    8 1    
    14   10    8 1    
    15   52    8 1    
    16   72    9 1    
    17   11   10 1    
    18   12   10 1    
    19   53   10 1    
    20   45   11 1    
    21   13   12 1    
    22   54   12 1    
    23   14   13 1    
    24   22   13 1    
    25   15   14 2    
    26   55   14 1    
    27   16   15 1    
    28   17   16 ar   
    29   22   16 ar   
    30   18   17 1    
    31   19   17 ar   
    32   56   18 1    
    33   57   18 1    
    34   20   19 ar   
    35   21   20 ar   
    36   58   20 1    
    37   22   21 ar   
    38   24   23 1    
    39   25   24 ar   
    40   26   24 ar   
    41   27   24 1    
    42   28   27 1    
    43   29   28 1    
    44   59   28 1    
    45   60   28 1    
    46   30   29 1    
    47   31   29 1    
    48   61   29 1    
    49   35   30 1    
    50   32   31 1    
    51   33   31 1    
    52   62   31 1    
    53   73   32 1    
    54   34   33 1    
    55   35   33 1    
    56   63   33 1    
    57   74   34 1    
    58   36   35 1    
    59   64   35 1    
    60   37   36 1    
    61   44   36 1    
    62   38   37 2    
    63   65   37 1    
    64   39   38 1    
    65   42   38 1    
    66   40   39 2    
    67   41   39 am   
    68   66   41 1    
    69   67   41 1    
    70   43   42 1    
    71   68   42 1    
    72   69   42 1    
    73   44   43 2    
    74   70   43 1    
    75   71   44 1    
    76   46   45 ar   
    77   47   45 ar   
    78   48   45 ar   
@<TRIPOS>SUBSTRUCTURE
     1 NDP900      1 GROUP   
@<TRIPOS>SET

