#    Name: 3ce3_1FN_1_INTS_M
#    Modification time : Mon Mar 24 20:58:53 2014

@<TRIPOS>MOLECULE
3ce3_1FN_1_INTS_M
   84     0     9     0     0
SMALL
NO_CHARGES


@<TRIPOS>ATOM
      1 CA         20.2535   21.9390   50.8775 C.3       3 GLC5        0.0000 
      2 CA         21.3710   20.9230   52.3980 C.3       9 GLL5        0.0000 
      3 CA         19.1360   22.9550   49.3570 C.3       6 GLP5        0.0000 
      4 CA         22.7435   11.8690   62.7895 C.3       3 GLC5        0.0000 
      5 CA         21.5490   10.8710   61.3510 C.3       9 GLL5        0.0000 
      6 CA         23.9380   12.8670   64.2280 C.3       6 GLP5        0.0000 
      7 N          24.0585   11.2365   62.0985 N.am      2 SEC2        0.0000 
      8 N          22.8200   11.2670   61.1320 N.am      8 SEL2        0.0000 
      9 N          25.2970   11.2060   63.0650 N.am      5 SEP2        0.0000 
     10 CA         24.9490   11.2655   60.6810 C.3       3 GLC5        0.0000 
     11 CA         23.2390   12.1540   60.1260 C.3       9 GLL5        0.0000 
     12 CA         26.6590   10.3770   61.2360 C.3       6 GLP5        0.0000 
     13 CA         20.5205   18.3490   58.7845 C.3       3 GLC5        0.0000 
     14 CA         20.0310   16.5250   57.8520 C.3       9 GLL5        0.0000 
     15 CA         21.0100   20.1730   59.7170 C.3       6 GLP5        0.0000 
     16 CA         21.9220   11.5250   56.6965 C.3       3 GLC5        0.0000 
     17 CA         20.1860   12.6880   56.0620 C.3       9 GLL5        0.0000 
     18 CA         23.6580   10.3620   57.3310 C.3       6 GLP5        0.0000 
     19 CA         20.1900   12.3290   54.3480 C.3       3 GLC5        0.0000 
     20 CA         20.1940   11.9700   52.6340 C.3       6 GLP5        0.0000 
     21 CA         21.6825   13.7895   55.4250 C.3       3 GLC5        0.0000 
     22 CA         23.1790   14.8910   54.7880 C.3       6 GLP5        0.0000 
     23 N          20.0525   20.5850   57.2195 N.am      2 SEC2        0.0000 
     24 N          21.1200   20.0560   56.4290 N.am      8 SEL2        0.0000 
     25 N          18.9850   21.1140   58.0100 N.am      5 SEP2        0.0000 
     26 CA         19.6895   10.9375   63.9990 C.3       3 GLC5        0.0000 
     27 CA         19.6860    9.9130   62.1750 C.3       9 GLL5        0.0000 
     28 CA         19.6930   11.9620   65.8230 C.3       6 GLP5        0.0000 
     29 O          22.1905   10.1095   63.6300 O.2       1 ALC1        0.0000 
     30 O          21.1120   10.0280   62.3290 O.2       7 ALL1        0.0000 
     31 O          23.2690   10.1910   64.9310 O.2       4 ALP1        0.0000 
     32 CA         24.4530   24.2920   58.6615 C.3       3 GLC5        0.0000 
     33 CA         22.9820   23.6210   57.5240 C.3       9 GLL5        0.0000 
     34 CA         25.9240   24.9630   59.7990 C.3       6 GLP5        0.0000 
     35 CA         23.4155   25.9430   56.7905 C.3       3 GLC5        0.0000 
     36 CA         22.1450   25.4620   58.3510 C.3       9 GLL5        0.0000 
     37 CA         24.6860   26.4240   55.2300 C.3       6 GLP5        0.0000 
     38 CA         24.0345   25.2125   59.0750 C.3       3 GLC5        0.0000 
     39 CA         22.4840   27.0820   59.1325 C.3       3 GLC5        0.0000 
     40 CA         22.8230   28.7020   59.9140 C.3       6 GLP5        0.0000 
     41 CA         21.7845   27.1495   57.0485 C.3       3 GLC5        0.0000 
     42 CA         21.4240   28.8370   55.7460 C.3       6 GLP5        0.0000 
     43 CA         18.9932   11.7603   56.1033 C.3       3 GLC5        0.0000 
     44 CA         20.1290   13.9630   56.6070 C.3       9 GLL5        0.0000 
     45 CA         17.8290   10.1950   55.8720 C.3       6 GLP5        0.0000 
     46 CA         19.8242   14.4672   54.3035 C.3       3 GLC5        0.0000 
     47 CA         19.4230   14.3690   52.3930 C.3       6 GLP5        0.0000 
     48 CA         22.9363   19.8458   53.5455 C.3       3 GLC5        0.0000 
     49 CA         20.9900   19.2030   54.1050 C.3       9 GLL5        0.0000 
     50 CA         24.8290   20.2950   53.6510 C.3       6 GLP5        0.0000 
     51 CA         23.1495   20.8638   53.2625 C.3       3 GLC5        0.0000 
     52 CA         21.9173   17.0592   57.9405 C.3       3 GLC5        0.0000 
     53 CA         20.2820   16.3960   56.4620 C.3       9 GLL5        0.0000 
     54 CA         23.6780   17.6580   58.7240 C.3       6 GLP5        0.0000 
     55 CA         21.7164   15.1859   55.5630 C.3       3 GLC5        0.0000 
     56 CA         19.1747    9.1478   60.0922 C.3       3 GLC5        0.0000 
     57 CA         19.2290   10.7480   61.0600 C.3       9 GLL5        0.0000 
     58 CA         18.8920    7.9650   58.5670 C.3       6 GLP5        0.0000 
     59 CA         21.3720    9.4715   59.9562 C.3       3 GLC5        0.0000 
     60 CA         20.4990   11.3330   60.5740 C.3       9 GLL5        0.0000 
     61 CA         21.7200    7.8410   58.9500 C.3       6 GLP5        0.0000 
     62 CA         23.4832   13.1273   61.4032 C.3       3 GLC5        0.0000 
     63 CA         22.2400   12.6710   59.2710 C.3       9 GLL5        0.0000 
     64 CA         24.2270   13.8420   63.1080 C.3       6 GLP5        0.0000 
     65 CA         22.7294   11.3554   58.4599 C.3       3 GLC5        0.0000 
     66 CA         21.1194   13.3344   60.7454 C.3       3 GLC5        0.0000 
     67 CA         20.4380   14.3200   61.9020 C.3       6 GLP5        0.0000 
     68 CA         20.1467   14.4905   60.1018 C.3       3 GLC5        0.0000 
     69 CA         19.8800   14.0030   57.9990 C.3       9 GLL5        0.0000 
     70 CA         21.4172   22.1185   57.9005 C.3       3 GLC5        0.0000 
     71 CA         22.8050   22.5980   56.5220 C.3       9 GLL5        0.0000 
     72 CA         20.5900   21.6390   59.7550 C.3       6 GLP5        0.0000 
     73 CA         19.4410   22.8301   56.0512 C.3       3 GLC5        0.0000 
     74 CA         21.6840   22.5980   55.5700 C.3       9 GLL5        0.0000 
     75 CA         17.6580   22.2930   56.2690 C.3       6 GLP5        0.0000 
     76 CA         20.3171   12.3772   61.7657 C.3       3 GLC5        0.0000 
     77 CA         23.7286   21.8392   56.0965 C.3       3 GLC5        0.0000 
     78 CA         24.8440   20.5690   55.4080 C.3       6 GLP5        0.0000 
     79 CA         21.5292   25.0775   59.8458 C.3       3 GLC5        0.0000 
     80 CA         21.9480   24.6060   57.4700 C.3       9 GLL5        0.0000 
     81 CA         21.0120   25.1210   61.7810 C.3       6 GLP5        0.0000 
     82 CA         20.1799   25.8555   58.5581 C.3       3 GLC5        0.0000 
     83 CA         18.5920   26.6660   59.4270 C.3       6 GLP5        0.0000 
     84 CA         21.3778   23.2161   58.7842 C.3       3 GLC5        0.0000 
@<TRIPOS>BOND
@<TRIPOS>SUBSTRUCTURE
     1 ALC1       29 GROUP        1 X    ALC  0     ROOT ALC X 1
     2 SEC2        7 GROUP        1 X    SEC  0     **** SEC X 2
     3 GLC5        1 GROUP        1 X    GLC  0     **** GLC X 6
     4 ALP1       31 GROUP        1 Y    ALP  0     ROOT ALP Y 8
     5 SEP2        9 GROUP        1 Y    SEP  0     **** SEP Y 9
     6 GLP5        3 GROUP        1 Y    GLP  0     **** GLP Y 13
     7 ALL1       30 GROUP        1 Z    ALL  0     ROOT ALL Z 15
     8 SEL2        8 GROUP        1 Z    SEL  0     **** SEL Z 16
     9 GLL5        2 GROUP        1 Z    GLL  0     **** GLL Z 20
@<TRIPOS>SET

