#    Name: 3ce3_1FN_1_ligand
#    Modification time : Mon Mar 24 20:58:53 2014

@<TRIPOS>MOLECULE
3ce3_1FN_1_ligand
   50    54     1     0     0
SMALL
NO_CHARGES


@<TRIPOS>ATOM
      1 C13        20.1290   13.9630   56.6070 C.ar      1 1FN1401     0.0000 
      2 C18        20.9900   19.2030   54.1050 C.2       1 1FN1401     0.0000 
      3 C17        20.6500   17.8170   54.4190 C.2       1 1FN1401     0.0000 
      4 C20        21.1940   20.2600   55.1650 C.2       1 1FN1401     0.0000 
      5 C22        21.5690   21.9420   53.3500 C.2       1 1FN1401     0.0000 
      6 C23        21.3710   20.9230   52.3980 C.2       1 1FN1401     0.0000 
      7 C24        21.0970   19.5900   52.7750 C.2       1 1FN1401     0.0000 
      8 C11        20.2820   16.3960   56.4620 C.ar      1 1FN1401     0.0000 
      9 C12        20.3220   15.1680   55.8210 C.ar      1 1FN1401     0.0000 
     10 C34        20.6950   23.6230   55.6090 C.ar      1 1FN1401     0.0000 
     11 C27        19.2290   10.7480   61.0600 C.2       1 1FN1401     0.0000 
     12 C33        20.8330   24.6500   56.5850 C.ar      1 1FN1401     0.0000 
     13 C1         20.4990   11.3330   60.5740 C.ar      1 1FN1401     0.0000 
     14 C2         21.5490   10.8710   61.3510 C.ar      1 1FN1401     0.0000 
     15 N3         22.8200   11.2670   61.1320 N.ar      1 1FN1401     0.0000 
     16 C4         23.2390   12.1540   60.1260 C.ar      1 1FN1401     0.0000 
     17 C5         22.2400   12.6710   59.2710 C.ar      1 1FN1401     0.0000 
     18 C6         20.8620   12.2850   59.4790 C.ar      1 1FN1401     0.0000 
     19 O7         19.7230   12.7650   58.6810 O.3       1 1FN1401     0.0000 
     20 C8         19.8800   14.0030   57.9990 C.ar      1 1FN1401     0.0000 
     21 C9         19.8310   15.3190   58.6040 C.ar      1 1FN1401     0.0000 
     22 C10        20.0310   16.5250   57.8520 C.ar      1 1FN1401     0.0000 
     23 F14        20.1860   12.6880   56.0620 F         1 1FN1401     0.0000 
     24 N15        20.4830   17.5510   55.7970 N.am      1 1FN1401     0.0000 
     25 O19        20.5080   17.0310   53.4880 O.2       1 1FN1401     0.0000 
     26 N21        21.4960   21.6110   54.6410 N.am      1 1FN1401     0.0000 
     27 O25        21.1200   20.0560   56.4290 O.2       1 1FN1401     0.0000 
     28 C26        21.6840   22.5980   55.5700 C.ar      1 1FN1401     0.0000 
     29 C28        19.6860    9.9130   62.1750 C.2       1 1FN1401     0.0000 
     30 N29        21.1120   10.0280   62.3290 N.pl3     1 1FN1401     0.0000 
     31 C30        22.8050   22.5980   56.5220 C.ar      1 1FN1401     0.0000 
     32 C31        22.9820   23.6210   57.5240 C.ar      1 1FN1401     0.0000 
     33 C32        21.9480   24.6060   57.4700 C.ar      1 1FN1401     0.0000 
     34 F35        22.1450   25.4620   58.3510 F         1 1FN1401     0.0000 
     35 H          21.7600   22.8910   53.0281 H         1 1FN1401     0.0000 
     36 H          21.4278   21.1569   51.3905 H         1 1FN1401     0.0000 
     37 H          20.9726   18.8805   52.0237 H         1 1FN1401     0.0000 
     38 H          20.4806   15.0813   54.8267 H         1 1FN1401     0.0000 
     39 H          19.9241   23.6204   54.9670 H         1 1FN1401     0.0000 
     40 H          18.4202   10.8736   60.7549 H         1 1FN1401     0.0000 
     41 H          20.1557   25.3933   56.6487 H         1 1FN1401     0.0000 
     42 H          24.2002   12.4102   60.0170 H         1 1FN1401     0.0000 
     43 H          22.4706   13.3042   58.5184 H         1 1FN1401     0.0000 
     44 H          19.6447   15.3854   59.6153 H         1 1FN1401     0.0000 
     45 H          19.9933   17.4174   58.2979 H         1 1FN1401     0.0000 
     46 H          20.5289   18.4692   56.4237 H         1 1FN1401     0.0000 
     47 H          19.1188    9.3851   62.7031 H         1 1FN1401     0.0000 
     48 H          21.6060    9.5880   62.9914 H         1 1FN1401     0.0000 
     49 H          23.4860   21.8308   56.4617 H         1 1FN1401     0.0000 
     50 H          23.7073   23.6321   58.1468 H         1 1FN1401     0.0000 
@<TRIPOS>BOND
     1    9    1 ar   
     2   20    1 ar   
     3   23    1 1    
     4    3    2 1    
     5    4    2 1    
     6    7    2 2    
     7   24    3 am   
     8   25    3 2    
     9   26    4 am   
    10   27    4 2    
    11    6    5 2    
    12   26    5 1    
    13   35    5 1    
    14    7    6 1    
    15   36    6 1    
    16   37    7 1    
    17    9    8 ar   
    18   22    8 ar   
    19   24    8 1    
    20   38    9 1    
    21   12   10 ar   
    22   28   10 ar   
    23   39   10 1    
    24   13   11 1    
    25   29   11 2    
    26   40   11 1    
    27   33   12 ar   
    28   41   12 1    
    29   14   13 ar   
    30   18   13 ar   
    31   15   14 ar   
    32   30   14 1    
    33   16   15 ar   
    34   17   16 ar   
    35   42   16 1    
    36   18   17 ar   
    37   43   17 1    
    38   19   18 1    
    39   20   19 1    
    40   21   20 ar   
    41   22   21 ar   
    42   44   21 1    
    43   45   22 1    
    44   46   24 1    
    45   28   26 1    
    46   31   28 ar   
    47   30   29 1    
    48   47   29 1    
    49   48   30 1    
    50   32   31 ar   
    51   49   31 1    
    52   33   32 ar   
    53   50   32 1    
    54   34   33 1    
@<TRIPOS>SUBSTRUCTURE
     1 1FN1401     1 GROUP   
@<TRIPOS>SET

