#    Name: 1cm0_COA_2_INTS_M
#    Modification time : Mon Mar 24 20:49:07 2014

@<TRIPOS>MOLECULE
1cm0_COA_2_INTS_M
   67     0     9     0     0
SMALL
NO_CHARGES


@<TRIPOS>ATOM
      1 CA         -4.4045   21.1130   13.5015 C.3       3 GLC5        0.0000 
      2 CA         -4.7510   21.6680   15.5620 C.3       9 GLL5        0.0000 
      3 CA         -4.0580   20.5580   11.4410 C.3       6 GLP5        0.0000 
      4 CA         -7.0580   16.6695   15.2795 C.3       3 GLC5        0.0000 
      5 CA         -6.9110   18.6710   16.1460 C.3       9 GLL5        0.0000 
      6 CA         -7.2050   14.6680   14.4130 C.3       6 GLP5        0.0000 
      7 CA         -8.2125   16.4495   14.9920 C.3       3 GLC5        0.0000 
      8 CA         -9.2200   18.2310   15.5710 C.3       9 GLL5        0.0000 
      9 N         -12.9975   22.1685   14.7945 N.am      2 SEC2        0.0000 
     10 N         -11.5460   22.0880   14.9440 N.am      8 SEL2        0.0000 
     11 N         -14.4490   22.2490   14.6450 N.am      5 SEP2        0.0000 
     12 N         -11.6995   20.6605   11.3940 N.am      2 SEC2        0.0000 
     13 N         -11.4760   20.8430   12.7290 N.am      8 SEL2        0.0000 
     14 N         -11.9230   20.4780   10.0590 N.am      5 SEP2        0.0000 
     15 N         -11.6455   19.5655   12.3525 N.am      2 SEC2        0.0000 
     16 N         -11.8150   18.2880   11.9760 N.am      5 SEP2        0.0000 
     17 N         -11.6150   23.8560   11.4615 N.am      2 SEC2        0.0000 
     18 N         -10.9770   24.6350   12.4360 N.am      8 SEL2        0.0000 
     19 N         -12.2530   23.0770   10.4870 N.am      5 SEP2        0.0000 
     20 N         -10.7150   25.1110   15.6085 N.am      2 SEC2        0.0000 
     21 N         -10.0660   24.7190   14.7080 N.am      8 SEL2        0.0000 
     22 N         -11.3640   25.5030   16.5090 N.am      5 SEP2        0.0000 
     23 CA         -9.3140   25.4785   10.7310 C.3       3 GLC5        0.0000 
     24 CA         -7.8310   24.0920   11.6050 C.3       9 GLL5        0.0000 
     25 CA        -10.7970   26.8650    9.8570 C.3       6 GLP5        0.0000 
     26 CA         -9.4340   23.3950   10.6990 C.3       3 GLC5        0.0000 
     27 CA        -11.0370   22.6980    9.7930 C.3       6 GLP5        0.0000 
     28 CA         -5.2160   22.4955   10.9635 C.3       3 GLC5        0.0000 
     29 CA         -5.2400   24.3500   11.4880 C.3       9 GLL5        0.0000 
     30 CA         -5.1920   20.6410   10.4390 C.3       6 GLP5        0.0000 
     31 CA         -6.8570   26.9360    8.8430 C.3       3 GLC5        0.0000 
     32 CA         -6.8890   25.3940    9.8310 C.3       9 GLL5        0.0000 
     33 CA         -6.8250   28.4780    7.8550 C.3       6 GLP5        0.0000 
     34 CA         -8.8430   26.1295    9.8440 C.3       3 GLC5        0.0000 
     35 CA         -8.5910   27.1985   11.5255 C.3       3 GLC5        0.0000 
     36 CA         -6.6910   26.3270   12.3170 C.3       9 GLL5        0.0000 
     37 CA        -10.4910   28.0700   10.7340 C.3       6 GLP5        0.0000 
     38 CA         -7.9060   27.5405   13.4325 C.3       3 GLC5        0.0000 
     39 CA         -9.1210   28.7540   14.5480 C.3       6 GLP5        0.0000 
     40 N          -7.5085   28.7295   10.2730 N.am      2 SEC2        0.0000 
     41 N          -6.4110   28.5340   11.1630 N.am      8 SEL2        0.0000 
     42 N          -8.6060   28.9250    9.3830 N.am      5 SEP2        0.0000 
     43 CA         -1.9880   28.7325    9.1235 C.3       3 GLC5        0.0000 
     44 CA         -3.0060   28.3340   10.6300 C.3       9 GLL5        0.0000 
     45 CA         -0.9700   29.1310    7.6170 C.3       6 GLP5        0.0000 
     46 O          -3.5090   26.8245    8.3090 O.2       1 ALC1        0.0000 
     47 O          -2.5870   26.3350    9.4430 O.2       7 ALL1        0.0000 
     48 O          -4.4310   27.3140    7.1750 O.2       4 ALP1        0.0000 
     49 CA         -4.5295   22.2875    8.3265 C.3       3 GLC5        0.0000 
     50 CA         -4.1330   23.8340    7.5770 C.3       9 GLL5        0.0000 
     51 CA         -4.9260   20.7410    9.0760 C.3       6 GLP5        0.0000 
     52 CA         -3.0530   22.4960    6.7325 C.3       3 GLC5        0.0000 
     53 CA         -1.9730   21.1580    5.8880 C.3       6 GLP5        0.0000 
     54 CA         -6.8783   22.5913   11.1557 C.3       3 GLC5        0.0000 
     55 CA         -6.6280   25.0570   11.3120 C.3       9 GLL5        0.0000 
     56 CA         -6.5270   20.6080   10.8530 C.3       6 GLP5        0.0000 
     57 CA         -3.8417   30.2183   10.5933 C.3       3 GLC5        0.0000 
     58 CA         -3.6550   28.5230   11.9890 C.3       9 GLL5        0.0000 
     59 CA         -4.3530   32.0080    9.8770 C.3       6 GLP5        0.0000 
     60 CA         -0.8922   23.8575    9.1612 C.3       3 GLC5        0.0000 
     61 CA         -2.0260   24.9600    9.1000 C.3       9 GLL5        0.0000 
     62 CA          0.4620   22.9190    9.9300 C.3       6 GLP5        0.0000 
     63 CA         -1.8077   22.9815    7.7677 C.3       3 GLC5        0.0000 
     64 CA         -1.3690   21.1670    7.1430 C.3       6 GLP5        0.0000 
     65 CA         -4.1900   24.5340    6.6625 C.3       3 GLC5        0.0000 
     66 CA         -2.4670   24.6320    7.6850 C.3       9 GLL5        0.0000 
     67 CA         -5.0800   24.8350    5.6940 C.3       6 GLP5        0.0000 
@<TRIPOS>BOND
@<TRIPOS>SUBSTRUCTURE
     1 ALC1       46 GROUP        1 X    ALC  0     ROOT ALC X 1
     2 SEC2        9 GROUP        1 X    SEC  0     **** SEC X 2
     3 GLC5        1 GROUP        1 X    GLC  0     **** GLC X 6
     4 ALP1       48 GROUP        1 Y    ALP  0     ROOT ALP Y 8
     5 SEP2       11 GROUP        1 Y    SEP  0     **** SEP Y 9
     6 GLP5        3 GROUP        1 Y    GLP  0     **** GLP Y 13
     7 ALL1       47 GROUP        1 Z    ALL  0     ROOT ALL Z 15
     8 SEL2       10 GROUP        1 Z    SEL  0     **** SEL Z 16
     9 GLL5        2 GROUP        1 Z    GLL  0     **** GLL Z 20
@<TRIPOS>SET

