#    Name: 1cm0_COA_2_ligand
#    Modification time : Mon Mar 24 20:49:07 2014

@<TRIPOS>MOLECULE
1cm0_COA_2_ligand
   79    81     1     0     0
SMALL
NO_CHARGES


@<TRIPOS>ATOM
      1 N1A        -5.7980   23.8620   15.7780 N.ar      1 COA700      0.0000 
      2 C2A        -6.9730   23.2050   16.1390 C.ar      1 COA700      0.0000 
      3 N3A        -7.1500   21.8620   16.2310 N.ar      1 COA700      0.0000 
      4 C4A        -6.0410   21.1570   15.9290 C.ar      1 COA700      0.0000 
      5 C5A        -4.7510   21.6680   15.5620 C.ar      1 COA700      0.0000 
      6 C6A        -4.6330   23.1620   15.5280 C.ar      1 COA700      0.0000 
      7 N6A        -3.5440   23.7690   15.1840 N.pl3     1 COA700      0.0000 
      8 N7A        -3.8420   20.6720   15.3850 N.2       1 COA700      0.0000 
      9 C8A        -4.5090   19.5430   15.7230 C.2       1 COA700      0.0000 
     10 N9A        -5.8670   19.7520   15.9410 N.pl3     1 COA700      0.0000 
     11 C1B        -6.9110   18.6710   16.1460 C.3       1 COA700      0.0000 
     12 C2B        -7.7680   18.8680   17.3640 C.3       1 COA700      0.0000 
     13 O2B        -7.0750   18.4650   18.5310 O.3       1 COA700      0.0000 
     14 C3B        -8.9980   17.9600   17.0870 C.3       1 COA700      0.0000 
     15 O3B        -8.8440   16.6280   17.4460 O.3       1 COA700      0.0000 
     16 P3B       -10.3060   15.8960   17.8730 P.3       1 COA700      0.0000 
     17 O7A       -10.8160   16.6600   19.1780 O.co2     1 COA700      0.0000 
     18 O8A       -10.0930   14.3650   18.2930 O.co2     1 COA700      0.0000 
     19 O9A       -11.3220   16.0820   16.6640 O.co2     1 COA700      0.0000 
     20 C4B        -9.2200   18.2310   15.5710 C.3       1 COA700      0.0000 
     21 O4B        -7.8820   18.6970   15.0560 O.3       1 COA700      0.0000 
     22 C5B       -10.3200   19.2000   15.2130 C.3       1 COA700      0.0000 
     23 O5B        -9.7060   20.3730   14.5830 O.3       1 COA700      0.0000 
     24 P1A       -10.7140   21.4390   13.8810 P.3       1 COA700      0.0000 
     25 O1A       -11.5460   22.0880   14.9440 O.co2     1 COA700      0.0000 
     26 O2A       -11.4760   20.8430   12.7290 O.co2     1 COA700      0.0000 
     27 O3A        -9.7850   22.5070   13.3460 O.3       1 COA700      0.0000 
     28 P2A        -9.8890   24.1260   13.3360 P.3       1 COA700      0.0000 
     29 O4A       -10.9770   24.6350   12.4360 O.co2     1 COA700      0.0000 
     30 O5A       -10.0660   24.7190   14.7080 O.co2     1 COA700      0.0000 
     31 O6A        -8.3800   24.4610   12.8490 O.3       1 COA700      0.0000 
     32 CBP        -6.6280   25.0570   11.3120 C.3       1 COA700      0.0000 
     33 CCP        -7.8310   24.0920   11.6050 C.3       1 COA700      0.0000 
     34 CDP        -5.2400   24.3500   11.4880 C.3       1 COA700      0.0000 
     35 CEP        -6.8890   25.3940    9.8310 C.3       1 COA700      0.0000 
     36 CAP        -6.6910   26.3270   12.3170 C.3       1 COA700      0.0000 
     37 OAP        -6.2060   25.9690   13.6420 O.3       1 COA700      0.0000 
     38 C9P        -5.8540   27.5090   11.8470 C.2       1 COA700      0.0000 
     39 O9P        -6.4110   28.5340   11.1630 O.2       1 COA700      0.0000 
     40 N8P        -4.5980   27.4380   12.1590 N.am      1 COA700      0.0000 
     41 C7P        -3.6550   28.5230   11.9890 C.3       1 COA700      0.0000 
     42 C6P        -3.0060   28.3340   10.6300 C.3       1 COA700      0.0000 
     43 C5P        -2.3190   26.9970   10.5510 C.2       1 COA700      0.0000 
     44 O5P        -1.5420   26.5560   11.4860 O.2       1 COA700      0.0000 
     45 N4P        -2.5870   26.3350    9.4430 N.am      1 COA700      0.0000 
     46 C3P        -2.0260   24.9600    9.1000 C.3       1 COA700      0.0000 
     47 C2P        -2.4670   24.6320    7.6850 C.3       1 COA700      0.0000 
     48 S1P        -4.1330   23.8340    7.5770 S.3       1 COA700      0.0000 
     49 H          -7.8167   23.8377   16.3648 H         1 COA700      0.0000 
     50 H          -3.5896   24.7673   15.1468 H         1 COA700      0.0000 
     51 H          -2.7574   23.1838   14.9871 H         1 COA700      0.0000 
     52 H          -4.0910   18.6516   15.8110 H         1 COA700      0.0000 
     53 H          -6.4537   17.7082   16.1911 H         1 COA700      0.0000 
     54 H          -8.1101   19.8707   17.3834 H         1 COA700      0.0000 
     55 H          -9.8366   18.4687   17.5867 H         1 COA700      0.0000 
     56 H          -9.4154   17.2565   15.1039 H         1 COA700      0.0000 
     57 H         -10.8503   19.4830   16.1180 H         1 COA700      0.0000 
     58 H         -11.0109   18.7140   14.5297 H         1 COA700      0.0000 
     59 H          -8.5284   24.2058   10.7801 H         1 COA700      0.0000 
     60 H          -7.4285   23.0832   11.5985 H         1 COA700      0.0000 
     61 H          -7.7264   26.6339   12.3696 H         1 COA700      0.0000 
     62 H          -4.1731   26.5515   12.5708 H         1 COA700      0.0000 
     63 H          -2.8819   28.4982   12.7471 H         1 COA700      0.0000 
     64 H          -4.1518   29.4853   12.0034 H         1 COA700      0.0000 
     65 H          -2.2783   29.1311   10.4666 H         1 COA700      0.0000 
     66 H          -3.7719   28.3997    9.8550 H         1 COA700      0.0000 
     67 H          -3.2238   26.7127    8.6915 H         1 COA700      0.0000 
     68 H          -2.4225   24.2296    9.7830 H         1 COA700      0.0000 
     69 H          -0.9518   24.9878    9.1489 H         1 COA700      0.0000 
     70 H          -1.8500   23.8992    7.1889 H         1 COA700      0.0000 
     71 H          -2.6062   25.4961    7.0544 H         1 COA700      0.0000 
     72 H          -4.4798   24.9730   11.3035 H         1 COA700      0.0000 
     73 H          -5.1153   24.0027   12.4174 H         1 COA700      0.0000 
     74 H          -5.1383   23.5718   10.8682 H         1 COA700      0.0000 
     75 H          -6.1130   25.8687    9.4158 H         1 COA700      0.0000 
     76 H          -7.0549   24.5717    9.2867 H         1 COA700      0.0000 
     77 H          -7.6878   25.9852    9.7198 H         1 COA700      0.0000 
     78 H          -7.1737   17.4703   18.5600 H         1 COA700      0.0000 
     79 H          -6.6987   25.1321   13.8804 H         1 COA700      0.0000 
@<TRIPOS>BOND
     1    2    1 ar   
     2    6    1 ar   
     3    3    2 ar   
     4   49    2 1    
     5    4    3 ar   
     6    5    4 ar   
     7   10    4 1    
     8    6    5 ar   
     9    8    5 1    
    10    7    6 1    
    11   50    7 1    
    12   51    7 1    
    13    9    8 2    
    14   10    9 1    
    15   52    9 1    
    16   11   10 1    
    17   12   11 1    
    18   21   11 1    
    19   53   11 1    
    20   13   12 1    
    21   14   12 1    
    22   54   12 1    
    23   78   13 1    
    24   15   14 1    
    25   20   14 1    
    26   55   14 1    
    27   16   15 1    
    28   17   16 ar   
    29   18   16 ar   
    30   19   16 ar   
    31   21   20 1    
    32   22   20 1    
    33   56   20 1    
    34   23   22 1    
    35   57   22 1    
    36   58   22 1    
    37   24   23 1    
    38   25   24 ar   
    39   26   24 ar   
    40   27   24 1    
    41   28   27 1    
    42   29   28 ar   
    43   30   28 ar   
    44   31   28 1    
    45   33   31 1    
    46   33   32 1    
    47   34   32 1    
    48   35   32 1    
    49   36   32 1    
    50   59   33 1    
    51   60   33 1    
    52   72   34 1    
    53   73   34 1    
    54   74   34 1    
    55   75   35 1    
    56   76   35 1    
    57   77   35 1    
    58   37   36 1    
    59   38   36 1    
    60   61   36 1    
    61   79   37 1    
    62   39   38 2    
    63   40   38 am   
    64   41   40 1    
    65   62   40 1    
    66   42   41 1    
    67   63   41 1    
    68   64   41 1    
    69   43   42 1    
    70   65   42 1    
    71   66   42 1    
    72   44   43 2    
    73   45   43 am   
    74   46   45 1    
    75   67   45 1    
    76   47   46 1    
    77   68   46 1    
    78   69   46 1    
    79   48   47 1    
    80   70   47 1    
    81   71   47 1    
@<TRIPOS>SUBSTRUCTURE
     1 COA700      1 GROUP   
@<TRIPOS>SET

