#    Name: 1jq5_NAD_1_INTS_M
#    Modification time : Tue Mar 25 09:14:28 2014

@<TRIPOS>MOLECULE
1jq5_NAD_1_INTS_M
   89     0     9     0     0
SMALL
NO_CHARGES


@<TRIPOS>ATOM
      1 N          26.7885   32.1035   22.2385 N.am      2 SEC2        0.0000 
      2 N          26.7510   31.1600   23.3590 N.am      8 SEL2        0.0000 
      3 N          26.8260   33.0470   21.1180 N.am      5 SEP2        0.0000 
      4 CA         27.7100   28.7835   23.4605 C.3       3 GLC5        0.0000 
      5 CA         26.8270   28.6950   25.3730 C.3       9 GLL5        0.0000 
      6 CA         28.5930   28.8720   21.5480 C.3       6 GLP5        0.0000 
      7 CA         31.5850   28.0870   26.1975 C.3       3 GLC5        0.0000 
      8 CA         29.6140   28.3650   26.9480 C.3       9 GLL5        0.0000 
      9 CA         33.5560   27.8090   25.4470 C.3       6 GLP5        0.0000 
     10 O          31.2650   29.7710   27.5845 O.2       1 ALC1        0.0000 
     11 O          30.7100   28.5730   27.8790 O.2       7 ALL1        0.0000 
     12 O          31.8200   30.9690   27.2900 O.2       4 ALP1        0.0000 
     13 CA         27.7125   25.4215   26.4365 C.3       3 GLC5        0.0000 
     14 CA         29.0640   26.9560   27.0800 C.3       9 GLL5        0.0000 
     15 CA         26.3610   23.8870   25.7930 C.3       6 GLP5        0.0000 
     16 N          31.4620   25.2190   23.4785 N.am      2 SEC2        0.0000 
     17 N          30.7000   24.9690   24.4760 N.am      8 SEL2        0.0000 
     18 N          32.2240   25.4690   22.4810 N.am      5 SEP2        0.0000 
     19 CA         31.8440   24.2920   23.7565 C.3       3 GLC5        0.0000 
     20 CA         30.8030   24.1990   25.6370 C.3       9 GLL5        0.0000 
     21 CA         32.8850   24.3850   21.8760 C.3       6 GLP5        0.0000 
     22 CA         30.2430   21.5375   25.2345 C.3       3 GLC5        0.0000 
     23 CA         31.3850   22.9270   25.8870 C.3       9 GLL5        0.0000 
     24 CA         29.1010   20.1480   24.5820 C.3       6 GLP5        0.0000 
     25 CA         29.7745   21.9230   26.8640 C.3       3 GLC5        0.0000 
     26 CA         28.1640   20.9190   27.8410 C.3       6 GLP5        0.0000 
     27 O          31.4120   22.2305   23.5895 O.2       1 ALC1        0.0000 
     28 O          31.9800   22.2010   24.9360 O.2       7 ALL1        0.0000 
     29 O          30.8440   22.2600   22.2430 O.2       4 ALP1        0.0000 
     30 CA         32.0515   24.7170   29.0950 C.3       3 GLC5        0.0000 
     31 CA         30.6790   23.2130   28.1470 C.3       9 GLL5        0.0000 
     32 CA         33.4240   26.2210   30.0430 C.3       6 GLP5        0.0000 
     33 CA         32.4880   23.3090   28.0780 C.3       3 GLC5        0.0000 
     34 CA         34.2970   23.4050   28.0090 C.3       6 GLP5        0.0000 
     35 CA         29.4215   22.0660   27.9940 C.3       3 GLC5        0.0000 
     36 N          25.9880   29.3075   21.2515 N.am      2 SEC2        0.0000 
     37 N          25.1200   28.4710   22.0560 N.am      8 SEL2        0.0000 
     38 N          26.8560   30.1440   20.4470 N.am      5 SEP2        0.0000 
     39 N          24.9455   27.2695   21.5760 N.am      2 SEC2        0.0000 
     40 N          24.7710   26.0680   21.0960 N.am      5 SEP2        0.0000 
     41 CA         22.4450   30.0060   20.6830 C.3       3 GLC5        0.0000 
     42 CA         22.7900   31.5970   21.9000 C.3       9 GLL5        0.0000 
     43 CA         22.1000   28.4150   19.4660 C.3       6 GLP5        0.0000 
     44 CA         20.7760   30.9955   21.6355 C.3       3 GLC5        0.0000 
     45 CA         18.7620   30.3940   21.3710 C.3       6 GLP5        0.0000 
     46 CA         21.9940   36.0700   21.3165 C.3       3 GLC5        0.0000 
     47 CA         22.1140   33.9260   21.1200 C.3       9 GLL5        0.0000 
     48 CA         21.8740   38.2140   21.5130 C.3       6 GLP5        0.0000 
     49 N          22.9630   35.8070   22.7805 N.am      2 SEC2        0.0000 
     50 N          22.7510   35.1890   21.4470 N.am      8 SEL2        0.0000 
     51 N          23.1750   36.4250   24.1140 N.am      5 SEP2        0.0000 
     52 CA         21.1445   35.3990   18.1760 C.3       3 GLC5        0.0000 
     53 CA         21.3560   33.8710   19.7500 C.3       9 GLL5        0.0000 
     54 CA         20.9330   36.9270   16.6020 C.3       6 GLP5        0.0000 
     55 N          20.4095   36.0075   20.4150 N.am      2 SEC2        0.0000 
     56 N          20.9020   35.1740   19.3620 N.am      8 SEL2        0.0000 
     57 N          19.9170   36.8410   21.4680 N.am      5 SEP2        0.0000 
     58 N          22.9505   33.1935   12.0430 N.am      2 SEC2        0.0000 
     59 N          22.0230   33.2420   13.0650 N.am      8 SEL2        0.0000 
     60 N          23.8780   33.1450   11.0210 N.am      5 SEP2        0.0000 
     61 O          24.6500   34.7320   14.8475 O.2       1 ALC1        0.0000 
     62 O          23.4020   34.7850   14.0760 O.2       7 ALL1        0.0000 
     63 O          25.8980   34.6790   15.6190 O.2       4 ALP1        0.0000 
     64 O          23.9605   35.2540   15.5085 O.2       1 ALC1        0.0000 
     65 O          24.5190   35.7230   16.9410 O.2       4 ALP1        0.0000 
     66 O          24.2080   35.4785   13.2175 O.2       1 ALC1        0.0000 
     67 O          25.0140   36.1720   12.3590 O.2       4 ALP1        0.0000 
     68 CA         22.6980   31.1935   14.6980 C.3       3 GLC5        0.0000 
     69 CA         21.1730   31.9570   15.0590 C.3       9 GLL5        0.0000 
     70 CA         24.2230   30.4300   14.3370 C.3       6 GLP5        0.0000 
     71 CA         32.6955   23.4840   26.8855 C.3       3 GLC5        0.0000 
     72 CA         28.4337   24.2025   25.9855 C.3       3 GLC5        0.0000 
     73 CA         24.6362   31.6833   20.5245 C.3       3 GLC5        0.0000 
     74 CA         26.3330   31.1980   19.6030 C.3       6 GLP5        0.0000 
     75 CA         24.0329   33.9446   22.2405 C.3       3 GLC5        0.0000 
     76 CA         23.0890   32.7400   20.9920 C.3       9 GLL5        0.0000 
     77 CA         25.5390   34.8420   23.1980 C.3       6 GLP5        0.0000 
     78 CA         23.4842   32.1465   15.8472 C.3       3 GLC5        0.0000 
     79 CA         22.4590   33.4700   16.5630 C.3       9 GLL5        0.0000 
     80 CA         24.6900   31.0020   15.7310 C.3       6 GLP5        0.0000 
     81 CA         21.6058   35.1090   16.2828 C.3       3 GLC5        0.0000 
     82 CA         22.0980   33.1120   15.3640 C.3       9 GLL5        0.0000 
     83 CA         21.5040   29.8450   17.4440 C.3       3 GLC5        0.0000 
     84 CA         21.0850   31.6280   17.5450 C.3       9 GLL5        0.0000 
     85 CA         22.0950   28.2330   17.9940 C.3       6 GLP5        0.0000 
     86 CA         22.8015   31.2295   16.3125 C.3       3 GLC5        0.0000 
     87 CA         19.5560   30.6030   17.9025 C.3       3 GLC5        0.0000 
     88 CA         20.7410   31.2860   16.2430 C.3       9 GLL5        0.0000 
     89 CA         18.1990   29.7490   18.9110 C.3       6 GLP5        0.0000 
@<TRIPOS>BOND
@<TRIPOS>SUBSTRUCTURE
     1 ALC1       10 GROUP        1 X    ALC  0     ROOT ALC X 1
     2 SEC2        1 GROUP        1 X    SEC  0     **** SEC X 2
     3 GLC5        4 GROUP        1 X    GLC  0     **** GLC X 6
     4 ALP1       12 GROUP        1 Y    ALP  0     ROOT ALP Y 8
     5 SEP2        3 GROUP        1 Y    SEP  0     **** SEP Y 9
     6 GLP5        6 GROUP        1 Y    GLP  0     **** GLP Y 13
     7 ALL1       11 GROUP        1 Z    ALL  0     ROOT ALL Z 15
     8 SEL2        2 GROUP        1 Z    SEL  0     **** SEL Z 16
     9 GLL5        5 GROUP        1 Z    GLL  0     **** GLL Z 20
@<TRIPOS>SET

