#    Name: 1jq5_NAD_1_ligand
#    Modification time : Tue Mar 25 09:14:28 2014

@<TRIPOS>MOLECULE
1jq5_NAD_1_ligand
   70    74     1     0     0
SMALL
NO_CHARGES


@<TRIPOS>ATOM
      1 PA         25.7980   30.8690   24.4520 P.3       1 NAD401      0.0000 
      2 O1A        26.7510   31.1600   23.3590 O.co2     1 NAD401      0.0000 
      3 O2A        25.4160   32.1060   25.1990 O.co2     1 NAD401      0.0000 
      4 O5B        26.3580   29.9540   25.5620 O.3       1 NAD401      0.0000 
      5 C5B        26.8270   28.6950   25.3730 C.3       1 NAD401      0.0000 
      6 C4B        27.2480   28.3210   26.7470 C.3       1 NAD401      0.0000 
      7 O4B        27.7550   26.9870   26.6700 O.3       1 NAD401      0.0000 
      8 C3B        28.3970   29.2060   27.3000 C.3       1 NAD401      0.0000 
      9 O3B        28.2170   29.4430   28.7180 O.3       1 NAD401      0.0000 
     10 C2B        29.6140   28.3650   26.9480 C.3       1 NAD401      0.0000 
     11 O2B        30.7100   28.5730   27.8790 O.3       1 NAD401      0.0000 
     12 C1B        29.0640   26.9560   27.0800 C.3       1 NAD401      0.0000 
     13 N9A        29.7340   26.0260   26.2440 N.pl3     1 NAD401      0.0000 
     14 C8A        30.0380   26.0740   24.8990 C.2       1 NAD401      0.0000 
     15 N7A        30.7000   24.9690   24.4760 N.2       1 NAD401      0.0000 
     16 C5A        30.8030   24.1990   25.6370 C.ar      1 NAD401      0.0000 
     17 C6A        31.3850   22.9270   25.8870 C.ar      1 NAD401      0.0000 
     18 N6A        31.9800   22.2010   24.9360 N.pl3     1 NAD401      0.0000 
     19 N1A        31.3130   22.4400   27.1870 N.ar      1 NAD401      0.0000 
     20 C2A        30.6790   23.2130   28.1470 C.ar      1 NAD401      0.0000 
     21 N3A        30.1180   24.3890   27.9920 N.ar      1 NAD401      0.0000 
     22 C4A        30.2100   24.8370   26.7190 C.ar      1 NAD401      0.0000 
     23 O3         24.5210   30.1010   23.9980 O.3       1 NAD401      0.0000 
     24 PN         24.0680   29.4230   22.5730 P.3       1 NAD401      0.0000 
     25 O1N        22.7790   28.7370   22.8600 O.co2     1 NAD401      0.0000 
     26 O2N        25.1200   28.4710   22.0560 O.co2     1 NAD401      0.0000 
     27 O5D        23.9120   30.7370   21.7320 O.3       1 NAD401      0.0000 
     28 C5D        22.7900   31.5970   21.9000 C.3       1 NAD401      0.0000 
     29 C4D        23.0890   32.7400   20.9920 C.3       1 NAD401      0.0000 
     30 O4D        23.0190   32.2990   19.6090 O.3       1 NAD401      0.0000 
     31 C3D        22.1140   33.9260   21.1200 C.3       1 NAD401      0.0000 
     32 O3D        22.7510   35.1890   21.4470 O.3       1 NAD401      0.0000 
     33 C2D        21.3560   33.8710   19.7500 C.3       1 NAD401      0.0000 
     34 O2D        20.9020   35.1740   19.3620 O.3       1 NAD401      0.0000 
     35 C1D        22.4250   33.3260   18.8550 C.3       1 NAD401      0.0000 
     36 N1N        21.9500   32.7550   17.5980 N.pl3     1 NAD401      0.0000 
     37 C2N        22.4590   33.4700   16.5630 C.ar      1 NAD401      0.0000 
     38 C3N        22.0980   33.1120   15.3640 C.ar      1 NAD401      0.0000 
     39 C7N        22.5220   33.7350   14.1010 C.2       1 NAD401      0.0000 
     40 O7N        22.0230   33.2420   13.0650 O.2       1 NAD401      0.0000 
     41 N7N        23.4020   34.7850   14.0760 N.am      1 NAD401      0.0000 
     42 C4N        21.1730   31.9570   15.0590 C.ar      1 NAD401      0.0000 
     43 C5N        20.7410   31.2860   16.2430 C.ar      1 NAD401      0.0000 
     44 C6N        21.0850   31.6280   17.5450 C.ar      1 NAD401      0.0000 
     45 H          27.6904   28.6460   24.7279 H         1 NAD401      0.0000 
     46 H          26.0731   27.9958   25.0465 H         1 NAD401      0.0000 
     47 H          26.4255   28.3732   27.4210 H         1 NAD401      0.0000 
     48 H          28.4117   30.0896   26.7120 H         1 NAD401      0.0000 
     49 H          29.8683   28.5343   25.9428 H         1 NAD401      0.0000 
     50 H          29.1392   26.6675   28.1173 H         1 NAD401      0.0000 
     51 H          29.7951   26.8338   24.3202 H         1 NAD401      0.0000 
     52 H          31.3950   21.8962   24.1844 H         1 NAD401      0.0000 
     53 H          32.9568   22.0276   25.0612 H         1 NAD401      0.0000 
     54 H          30.6581   22.7639   29.1476 H         1 NAD401      0.0000 
     55 H          22.7097   31.9596   22.9097 H         1 NAD401      0.0000 
     56 H          21.8739   31.1276   21.5871 H         1 NAD401      0.0000 
     57 H          24.0884   33.1180   21.1897 H         1 NAD401      0.0000 
     58 H          21.3763   33.6215   21.8718 H         1 NAD401      0.0000 
     59 H          20.5895   33.1506   19.8582 H         1 NAD401      0.0000 
     60 H          23.1489   34.1061   18.6719 H         1 NAD401      0.0000 
     61 H          23.0989   34.2545   16.7451 H         1 NAD401      0.0000 
     62 H          23.6101   35.1633   13.1740 H         1 NAD401      0.0000 
     63 H          23.7591   35.0811   14.9619 H         1 NAD401      0.0000 
     64 H          20.9333   31.7380   14.1706 H         1 NAD401      0.0000 
     65 H          20.0974   30.4498   16.0996 H         1 NAD401      0.0000 
     66 H          20.7787   31.1615   18.3390 H         1 NAD401      0.0000 
     67 H          29.1084   29.2495   29.1278 H         1 NAD401      0.0000 
     68 H          31.1176   29.4451   27.6081 H         1 NAD401      0.0000 
     69 H          23.3120   35.4100   20.6492 H         1 NAD401      0.0000 
     70 H          19.9244   35.0644   19.1822 H         1 NAD401      0.0000 
@<TRIPOS>BOND
     1    2    1 ar   
     2    3    1 ar   
     3    4    1 1    
     4   23    1 1    
     5    5    4 1    
     6    6    5 1    
     7   45    5 1    
     8   46    5 1    
     9    7    6 1    
    10    8    6 1    
    11   47    6 1    
    12   12    7 1    
    13    9    8 1    
    14   10    8 1    
    15   48    8 1    
    16   67    9 1    
    17   11   10 1    
    18   12   10 1    
    19   49   10 1    
    20   68   11 1    
    21   13   12 1    
    22   50   12 1    
    23   14   13 1    
    24   22   13 1    
    25   15   14 2    
    26   51   14 1    
    27   16   15 1    
    28   17   16 ar   
    29   22   16 ar   
    30   18   17 1    
    31   19   17 ar   
    32   52   18 1    
    33   53   18 1    
    34   20   19 ar   
    35   21   20 ar   
    36   54   20 1    
    37   22   21 ar   
    38   24   23 1    
    39   25   24 ar   
    40   26   24 ar   
    41   27   24 1    
    42   28   27 1    
    43   29   28 1    
    44   55   28 1    
    45   56   28 1    
    46   30   29 1    
    47   31   29 1    
    48   57   29 1    
    49   35   30 1    
    50   32   31 1    
    51   33   31 1    
    52   58   31 1    
    53   69   32 1    
    54   34   33 1    
    55   35   33 1    
    56   59   33 1    
    57   70   34 1    
    58   36   35 1    
    59   60   35 1    
    60   37   36 ar   
    61   44   36 ar   
    62   38   37 ar   
    63   61   37 1    
    64   39   38 1    
    65   42   38 ar   
    66   40   39 2    
    67   41   39 am   
    68   62   41 1    
    69   63   41 1    
    70   43   42 ar   
    71   64   42 1    
    72   44   43 ar   
    73   65   43 1    
    74   66   44 1    
@<TRIPOS>SUBSTRUCTURE
     1 NAD401      1 GROUP   
@<TRIPOS>SET

