#    Name: 1SPA_1_CAVITY_N1_6.mol2
#    Modification time : Tue Mar 11 08:45:15 2014

@<TRIPOS>MOLECULE
1SPA_1_CAVITY_N1_6.mol2
   73     0     6     0     0
SMALL
NO_CHARGES


@<TRIPOS>ATOM
      1 OG         25.3618    7.8639   -8.4349 O.2       1 SER1        0.0000 
      2 DU         22.1994    8.8726   -7.9532 H         6 CUB7        0.0000 
      3 O          23.2739    7.8315   -8.0610 O.2       2 ALA2        0.0000 
      4 OG         24.3484    6.7904   -8.1688 O.2       1 SER1        0.0000 
      5 DU         20.1116    8.8403   -7.5793 H         6 CUB7        0.0000 
      6 O          21.1860    7.7992   -7.6871 O.2       2 ALA2        0.0000 
      7 O          22.2605    6.7581   -7.7949 O.2       2 ALA2        0.0000 
      8 N          19.0982    7.7668   -7.3132 N.2       2 ALA2        0.0000 
      9 DU         22.9510    9.8282   -9.6916 H         6 CUB7        0.0000 
     10 CZ         24.0254    8.7871   -9.7994 C.ar      4 PHE5        0.0000 
     11 CA         19.7886   10.8369   -9.2100 C.3       5 GLY6        0.0000 
     12 OD1        20.8631    9.7958   -9.3177 O.3       3 ASP3        0.0000 
     13 OD1        21.9376    8.7548   -9.4255 O.3       3 ASP3        0.0000 
     14 DU         23.0121    7.7137   -9.5333 H         6 CUB7        0.0000 
     15 OG         24.0866    6.6726   -9.6410 O.2       1 SER1        0.0000 
     16 CZ         18.7752    9.7635   -8.9439 C.ar      4 PHE5        0.0000 
     17 CZ         19.8497    8.7224   -9.0516 C.ar      4 PHE5        0.0000 
     18 OD1        20.9242    7.6813   -9.1594 O.3       3 ASP3        0.0000 
     19 O          21.9987    6.6403   -9.2671 O.2       2 ALA2        0.0000 
     20 OG         23.0732    5.5992   -9.3749 O.2       1 SER1        0.0000 
     21 CA         18.8364    7.6490   -8.7855 C.3       5 GLY6        0.0000 
     22 O          19.9109    6.6079   -8.8932 O.2       2 ALA2        0.0000 
     23 O          20.9853    5.5668   -9.0010 O.2       2 ALA2        0.0000 
     24 O          22.0598    4.5257   -9.1087 O.2       2 ALA2        0.0000 
     25 O          24.7770    9.7427  -11.5378 O.2       2 ALA2        0.0000 
     26 CZ         23.7636    8.6693  -11.2717 C.ar      4 PHE5        0.0000 
     27 CZ         24.8381    7.6282  -11.3794 C.ar      4 PHE5        0.0000 
     28 OD1        22.7503    7.5958  -11.0055 O.3       3 ASP3        0.0000 
     29 OG         23.8247    6.5548  -11.1133 O.2       1 SER1        0.0000 
     30 OG         24.8992    5.5137  -11.2210 O.2       1 SER1        0.0000 
     31 OG         25.9737    4.4726  -11.3288 O.2       1 SER1        0.0000 
     32 OD1        20.6624    7.5635  -10.6316 O.3       3 ASP3        0.0000 
     33 OD1        21.7369    6.5224  -10.7394 O.3       3 ASP3        0.0000 
     34 OG         22.8114    5.4813  -10.8471 O.2       1 SER1        0.0000 
     35 O          23.8859    4.4402  -10.9549 O.2       2 ALA2        0.0000 
     36 OG         20.7235    5.4490  -10.4732 O.2       1 SER1        0.0000 
     37 OG         21.7980    4.4079  -10.5810 O.2       1 SER1        0.0000 
     38 O          24.5152    9.6249  -13.0101 O.2       2 ALA2        0.0000 
     39 OD1        23.5018    8.5514  -12.7439 O.3       3 ASP3        0.0000 
     40 CZ         24.5763    7.5103  -12.8517 C.ar      4 PHE5        0.0000 
     41 CZ         25.6508    6.4693  -12.9594 C.ar      4 PHE5        0.0000 
     42 OD1        22.4884    7.4780  -12.4778 O.3       3 ASP3        0.0000 
     43 DU         23.5629    6.4369  -12.5855 H         6 CUB7        0.0000 
     44 CZ         24.6374    5.3958  -12.6933 C.ar      4 PHE5        0.0000 
     45 CZ         25.7119    4.3547  -12.8010 C.ar      4 PHE5        0.0000 
     46 CA         26.7864    3.3137  -12.9088 C.3       5 GLY6        0.0000 
     47 CA         21.4751    6.4046  -12.2116 C.3       5 GLY6        0.0000 
     48 OG         22.5496    5.3635  -12.3194 O.2       1 SER1        0.0000 
     49 OG         23.6240    4.3224  -12.4272 O.2       1 SER1        0.0000 
     50 CA         24.6985    3.2813  -12.5349 C.3       5 GLY6        0.0000 
     51 N          25.7730    2.2402  -12.6427 N.2       2 ALA2        0.0000 
     52 O          25.3278    8.4659  -14.5901 O.2       2 ALA2        0.0000 
     53 CZ         26.4023    7.4248  -14.6978 C.ar      4 PHE5        0.0000 
     54 OG         24.3145    7.3925  -14.3239 O.2       1 SER1        0.0000 
     55 CZ         25.3890    6.3514  -14.4317 C.ar      4 PHE5        0.0000 
     56 CZ         26.4634    5.3103  -14.5395 C.ar      4 PHE5        0.0000 
     57 N          27.5379    4.2692  -14.6472 N.2       2 ALA2        0.0000 
     58 CA         23.3011    6.3191  -14.0578 C.3       5 GLY6        0.0000 
     59 CA         24.3756    5.2780  -14.1656 C.3       5 GLY6        0.0000 
     60 CA         25.4501    4.2369  -14.2733 C.3       5 GLY6        0.0000 
     61 CA         26.5246    3.1958  -14.3811 C.3       5 GLY6        0.0000 
     62 CA         22.2877    5.2456  -13.7917 C.3       5 GLY6        0.0000 
     63 CA         24.4367    3.1635  -14.0072 C.3       5 GLY6        0.0000 
     64 CA         25.5112    2.1224  -14.1149 C.3       5 GLY6        0.0000 
     65 O          26.1405    7.3070  -16.1701 O.2       2 ALA2        0.0000 
     66 N          27.2150    6.2659  -16.2779 N.2       2 ALA2        0.0000 
     67 CA         25.1271    6.2336  -15.9040 C.3       5 GLY6        0.0000 
     68 CA         26.2016    5.1925  -16.0117 C.3       5 GLY6        0.0000 
     69 CA         27.2761    4.1514  -16.1195 C.3       5 GLY6        0.0000 
     70 CA         26.2627    3.0780  -15.8533 C.3       5 GLY6        0.0000 
     71 O          26.9532    6.1481  -17.7501 O.2       2 ALA2        0.0000 
     72 CA         25.9398    5.0746  -17.4840 C.3       5 GLY6        0.0000 
     73 CA         27.0143    4.0335  -17.5917 C.3       5 GLY6        0.0000 
@<TRIPOS>BOND
@<TRIPOS>SUBSTRUCTURE
     1 SER1        1 GROUP   
     2 ALA2        3 GROUP   
     3 ASP3       12 GROUP   
     4 PHE5       10 GROUP   
     5 GLY6       11 GROUP   
     6 CUB7        2 GROUP   
@<TRIPOS>SET

