#    Name: 1spa_NPL_1_INTS_M
#    Modification time : Tue Mar 25 02:37:00 2014

@<TRIPOS>MOLECULE
1spa_NPL_1_INTS_M
   58     0    12     0     0
SMALL
NO_CHARGES


@<TRIPOS>ATOM
      1 CA         25.3665    1.7120  -12.1455 C.3       4 GLC5        0.0000 
      2 CA         26.5090    2.5160  -13.8360 C.3      12 GLL5        0.0000 
      3 CA         24.2240    0.9080  -10.4550 C.3       8 GLP5        0.0000 
      4 CA         28.0550    2.6805  -12.7385 C.3       4 GLC5        0.0000 
      5 CA         29.6010    2.8450  -11.6410 C.3       8 GLP5        0.0000 
      6 CA         27.6330    2.1445  -15.3970 C.3       4 GLC5        0.0000 
      7 CA         28.7570    1.7730  -16.9580 C.3       8 GLP5        0.0000 
      8 CA         24.7540    3.2460  -14.9320 C.3       4 GLC5        0.0000 
      9 CA         22.9990    3.9760  -16.0280 C.3       8 GLP5        0.0000 
     10 CA         27.8570    5.7625  -14.2865 C.3       4 GLC5        0.0000 
     11 CA         27.1530    4.5280  -15.9650 C.3      12 GLL5        0.0000 
     12 CA         28.5610    6.9970  -12.6080 C.3       8 GLP5        0.0000 
     13 CA         29.0170    4.7620  -14.8255 C.3       4 GLC5        0.0000 
     14 CA         30.8810    4.9960  -13.6860 C.3       8 GLP5        0.0000 
     15 CA         27.9550    3.1505  -16.4615 C.3       4 GLC5        0.0000 
     16 CA         27.4520    7.6200  -14.9505 C.3       4 GLC5        0.0000 
     17 CA         25.8890    6.1830  -14.6690 C.3      12 GLL5        0.0000 
     18 CA         29.0150    9.0570  -15.2320 C.3       8 GLP5        0.0000 
     19 CA         25.9755    8.4735  -12.7075 C.3       4 GLC5        0.0000 
     20 CA         24.4100    7.9230  -13.5350 C.3      12 GLL5        0.0000 
     21 CA         27.5410    9.0240  -11.8800 C.3       8 GLP5        0.0000 
     22 CA         22.2000    7.9375  -13.5730 C.3       4 GLC5        0.0000 
     23 CA         19.9900    7.9520  -13.6110 C.3       8 GLP5        0.0000 
     24 O          23.8460    8.7835  -15.3840 O.2       1 ALC1        0.0000 
     25 O          24.9260    8.9750  -14.2320 O.2       9 ALL1        0.0000 
     26 O          22.7660    8.5920  -16.5360 O.2       5 ALP1        0.0000 
     27 CA         25.6435    6.5070  -10.9875 C.3       4 GLC5        0.0000 
     28 CA         23.7420    5.9150  -11.5130 C.3      12 GLL5        0.0000 
     29 CA         27.5450    7.0990  -10.4620 C.3       8 GLP5        0.0000 
     30 N          21.9480    3.6140  -11.5345 N.am      2 SEC2        0.0000 
     31 N          23.1200    4.7150  -11.0810 N.am     10 SEL2        0.0000 
     32 N          20.7760    2.5130  -11.9880 N.am      6 SEP2        0.0000 
     33 NZ         23.1815    4.5635   -7.3180 N.4       3 LYC4        0.0000 
     34 NZ         23.5070    4.5370   -8.6170 N.4      11 LYL4        0.0000 
     35 NZ         21.5780    4.6090   -5.6700 N.4       7 LYP4        0.0000 
     36 N          24.5750    3.5220   -8.8400 N.am      2 SEC2        0.0000 
     37 N          23.5070    4.5370   -8.6170 N.am     10 SEL2        0.0000 
     38 N          25.6430    2.5070   -9.0630 N.am      6 SEP2        0.0000 
     39 N          24.8685    4.8145   -8.5865 N.am      2 SEC2        0.0000 
     40 N          26.2300    5.0920   -8.5560 N.am      6 SEP2        0.0000 
     41 N          23.1815    4.5635   -7.3180 N.am      2 SEC2        0.0000 
     42 N          22.8560    4.5900   -6.0190 N.am      6 SEP2        0.0000 
     43 N          22.4150    2.3145   -9.7425 N.am      2 SEC2        0.0000 
     44 N          21.6750    3.4990   -9.9620 N.am     10 SEL2        0.0000 
     45 N          23.1550    1.1300   -9.5230 N.am      6 SEP2        0.0000 
     46 N          21.2255    3.0060  -10.9750 N.am      2 SEC2        0.0000 
     47 N          20.3110    3.6690   -9.8410 N.am      2 SEC2        0.0000 
     48 N          18.9470    3.8390   -9.7200 N.am      6 SEP2        0.0000 
     49 N          21.1785    5.3615   -8.0535 N.am      2 SEC2        0.0000 
     50 N          21.7390    5.9680   -9.5130 N.am     10 SEL2        0.0000 
     51 N          20.6180    4.7550   -6.5940 N.am      6 SEP2        0.0000 
     52 CA         24.7145    2.5950  -11.5975 C.3       4 GLC5        0.0000 
     53 CA         25.2050    4.2820  -12.7400 C.3      12 GLL5        0.0000 
     54 CA         24.8795    4.3438  -15.6898 C.3       4 GLC5        0.0000 
     55 CA         26.3670    4.8950  -14.7380 C.3      12 GLL5        0.0000 
     56 CA         24.2327    5.1667  -15.0867 C.3       4 GLC5        0.0000 
     57 CA         23.9763    4.4502  -14.3648 C.3       4 GLC5        0.0000 
     58 CA         24.7020    5.5670  -12.6630 C.3      12 GLL5        0.0000 
@<TRIPOS>BOND
@<TRIPOS>SUBSTRUCTURE
     1 ALC1       24 GROUP        1 X    ALC  0     ROOT ALC X 1
     2 SEC2       30 GROUP        1 X    SEC  0     **** SEC X 2
     3 LYC4       33 GROUP        1 X    LYC  0     **** LYC X 4
     4 GLC5        1 GROUP        1 X    GLC  0     **** GLC X 6
     5 ALP1       26 GROUP        1 Y    ALP  0     ROOT ALP Y 8
     6 SEP2       32 GROUP        1 Y    SEP  0     **** SEP Y 9
     7 LYP4       35 GROUP        1 Y    LYP  0     **** LYP Y 11
     8 GLP5        3 GROUP        1 Y    GLP  0     **** GLP Y 13
     9 ALL1       25 GROUP        1 Z    ALL  0     ROOT ALL Z 15
    10 SEL2       31 GROUP        1 Z    SEL  0     **** SEL Z 16
    11 LYL4       34 GROUP        1 Z    LYL  0     **** LYL Z 18
    12 GLL5        2 GROUP        1 Z    GLL  0     **** GLL Z 20
@<TRIPOS>SET

