#    Name: 1spa_NPL_1_ligand
#    Modification time : Tue Mar 25 02:37:00 2014

@<TRIPOS>MOLECULE
1spa_NPL_1_ligand
   32    32     1     0     0
SMALL
NO_CHARGES


@<TRIPOS>ATOM
      1 N1         26.0320    3.9390  -13.7670 N.pl3     1 NPL413      0.0000 
      2 C1         26.5090    2.5160  -13.8360 C.3       1 NPL413      0.0000 
      3 C2         26.3670    4.8950  -14.7380 C.ar      1 NPL413      0.0000 
      4 C2A        27.1530    4.5280  -15.9650 C.3       1 NPL413      0.0000 
      5 C3         25.8890    6.1830  -14.6690 C.ar      1 NPL413      0.0000 
      6 O3         26.3020    7.0990  -15.6400 O.3       1 NPL413      0.0000 
      7 C4         25.0440    6.5320  -13.6220 C.ar      1 NPL413      0.0000 
      8 C4A        24.4100    7.9230  -13.5350 C.3       1 NPL413      0.0000 
      9 N4         24.9260    8.9750  -14.2320 N.4       1 NPL413      0.0000 
     10 C5         24.7020    5.5670  -12.6630 C.ar      1 NPL413      0.0000 
     11 C5A        23.7420    5.9150  -11.5130 C.3       1 NPL413      0.0000 
     12 O4P        23.1200    4.7150  -11.0810 O.3       1 NPL413      0.0000 
     13 P          22.5140    4.6560   -9.6930 P.3       1 NPL413      0.0000 
     14 O1P        23.5070    4.5370   -8.6170 O.co2     1 NPL413      0.0000 
     15 O2P        21.6750    3.4990   -9.9620 O.co2     1 NPL413      0.0000 
     16 O3P        21.7390    5.9680   -9.5130 O.co2     1 NPL413      0.0000 
     17 C6         25.2050    4.2820  -12.7400 C.ar      1 NPL413      0.0000 
     18 H          24.3447    8.1542  -12.4065 H         1 NPL413      0.0000 
     19 H          23.2938    7.7609  -13.7780 H         1 NPL413      0.0000 
     20 H          23.0235    6.6402  -11.8936 H         1 NPL413      0.0000 
     21 H          24.3305    6.3835  -10.7249 H         1 NPL413      0.0000 
     22 H          24.9494    3.5902  -12.0167 H         1 NPL413      0.0000 
     23 H          27.5073    2.4582  -13.8302 H         1 NPL413      0.0000 
     24 H          26.1797    1.9759  -13.0615 H         1 NPL413      0.0000 
     25 H          26.1937    2.0585  -14.6675 H         1 NPL413      0.0000 
     26 H          28.0495    4.1506  -15.7327 H         1 NPL413      0.0000 
     27 H          26.6802    3.8415  -16.5174 H         1 NPL413      0.0000 
     28 H          27.3121    5.3198  -16.5547 H         1 NPL413      0.0000 
     29 H          25.7259    8.7079  -14.7694 H         1 NPL413      0.0000 
     30 H          24.2595    9.3605  -14.8701 H         1 NPL413      0.0000 
     31 H          25.2144    9.7164  -13.6261 H         1 NPL413      0.0000 
     32 H          26.1426    6.6393  -16.5137 H         1 NPL413      0.0000 
@<TRIPOS>BOND
     1    2    1 1    
     2    3    1 ar   
     3   17    1 ar   
     4   23    2 1    
     5   24    2 1    
     6   25    2 1    
     7    4    3 1    
     8    5    3 ar   
     9   26    4 1    
    10   27    4 1    
    11   28    4 1    
    12    6    5 1    
    13    7    5 ar   
    14   32    6 1    
    15    8    7 1    
    16   10    7 ar   
    17    9    8 1    
    18   18    8 1    
    19   19    8 1    
    20   29    9 1    
    21   30    9 1    
    22   31    9 1    
    23   11   10 1    
    24   17   10 ar   
    25   12   11 1    
    26   20   11 1    
    27   21   11 1    
    28   13   12 1    
    29   14   13 ar   
    30   15   13 ar   
    31   16   13 ar   
    32   22   17 1    
@<TRIPOS>SUBSTRUCTURE
     1 NPL413      1 GROUP   
@<TRIPOS>SET

