#    Name: 1bl6_SB6_1_INTS_M
#    Modification time : Mon Mar 24 19:37:13 2014

@<TRIPOS>MOLECULE
1bl6_SB6_1_INTS_M
   50     0     6     0     0
SMALL
NO_CHARGES


@<TRIPOS>ATOM
      1 CA          9.8555   10.4785   31.1485 C.3       2 GLC5        0.0000 
      2 CA          7.9390   10.9520   30.2500 C.3       6 GLL5        0.0000 
      3 CA         11.7720   10.0050   32.0470 C.3       4 GLP5        0.0000 
      4 CA          8.6465    9.4155   29.3050 C.3       2 GLC5        0.0000 
      5 CA          9.3540    7.8790   28.3600 C.3       4 GLP5        0.0000 
      6 CA          7.2810    9.4315   31.1315 C.3       2 GLC5        0.0000 
      7 CA          6.6230    7.9110   32.0130 C.3       4 GLP5        0.0000 
      8 CA          7.9020   13.2745   32.3615 C.3       2 GLC5        0.0000 
      9 CA          6.2980   12.3920   31.2320 C.3       6 GLL5        0.0000 
     10 CA          9.5060   14.1570   33.4910 C.3       4 GLP5        0.0000 
     11 CA          0.3595    7.4400   27.7655 C.3       2 GLC5        0.0000 
     12 CA          0.2710    9.1030   28.8640 C.3       6 GLL5        0.0000 
     13 CA          0.4480    5.7770   26.6670 C.3       4 GLP5        0.0000 
     14 N           0.1995    7.0115   30.4885 N.am      1 SEC2        0.0000 
     15 N           0.6480    8.2870   29.8690 N.am      5 SEL2        0.0000 
     16 N          -0.2490    5.7360   31.1080 N.am      3 SEP2        0.0000 
     17 CA          1.3220    6.7555   30.2875 C.3       2 GLC5        0.0000 
     18 CA          1.2490    8.7450   30.9850 C.3       6 GLL5        0.0000 
     19 CA          1.3950    4.7660   29.5900 C.3       4 GLP5        0.0000 
     20 CA          1.2505   10.9190   26.9190 C.3       2 GLC5        0.0000 
     21 CA          0.4990   10.5010   28.9430 C.3       6 GLL5        0.0000 
     22 CA          2.0020   11.3370   24.8950 C.3       4 GLP5        0.0000 
     23 CA          0.7275   13.6095   26.4030 C.3       2 GLC5        0.0000 
     24 CA         -1.0040   13.4460   27.6070 C.3       6 GLL5        0.0000 
     25 CA          2.4590   13.7730   25.1990 C.3       4 GLP5        0.0000 
     26 CA          8.8600   11.7715   29.5250 C.3       2 GLC5        0.0000 
     27 CA          6.6870   11.4820   30.2200 C.3       6 GLL5        0.0000 
     28 CA         10.4070   12.3260   28.8150 C.3       4 GLP5        0.0000 
     29 CA          5.5285   14.0457   29.8975 C.3       2 GLC5        0.0000 
     30 CA          5.4100   15.4210   28.5640 C.3       4 GLP5        0.0000 
     31 CA          5.4810   12.0448   32.8685 C.3       2 GLC5        0.0000 
     32 CA          4.9960   12.9490   31.2300 C.3       6 GLL5        0.0000 
     33 CA          5.3150   11.4190   34.5060 C.3       4 GLP5        0.0000 
     34 CA          5.9013   10.2130   31.1035 C.3       2 GLC5        0.0000 
     35 CA          5.3100    8.4890   31.4810 C.3       4 GLP5        0.0000 
     36 CA          6.2952   12.4145   27.9960 C.3       2 GLC5        0.0000 
     37 CA          6.3590   13.5260   26.2900 C.3       4 GLP5        0.0000 
     38 CA          4.2177    9.7035   28.4370 C.3       2 GLC5        0.0000 
     39 CA          5.7760   11.1240   29.1840 C.3       6 GLL5        0.0000 
     40 CA          3.3140    8.0050   27.6930 C.3       4 GLP5        0.0000 
     41 CA          5.2157    9.9455   30.3310 C.3       2 GLC5        0.0000 
     42 CA          4.4670   11.6800   29.1780 C.3       6 GLL5        0.0000 
     43 CA          4.9153   10.6340   31.1010 C.3       2 GLC5        0.0000 
     44 CA          4.0450   12.6090   30.2120 C.3       6 GLL5        0.0000 
     45 CA          3.3460    8.9630   31.2752 C.3       2 GLC5        0.0000 
     46 CA          0.8025    8.2415   32.3773 C.3       2 GLC5        0.0000 
     47 CA          0.2230    7.0460   33.6850 C.3       4 GLP5        0.0000 
     48 CA          4.4488   14.0386   29.2650 C.3       2 GLC5        0.0000 
     49 CA          2.1926    8.9679   28.9909 C.3       2 GLC5        0.0000 
     50 CA          1.1360   11.0470   30.1130 C.3       6 GLL5        0.0000 
@<TRIPOS>BOND
@<TRIPOS>SUBSTRUCTURE
     1 SEC2       14 GROUP        1 X    SEC  0     ROOT SEC X 2
     2 GLC5        1 GROUP        1 X    GLC  0     **** GLC X 6
     3 SEP2       16 GROUP        1 Y    SEP  0     ROOT SEP Y 9
     4 GLP5        3 GROUP        1 Y    GLP  0     **** GLP Y 13
     5 SEL2       15 GROUP        1 Z    SEL  0     ROOT SEL Z 16
     6 GLL5        2 GROUP        1 Z    GLL  0     **** GLL Z 20
@<TRIPOS>SET

