#    Name: 1bl6_SB6_1_ligand
#    Modification time : Mon Mar 24 19:37:13 2014

@<TRIPOS>MOLECULE
1bl6_SB6_1_ligand
   38    41     1     0     0
SMALL
NO_CHARGES


@<TRIPOS>ATOM
      1 FA1         7.9390   10.9520   30.2500 F         1 SB6800      0.0000 
      2 CA1         6.2980   12.3920   31.2320 C.ar      1 SB6800      0.0000 
      3 CA2         6.6870   11.4820   30.2200 C.ar      1 SB6800      0.0000 
      4 CA3         5.7760   11.1240   29.1840 C.ar      1 SB6800      0.0000 
      5 CA4         4.4670   11.6800   29.1780 C.ar      1 SB6800      0.0000 
      6 CA5         4.0450   12.6090   30.2120 C.ar      1 SB6800      0.0000 
      7 CA6         4.9960   12.9490   31.2300 C.ar      1 SB6800      0.0000 
      8 CB1         0.2710    9.1030   28.8640 C.ar      1 SB6800      0.0000 
      9 NB2         0.6480    8.2870   29.8690 N.ar      1 SB6800      0.0000 
     10 CB3         1.2490    8.7450   30.9850 C.ar      1 SB6800      0.0000 
     11 CB4         1.5150   10.1290   31.1540 C.ar      1 SB6800      0.0000 
     12 CB5         1.1360   11.0470   30.1130 C.ar      1 SB6800      0.0000 
     13 CB6         0.4990   10.5010   28.9430 C.ar      1 SB6800      0.0000 
     14 NC1         0.3390   13.4600   30.3260 N.pl3     1 SB6800      0.0000 
     15 CC2         1.3880   12.4630   30.2470 C.2       1 SB6800      0.0000 
     16 CC3         2.7190   13.1680   30.2370 C.2       1 SB6800      0.0000 
     17 NC4         2.5030   14.5560   30.3210 N.2       1 SB6800      0.0000 
     18 CC5         1.1320   14.6060   30.3640 C.2       1 SB6800      0.0000 
     19 CD1        -1.1850   13.4020   30.3410 C.3       1 SB6800      0.0000 
     20 CE1        -1.8380   13.2980   28.9070 C.3       1 SB6800      0.0000 
     21 CE2        -1.0040   13.4460   27.6070 C.3       1 SB6800      0.0000 
     22 CE3        -1.9320   14.5780   28.0580 C.3       1 SB6800      0.0000 
     23 H           6.9595   12.6484   31.9676 H         1 SB6800      0.0000 
     24 H           6.0605   10.4772   28.4568 H         1 SB6800      0.0000 
     25 H           3.8054   11.4312   28.4430 H         1 SB6800      0.0000 
     26 H           4.7211   13.6076   31.9659 H         1 SB6800      0.0000 
     27 H          -0.1917    8.7359   28.0132 H         1 SB6800      0.0000 
     28 H           1.5331    8.1029   31.7486 H         1 SB6800      0.0000 
     29 H           1.9635   10.4732   31.9899 H         1 SB6800      0.0000 
     30 H           0.2205   11.1155   28.1904 H         1 SB6800      0.0000 
     31 H           0.6544   15.5370   30.4279 H         1 SB6800      0.0000 
     32 H          -1.5866   14.3011   30.8257 H         1 SB6800      0.0000 
     33 H          -1.5183   12.5331   30.9228 H         1 SB6800      0.0000 
     34 H          -2.6131   12.7716   28.6725 H         1 SB6800      0.0000 
     35 H          -1.4550   12.9593   26.9381 H         1 SB6800      0.0000 
     36 H          -0.1288   13.6750   27.8704 H         1 SB6800      0.0000 
     37 H          -1.3979   15.2337   28.4788 H         1 SB6800      0.0000 
     38 H          -2.7240   14.5180   27.5466 H         1 SB6800      0.0000 
@<TRIPOS>BOND
     1    3    1 1    
     2    3    2 ar   
     3    7    2 ar   
     4   23    2 1    
     5    4    3 ar   
     6    5    4 ar   
     7   24    4 1    
     8    6    5 ar   
     9   25    5 1    
    10    7    6 ar   
    11   16    6 1    
    12   26    7 1    
    13    9    8 ar   
    14   13    8 ar   
    15   27    8 1    
    16   10    9 ar   
    17   11   10 ar   
    18   28   10 1    
    19   12   11 ar   
    20   29   11 1    
    21   13   12 ar   
    22   15   12 1    
    23   30   13 1    
    24   15   14 1    
    25   18   14 1    
    26   19   14 1    
    27   16   15 2    
    28   17   16 1    
    29   18   17 2    
    30   31   18 1    
    31   20   19 1    
    32   32   19 1    
    33   33   19 1    
    34   21   20 1    
    35   22   20 1    
    36   34   20 1    
    37   22   21 1    
    38   35   21 1    
    39   36   21 1    
    40   37   22 1    
    41   38   22 1    
@<TRIPOS>SUBSTRUCTURE
     1 SB6800      1 GROUP   
@<TRIPOS>SET

