#    Name: 3jux_ADP_1_INTS_M
#    Modification time : Tue Mar 25 17:58:35 2014

@<TRIPOS>MOLECULE
3jux_ADP_1_INTS_M
   50     0    12     0     0
SMALL
NO_CHARGES


@<TRIPOS>ATOM
      1 N          21.3680   -0.6135   -1.1150 N.am      2 SEC2        0.0000 
      2 N          20.1820   -1.2200   -1.9990 N.am     10 SEL2        0.0000 
      3 N          22.5540   -0.0070   -0.2310 N.am      6 SEP2        0.0000 
      4 NZ         18.2370   -0.2025   -4.7040 N.4       3 LYC4        0.0000 
      5 NZ         19.4160   -1.2540   -4.4040 N.4      11 LYL4        0.0000 
      6 NZ         17.0580    0.8490   -5.0040 N.4       7 LYP4        0.0000 
      7 N          19.9805   -2.0260   -5.5875 N.am      2 SEC2        0.0000 
      8 N          19.4160   -1.2540   -4.4040 N.am     10 SEL2        0.0000 
      9 N          20.5450   -2.7980   -6.7710 N.am      6 SEP2        0.0000 
     10 N          21.0310   -1.6955   -4.7395 N.am      2 SEC2        0.0000 
     11 N          22.6460   -2.1370   -5.0750 N.am      6 SEP2        0.0000 
     12 NZ         17.4765   -0.6255   -3.7755 N.4       3 LYC4        0.0000 
     13 NZ         17.8950   -2.1000   -2.5470 N.4      11 LYL4        0.0000 
     14 N          21.3220   -2.7275   -4.1275 N.am      2 SEC2        0.0000 
     15 N          19.9980   -3.3180   -3.1800 N.am     10 SEL2        0.0000 
     16 CA         21.9135  -10.6510   -2.6690 C.3       4 GLC5        0.0000 
     17 CA         22.3570   -8.8110   -1.7110 C.3      12 GLL5        0.0000 
     18 CA         21.4700  -12.4910   -3.6270 C.3       8 GLP5        0.0000 
     19 CA         23.7225   -7.9690   -0.2875 C.3       4 GLC5        0.0000 
     20 CA         23.8190   -8.9350   -2.1010 C.3      12 GLL5        0.0000 
     21 CA         23.6260   -7.0030    1.5260 C.3       8 GLP5        0.0000 
     22 N          23.3435  -11.6365   -2.3660 N.am      2 SEC2        0.0000 
     23 N          24.2160  -10.3280   -2.1350 N.am     10 SEL2        0.0000 
     24 N          22.4710  -12.9450   -2.5970 N.am      6 SEP2        0.0000 
     25 N          26.6610   -3.9330   -3.6685 N.am      2 SEC2        0.0000 
     26 N          26.1570   -5.3740   -3.4550 N.am     10 SEL2        0.0000 
     27 N          27.1650   -2.4920   -3.8820 N.am      6 SEP2        0.0000 
     28 CA         29.4715   -6.8195   -2.4610 C.3       4 GLC5        0.0000 
     29 CA         28.5120   -6.3580   -4.0650 C.3      12 GLL5        0.0000 
     30 CA         30.4310   -7.2810   -0.8570 C.3       8 GLP5        0.0000 
     31 O          29.0255   -3.9515   -4.7260 O.2       1 ALC1        0.0000 
     32 O          29.2490   -5.2300   -4.0450 O.2       9 ALL1        0.0000 
     33 O          28.8020   -2.6730   -5.4070 O.2       5 ALP1        0.0000 
     34 CA         28.8520   -8.5155   -2.5575 C.3       4 GLC5        0.0000 
     35 CA         28.3370   -8.6940   -4.4050 C.3      12 GLL5        0.0000 
     36 CA         29.3670   -8.3370   -0.7100 C.3       8 GLP5        0.0000 
     37 CA         29.2485   -9.2905   -6.2585 C.3       4 GLC5        0.0000 
     38 CA         30.1600   -9.8870   -8.1120 C.3       8 GLP5        0.0000 
     39 CA         19.7728   -7.8130   -2.5945 C.3       4 GLC5        0.0000 
     40 CA         21.5510   -6.5400   -1.9570 C.3      12 GLL5        0.0000 
     41 CA         17.8930   -8.4390   -2.8580 C.3       8 GLP5        0.0000 
     42 CA         22.2784   -7.1120   -0.4185 C.3       4 GLC5        0.0000 
     43 CA         21.7540   -7.8340   -2.7050 C.3      12 GLL5        0.0000 
     44 CA         22.5520   -6.2250    1.1840 C.3       8 GLP5        0.0000 
     45 CA         27.2320   -7.3265   -1.9890 C.3       4 GLC5        0.0000 
     46 CA         26.3180   -7.6070   -3.8370 C.3      12 GLL5        0.0000 
     47 CA         27.7770   -7.6880   -0.1730 C.3       8 GLP5        0.0000 
     48 CA         28.3945   -5.0738   -2.5405 C.3       4 GLC5        0.0000 
     49 CA         27.0560   -6.3230   -3.7730 C.3      12 GLL5        0.0000 
     50 CA         29.0050   -3.8070   -1.1620 C.3       8 GLP5        0.0000 
@<TRIPOS>BOND
@<TRIPOS>SUBSTRUCTURE
     1 ALC1       31 GROUP        1 X    ALC  0     ROOT ALC X 1
     2 SEC2        1 GROUP        1 X    SEC  0     **** SEC X 2
     3 LYC4        4 GROUP        1 X    LYC  0     **** LYC X 4
     4 GLC5       16 GROUP        1 X    GLC  0     **** GLC X 6
     5 ALP1       33 GROUP        1 Y    ALP  0     ROOT ALP Y 8
     6 SEP2        3 GROUP        1 Y    SEP  0     **** SEP Y 9
     7 LYP4        6 GROUP        1 Y    LYP  0     **** LYP Y 11
     8 GLP5       18 GROUP        1 Y    GLP  0     **** GLP Y 13
     9 ALL1       32 GROUP        1 Z    ALL  0     ROOT ALL Z 15
    10 SEL2        2 GROUP        1 Z    SEL  0     **** SEL Z 16
    11 LYL4        5 GROUP        1 Z    LYL  0     **** LYL Z 18
    12 GLL5       17 GROUP        1 Z    GLL  0     **** GLL Z 20
@<TRIPOS>SET

