#    Name: 3jux_ADP_1_ligand
#    Modification time : Tue Mar 25 17:58:35 2014

@<TRIPOS>MOLECULE
3jux_ADP_1_ligand
   39    41     1     0     0
SMALL
NO_CHARGES


@<TRIPOS>ATOM
      1 PB         19.3050   -1.8640   -3.0340 P.3       1 ADP873      0.0000 
      2 O1B        20.1820   -1.2200   -1.9990 O.co2     1 ADP873      0.0000 
      3 O2B        19.4160   -1.2540   -4.4040 O.co2     1 ADP873      0.0000 
      4 O3B        17.8950   -2.1000   -2.5470 O.co2     1 ADP873      0.0000 
      5 PA         20.6680   -4.1670   -1.9680 P.3       1 ADP873      0.0000 
      6 O1A        21.9590   -3.5400   -1.5000 O.co2     1 ADP873      0.0000 
      7 O2A        19.6460   -4.5480   -0.9180 O.co2     1 ADP873      0.0000 
      8 O3A        19.9980   -3.3180   -3.1800 O.3       1 ADP873      0.0000 
      9 O5'        21.0310   -5.5040   -2.7680 O.3       1 ADP873      0.0000 
     10 C5'        21.5510   -6.5400   -1.9570 C.3       1 ADP873      0.0000 
     11 C4'        21.7540   -7.8340   -2.7050 C.3       1 ADP873      0.0000 
     12 O4'        22.6920   -7.5990   -3.7410 O.3       1 ADP873      0.0000 
     13 C3'        22.3570   -8.8110   -1.7110 C.3       1 ADP873      0.0000 
     14 O3'        21.6620  -10.0700   -1.7620 O.3       1 ADP873      0.0000 
     15 C2'        23.8190   -8.9350   -2.1010 C.3       1 ADP873      0.0000 
     16 O2'        24.2160  -10.3280   -2.1350 O.3       1 ADP873      0.0000 
     17 C1'        23.9160   -8.2830   -3.4800 C.3       1 ADP873      0.0000 
     18 N9         25.0400   -7.3190   -3.5420 N.pl3     1 ADP873      0.0000 
     19 C8         24.9480   -5.9940   -3.3220 C.2       1 ADP873      0.0000 
     20 N7         26.1570   -5.3740   -3.4550 N.2       1 ADP873      0.0000 
     21 C5         27.0560   -6.3230   -3.7730 C.ar      1 ADP873      0.0000 
     22 C6         28.5120   -6.3580   -4.0650 C.ar      1 ADP873      0.0000 
     23 N6         29.2490   -5.2300   -4.0450 N.pl3     1 ADP873      0.0000 
     24 N1         29.0750   -7.5580   -4.3690 N.ar      1 ADP873      0.0000 
     25 C2         28.3370   -8.6940   -4.4050 C.ar      1 ADP873      0.0000 
     26 N3         27.0080   -8.7400   -4.1510 N.ar      1 ADP873      0.0000 
     27 C4         26.3180   -7.6070   -3.8370 C.ar      1 ADP873      0.0000 
     28 H          20.8820   -6.7521   -1.0917 H         1 ADP873      0.0000 
     29 H          22.5298   -6.2521   -1.5095 H         1 ADP873      0.0000 
     30 H          20.8332   -8.1973   -3.0432 H         1 ADP873      0.0000 
     31 H          22.3064   -8.3573   -0.7373 H         1 ADP873      0.0000 
     32 H          24.3985   -8.3599   -1.4159 H         1 ADP873      0.0000 
     33 H          24.0733   -9.0681   -4.2060 H         1 ADP873      0.0000 
     34 H          24.1156   -5.5204   -3.0927 H         1 ADP873      0.0000 
     35 H          29.0037   -4.5321   -4.7179 H         1 ADP873      0.0000 
     36 H          29.9756   -5.1912   -3.3590 H         1 ADP873      0.0000 
     37 H          28.8337   -9.6069   -4.6482 H         1 ADP873      0.0000 
     38 H          22.3545  -10.7368   -2.0372 H         1 ADP873      0.0000 
     39 H          25.0686  -10.3413   -2.6574 H         1 ADP873      0.0000 
@<TRIPOS>BOND
     1    2    1 ar   
     2    3    1 ar   
     3    4    1 ar   
     4    8    1 1    
     5    6    5 ar   
     6    7    5 ar   
     7    8    5 1    
     8    9    5 1    
     9   10    9 1    
    10   11   10 1    
    11   28   10 1    
    12   29   10 1    
    13   12   11 1    
    14   13   11 1    
    15   30   11 1    
    16   17   12 1    
    17   14   13 1    
    18   15   13 1    
    19   31   13 1    
    20   38   14 1    
    21   16   15 1    
    22   17   15 1    
    23   32   15 1    
    24   39   16 1    
    25   18   17 1    
    26   33   17 1    
    27   19   18 1    
    28   27   18 1    
    29   20   19 2    
    30   34   19 1    
    31   21   20 1    
    32   22   21 ar   
    33   27   21 ar   
    34   23   22 1    
    35   24   22 ar   
    36   35   23 1    
    37   36   23 1    
    38   25   24 ar   
    39   26   25 ar   
    40   37   25 1    
    41   27   26 ar   
@<TRIPOS>SUBSTRUCTURE
     1 ADP873      1 GROUP   
@<TRIPOS>SET

