#    Name: 4f9m_FCM_1_INTS_M
#    Modification time : Mon Mar 24 19:09:23 2014

@<TRIPOS>MOLECULE
4f9m_FCM_1_INTS_M
  100     0     6     0     0
SMALL
NO_CHARGES


@<TRIPOS>ATOM
      1 CA         17.5345   49.2045   65.5035 C.3       2 GLC5        0.0000 
      2 CA         16.4150   50.3770   64.2020 C.3       6 GLL5        0.0000 
      3 CA         18.6540   48.0320   66.8050 C.3       4 GLP5        0.0000 
      4 CA         14.5285   50.5675   64.0390 C.3       2 GLC5        0.0000 
      5 CA         12.6420   50.7580   63.8760 C.3       4 GLP5        0.0000 
      6 CA         15.9315   52.2615   61.8285 C.3       2 GLC5        0.0000 
      7 CA         16.6710   50.3030   61.6670 C.3       6 GLL5        0.0000 
      8 CA         15.1920   54.2200   61.9900 C.3       4 GLP5        0.0000 
      9 CA         14.1310   49.1730   59.6815 C.3       2 GLC5        0.0000 
     10 CA         14.1980   47.6050   61.2810 C.3       6 GLL5        0.0000 
     11 CA         14.0640   50.7410   58.0820 C.3       4 GLP5        0.0000 
     12 CA         10.4985   47.3350   61.1995 C.3       2 GLC5        0.0000 
     13 CA         12.2090   46.2470   61.4660 C.3       6 GLL5        0.0000 
     14 CA          8.7880   48.4230   60.9330 C.3       4 GLP5        0.0000 
     15 CA         10.5410   46.1450   63.9060 C.3       2 GLC5        0.0000 
     16 CA         12.4380   46.1060   62.8330 C.3       6 GLL5        0.0000 
     17 CA          8.6440   46.1840   64.9790 C.3       4 GLP5        0.0000 
     18 CA         18.3965   49.8245   66.2415 C.3       2 GLC5        0.0000 
     19 CA         18.1390   51.6170   65.6780 C.3       6 GLL5        0.0000 
     20 N          15.6150   49.6865   67.5230 N.am      1 SEC2        0.0000 
     21 N          15.9460   50.9470   66.4340 N.am      5 SEL2        0.0000 
     22 N          15.2840   48.4260   68.6120 N.am      3 SEP2        0.0000 
     23 CA         17.8940   45.7775   63.8495 C.3       2 GLC5        0.0000 
     24 CA         16.8930   47.2990   63.0820 C.3       6 GLL5        0.0000 
     25 CA         18.8950   44.2560   64.6170 C.3       4 GLP5        0.0000 
     26 CA         17.7735   47.6655   64.9435 C.3       2 GLC5        0.0000 
     27 CA         16.2245   45.2200   62.7135 C.3       2 GLC5        0.0000 
     28 CA         15.5560   43.1410   62.3450 C.3       4 GLP5        0.0000 
     29 CA         12.7260   48.6915   57.1115 C.3       2 GLC5        0.0000 
     30 CA         11.2420   47.3760   57.4760 C.3       6 GLL5        0.0000 
     31 CA         14.2100   50.0070   56.7470 C.3       4 GLP5        0.0000 
     32 CA          5.5360   45.1040   56.1990 C.3       2 GLC5        0.0000 
     33 CA          6.6730   45.0640   57.8710 C.3       6 GLL5        0.0000 
     34 CA          4.3990   45.1440   54.5270 C.3       4 GLP5        0.0000 
     35 CA          7.8880   43.2825   59.4680 C.3       2 GLC5        0.0000 
     36 CA          8.0140   44.6490   57.9920 C.3       6 GLL5        0.0000 
     37 CA          7.7620   41.9160   60.9440 C.3       4 GLP5        0.0000 
     38 CA          9.7320   45.7945   55.8495 C.3       2 GLC5        0.0000 
     39 CA          9.0680   45.5620   57.8170 C.3       6 GLL5        0.0000 
     40 CA         10.3960   46.0270   53.8820 C.3       4 GLP5        0.0000 
     41 CA          9.3505   45.8555   63.3935 C.3       2 GLC5        0.0000 
     42 CA         10.0570   45.5270   61.8080 C.3       6 GLL5        0.0000 
     43 CA          9.4225   46.9750   61.3705 C.3       2 GLC5        0.0000 
     44 CA         10.5690   44.0470   62.9580 C.3       2 GLC5        0.0000 
     45 CA         11.0810   42.5670   64.1080 C.3       4 GLP5        0.0000 
     46 CA          8.9020   44.2045   62.5295 C.3       2 GLC5        0.0000 
     47 CA          7.7470   42.8820   63.2510 C.3       4 GLP5        0.0000 
     48 CA         10.4865   50.4400   58.8215 C.3       2 GLC5        0.0000 
     49 CA         10.5420   50.1810   56.8370 C.3       6 GLL5        0.0000 
     50 CA         10.4310   50.6990   60.8060 C.3       4 GLP5        0.0000 
     51 CA         10.5320   52.2900   56.6155 C.3       2 GLC5        0.0000 
     52 CA         10.5220   54.3990   56.3940 C.3       4 GLP5        0.0000 
     53 CA          4.8960   50.1975   58.2590 C.3       2 GLC5        0.0000 
     54 CA          5.8560   49.0810   56.9710 C.3       6 GLL5        0.0000 
     55 CA          3.9360   51.3140   59.5470 C.3       4 GLP5        0.0000 
     56 CA          4.5525   48.9085   56.2165 C.3       2 GLC5        0.0000 
     57 CA          3.2490   48.7360   55.4620 C.3       4 GLP5        0.0000 
     58 CA         11.4695   52.1805   55.6785 C.3       2 GLC5        0.0000 
     59 CA         10.9690   50.2610   55.3720 C.3       6 GLL5        0.0000 
     60 CA         11.9700   54.1000   55.9850 C.3       4 GLP5        0.0000 
     61 CA         10.0050   50.7135   53.7960 C.3       2 GLC5        0.0000 
     62 CA          9.0410   51.1660   52.2200 C.3       4 GLP5        0.0000 
     63 CA         15.1655   50.2135   59.8678 C.3       2 GLC5        0.0000 
     64 CA         15.8630   49.0690   61.6400 C.3       6 GLL5        0.0000 
     65 CA         14.2108   49.7050   63.0762 C.3       2 GLC5        0.0000 
     66 CA         13.8975   45.5395   60.3233 C.3       2 GLC5        0.0000 
     67 CA         14.1480   43.7760   59.6610 C.3       4 GLP5        0.0000 
     68 CA         14.7692   45.1118   62.6937 C.3       2 GLC5        0.0000 
     69 CA         14.4260   47.4580   62.6590 C.3       6 GLL5        0.0000 
     70 CA         13.2357   44.9763   60.9053 C.3       2 GLC5        0.0000 
     71 CA         12.8493   44.5907   63.9917 C.3       2 GLC5        0.0000 
     72 CA         12.7100   42.7750   64.8540 C.3       4 GLP5        0.0000 
     73 CA         13.2837   48.9386   63.2870 C.3       2 GLC5        0.0000 
     74 CA         13.5390   46.7070   63.4260 C.3       6 GLL5        0.0000 
     75 CA          9.6562   48.0068   59.1710 C.3       2 GLC5        0.0000 
     76 CA         10.4603   46.8087   55.6455 C.3       2 GLC5        0.0000 
     77 CA          9.8070   47.8050   57.3420 C.3       6 GLL5        0.0000 
     78 CA          8.8932   49.7810   58.8620 C.3       2 GLC5        0.0000 
     79 CA          9.4800   49.1400   57.0420 C.3       6 GLL5        0.0000 
     80 CA          8.9790   50.2190   60.7430 C.3       4 GLP5        0.0000 
     81 CA          7.7683   47.7385   55.4225 C.3       2 GLC5        0.0000 
     82 CA          8.1350   49.5460   56.9200 C.3       6 GLL5        0.0000 
     83 CA          7.9170   46.3950   53.8350 C.3       4 GLP5        0.0000 
     84 CA          8.0147   48.1930   59.0900 C.3       2 GLC5        0.0000 
     85 CA          7.1040   48.6180   57.1000 C.3       6 GLL5        0.0000 
     86 CA          7.9995   46.7445   55.6462 C.3       2 GLC5        0.0000 
     87 CA          7.3790   47.3080   57.3940 C.3       6 GLL5        0.0000 
     88 CA          8.8573   47.3220   59.3010 C.3       2 GLC5        0.0000 
     89 CA          8.7850   46.8800   57.5210 C.3       6 GLL5        0.0000 
     90 CA          7.2170   46.0628   55.7780 C.3       2 GLC5        0.0000 
     91 CA          6.3610   46.3970   57.5710 C.3       6 GLL5        0.0000 
     92 CA          5.9900   46.0188   59.5615 C.3       2 GLC5        0.0000 
     93 CA          5.4630   46.3070   61.4020 C.3       4 GLP5        0.0000 
     94 CA          5.5931   46.9275   56.0025 C.3       2 GLC5        0.0000 
     95 CA          4.3850   46.6750   54.5960 C.3       4 GLP5        0.0000 
     96 CA          9.7225   43.4278   58.1478 C.3       2 GLC5        0.0000 
     97 CA         10.9040   41.7500   58.3910 C.3       4 GLP5        0.0000 
     98 CA          7.9194   44.0416   56.4076 C.3       2 GLC5        0.0000 
     99 CA          7.6330   42.8740   54.9410 C.3       4 GLP5        0.0000 
    100 CA         12.4828   50.1140   56.4258 C.3       2 GLC5        0.0000 
@<TRIPOS>BOND
@<TRIPOS>SUBSTRUCTURE
     1 SEC2       20 GROUP        1 X    SEC  0     ROOT SEC X 2
     2 GLC5        1 GROUP        1 X    GLC  0     **** GLC X 6
     3 SEP2       22 GROUP        1 Y    SEP  0     ROOT SEP Y 9
     4 GLP5        3 GROUP        1 Y    GLP  0     **** GLP Y 13
     5 SEL2       21 GROUP        1 Z    SEL  0     ROOT SEL Z 16
     6 GLL5        2 GROUP        1 Z    GLL  0     **** GLL Z 20
@<TRIPOS>SET

