#    Name: 4f9m_FCM_1_ligand
#    Modification time : Mon Mar 24 19:09:23 2014

@<TRIPOS>MOLECULE
4f9m_FCM_1_ligand
   64    68     1     0     0
SMALL
NO_CHARGES


@<TRIPOS>ATOM
      1 C1         16.4150   50.3770   64.2020 C.2       1 FCM501      0.0000 
      2 C2         16.9040   50.9890   62.9480 C.2       1 FCM501      0.0000 
      3 C3         16.6710   50.3030   61.6670 C.2       1 FCM501      0.0000 
      4 C4         15.8630   49.0690   61.6400 C.2       1 FCM501      0.0000 
      5 C5         15.6960   48.2350   62.9130 C.3       1 FCM501      0.0000 
      6 C6         15.5750   49.1560   64.1490 C.2       1 FCM501      0.0000 
      7 O7         15.1830   48.3820   60.7000 O.3       1 FCM501      0.0000 
      8 C8         14.1980   47.6050   61.2810 C.ar      1 FCM501      0.0000 
      9 C9         14.4260   47.4580   62.6590 C.ar      1 FCM501      0.0000 
     10 C10        13.0960   47.0010   60.6900 C.ar      1 FCM501      0.0000 
     11 C11        12.2090   46.2470   61.4660 C.ar      1 FCM501      0.0000 
     12 C12        12.4380   46.1060   62.8330 C.ar      1 FCM501      0.0000 
     13 C13        13.5390   46.7070   63.4260 C.ar      1 FCM501      0.0000 
     14 O14        14.8560   48.8780   65.0990 O.2       1 FCM501      0.0000 
     15 C15        16.7570   50.9780   65.5140 C.2       1 FCM501      0.0000 
     16 C16        18.1390   51.6170   65.6780 C.3       1 FCM501      0.0000 
     17 O17        15.9460   50.9470   66.4340 O.2       1 FCM501      0.0000 
     18 O18        17.5580   52.1710   62.9700 O.co2     1 FCM501      0.0000 
     19 C19        16.8930   47.2990   63.0820 C.3       1 FCM501      0.0000 
     20 O20        13.7540   46.5550   64.7790 O.3       1 FCM501      0.0000 
     21 C21        12.8780   47.1630   59.2440 C.2       1 FCM501      0.0000 
     22 O22        13.7890   47.2300   58.4280 O.2       1 FCM501      0.0000 
     23 N23        11.5860   47.2260   58.8790 N.am      1 FCM501      0.0000 
     24 C24        11.2420   47.3760   57.4760 C.3       1 FCM501      0.0000 
     25 C25         9.8070   47.8050   57.3420 C.ar      1 FCM501      0.0000 
     26 C26         9.4800   49.1400   57.0420 C.ar      1 FCM501      0.0000 
     27 C27         8.1350   49.5460   56.9200 C.ar      1 FCM501      0.0000 
     28 C28         7.1040   48.6180   57.1000 C.ar      1 FCM501      0.0000 
     29 C29         7.3790   47.3080   57.3940 C.ar      1 FCM501      0.0000 
     30 C30         8.7850   46.8800   57.5210 C.ar      1 FCM501      0.0000 
     31 C31         6.3610   46.3970   57.5710 C.ar      1 FCM501      0.0000 
     32 C32         6.6730   45.0640   57.8710 C.ar      1 FCM501      0.0000 
     33 C33         8.0140   44.6490   57.9920 C.ar      1 FCM501      0.0000 
     34 C34         9.0680   45.5620   57.8170 C.ar      1 FCM501      0.0000 
     35 O35        11.1060   45.6380   60.8710 O.3       1 FCM501      0.0000 
     36 C36        10.0570   45.5270   61.8080 C.3       1 FCM501      0.0000 
     37 C37        10.5420   50.1810   56.8370 C.3       1 FCM501      0.0000 
     38 F38         5.8560   49.0810   56.9710 F         1 FCM501      0.0000 
     39 C39        10.9690   50.2610   55.3720 C.3       1 FCM501      0.0000 
     40 H          17.0557   50.6682   60.8228 H         1 FCM501      0.0000 
     41 H          11.7839   45.5512   63.4053 H         1 FCM501      0.0000 
     42 H          10.8129   47.1730   59.5492 H         1 FCM501      0.0000 
     43 H          11.3779   46.4299   56.9388 H         1 FCM501      0.0000 
     44 H          11.8801   48.1282   56.9972 H         1 FCM501      0.0000 
     45 H           7.9182   50.5222   56.6993 H         1 FCM501      0.0000 
     46 H           5.3798   46.6810   57.4863 H         1 FCM501      0.0000 
     47 H           5.9177   44.3792   58.0048 H         1 FCM501      0.0000 
     48 H           8.2224   43.6661   58.2110 H         1 FCM501      0.0000 
     49 H          10.0361   45.2401   57.9109 H         1 FCM501      0.0000 
     50 H          11.4186   49.9423   57.4467 H         1 FCM501      0.0000 
     51 H          10.1669   51.1606   57.1484 H         1 FCM501      0.0000 
     52 H          18.8741   50.9557   65.5282 H         1 FCM501      0.0000 
     53 H          18.2814   52.3653   65.0301 H         1 FCM501      0.0000 
     54 H          18.2670   51.9949   66.5950 H         1 FCM501      0.0000 
     55 H          17.7531   47.8046   63.1496 H         1 FCM501      0.0000 
     56 H          16.8148   46.7417   63.9086 H         1 FCM501      0.0000 
     57 H          16.9833   46.6687   62.3110 H         1 FCM501      0.0000 
     58 H          10.3225   44.9762   62.5993 H         1 FCM501      0.0000 
     59 H           9.7729   46.4208   62.1551 H         1 FCM501      0.0000 
     60 H           9.2472   45.0964   61.4096 H         1 FCM501      0.0000 
     61 H          11.6739   50.9555   55.2280 H         1 FCM501      0.0000 
     62 H          11.3424   49.3925   55.0460 H         1 FCM501      0.0000 
     63 H          10.2021   50.4933   54.7738 H         1 FCM501      0.0000 
     64 H          14.2021   47.4015   65.0664 H         1 FCM501      0.0000 
@<TRIPOS>BOND
     1    2    1 2    
     2    6    1 1    
     3   15    1 1    
     4    3    2 1    
     5   18    2 ar   
     6    4    3 2    
     7   40    3 1    
     8    5    4 1    
     9    7    4 1    
    10    6    5 1    
    11    9    5 1    
    12   19    5 1    
    13   14    6 2    
    14    8    7 1    
    15    9    8 ar   
    16   10    8 ar   
    17   13    9 ar   
    18   11   10 ar   
    19   21   10 1    
    20   12   11 ar   
    21   35   11 1    
    22   13   12 ar   
    23   41   12 1    
    24   20   13 1    
    25   16   15 1    
    26   17   15 2    
    27   52   16 1    
    28   53   16 1    
    29   54   16 1    
    30   55   19 1    
    31   56   19 1    
    32   57   19 1    
    33   64   20 1    
    34   22   21 2    
    35   23   21 am   
    36   24   23 1    
    37   42   23 1    
    38   25   24 1    
    39   43   24 1    
    40   44   24 1    
    41   26   25 ar   
    42   30   25 ar   
    43   27   26 ar   
    44   37   26 1    
    45   28   27 ar   
    46   45   27 1    
    47   29   28 ar   
    48   38   28 1    
    49   30   29 ar   
    50   31   29 ar   
    51   34   30 ar   
    52   32   31 ar   
    53   46   31 1    
    54   33   32 ar   
    55   47   32 1    
    56   34   33 ar   
    57   48   33 1    
    58   49   34 1    
    59   36   35 1    
    60   58   36 1    
    61   59   36 1    
    62   60   36 1    
    63   39   37 1    
    64   50   37 1    
    65   51   37 1    
    66   61   39 1    
    67   62   39 1    
    68   63   39 1    
@<TRIPOS>SUBSTRUCTURE
     1 FCM501      1 GROUP   
@<TRIPOS>SET

