#    Name: 4jnq_FDA_1_INTS_M
#    Modification time : Tue Mar 25 06:10:16 2014

@<TRIPOS>MOLECULE
4jnq_FDA_1_INTS_M
  110     0     9     0     0
SMALL
NO_CHARGES


@<TRIPOS>ATOM
      1 N          26.3590   12.7290   97.7380 N.am      2 SEC2        0.0000 
      2 N          27.2870   12.0700   98.7610 N.am      8 SEL2        0.0000 
      3 N          25.4310   13.3880   96.7150 N.am      5 SEP2        0.0000 
      4 CA         26.9620   14.8070   99.4795 C.3       3 GLC5        0.0000 
      5 CA         29.0420   15.1700  100.1690 C.3       9 GLL5        0.0000 
      6 CA         24.8820   14.4440   98.7900 C.3       6 GLP5        0.0000 
      7 CA         30.7885   14.5840   99.4370 C.3       3 GLC5        0.0000 
      8 CA         32.5350   13.9980   98.7050 C.3       6 GLP5        0.0000 
      9 CA         26.0525   15.6830   99.7270 C.3       3 GLC5        0.0000 
     10 CA         27.2230   16.9220  100.6640 C.3       9 GLL5        0.0000 
     11 N          26.3915   16.2995  102.9710 N.am      2 SEC2        0.0000 
     12 N          26.1050   16.8020  101.5420 N.am      8 SEL2        0.0000 
     13 N          26.6780   15.7970  104.4000 N.am      5 SEP2        0.0000 
     14 O          25.0375   17.2325  100.8200 O.2       1 ALC1        0.0000 
     15 O          26.1050   16.8020  101.5420 O.2       7 ALL1        0.0000 
     16 O          23.9700   17.6630  100.0980 O.2       4 ALP1        0.0000 
     17 N          25.5410   19.9825   99.9840 N.am      2 SEC2        0.0000 
     18 N          26.6940   19.2930  100.7250 N.am      8 SEL2        0.0000 
     19 N          24.3880   20.6720   99.2430 N.am      5 SEP2        0.0000 
     20 O          26.1320   19.3025  102.0425 O.2       1 ALC1        0.0000 
     21 O          26.6940   19.2930  100.7250 O.2       7 ALL1        0.0000 
     22 O          25.5700   19.3120  103.3600 O.2       4 ALP1        0.0000 
     23 CA         28.8460   17.5100  103.2495 C.3       3 GLC5        0.0000 
     24 CA         28.8080   18.3230  101.6700 C.3       9 GLL5        0.0000 
     25 CA         28.8840   16.6970  104.8290 C.3       6 GLP5        0.0000 
     26 CA         30.7365   17.3565  101.6565 C.3       3 GLC5        0.0000 
     27 CA         32.6650   16.3900  101.6430 C.3       6 GLP5        0.0000 
     28 CA         30.4045   24.0745  102.6475 C.3       3 GLC5        0.0000 
     29 CA         31.2580   22.3280  102.9430 C.3       9 GLL5        0.0000 
     30 CA         29.5510   25.8210  102.3520 C.3       6 GLP5        0.0000 
     31 CA         31.9550   23.3340  104.7705 C.3       3 GLC5        0.0000 
     32 CA         32.6520   24.3400  106.5980 C.3       6 GLP5        0.0000 
     33 O          32.5980   24.4405  103.2065 O.2       1 ALC1        0.0000 
     34 O          32.2490   23.1680  102.5890 O.2       7 ALL1        0.0000 
     35 O          32.9470   25.7130  103.8240 O.2       4 ALP1        0.0000 
     36 N          30.5545   23.7920  104.7380 N.am      2 SEC2        0.0000 
     37 N          30.5000   22.4650  104.0600 N.am      8 SEL2        0.0000 
     38 N          30.6090   25.1190  105.4160 N.am      5 SEP2        0.0000 
     39 CA         30.8195   20.7540  105.0960 C.3       3 GLC5        0.0000 
     40 CA         29.5200   21.6130  104.3580 C.3       9 GLL5        0.0000 
     41 CA         32.1190   19.8950  105.8340 C.3       6 GLP5        0.0000 
     42 CA         28.7925   22.1810  106.0645 C.3       3 GLC5        0.0000 
     43 CA         28.0650   22.7490  107.7710 C.3       6 GLP5        0.0000 
     44 CA         27.9965   21.7510  103.6585 C.3       3 GLC5        0.0000 
     45 CA         26.4730   21.8890  102.9590 C.3       6 GLP5        0.0000 
     46 CA         28.9500   23.5815  104.4630 C.3       3 GLC5        0.0000 
     47 CA         28.3800   25.5500  104.5680 C.3       6 GLP5        0.0000 
     48 CA         29.3950   18.4990  103.6580 C.3       3 GLC5        0.0000 
     49 CA         29.9060   20.3010  102.4870 C.3       9 GLL5        0.0000 
     50 CA         28.1895   21.0950  102.7230 C.3       3 GLC5        0.0000 
     51 N          27.2780    3.7175   96.5435 N.am      2 SEC2        0.0000 
     52 N          26.5120    3.1630   95.5520 N.am      8 SEL2        0.0000 
     53 N          28.0440    4.2720   97.5350 N.am      5 SEP2        0.0000 
     54 O          24.5015    2.0815   94.1240 O.2       1 ALC1        0.0000 
     55 O          24.8390    3.4540   94.0280 O.2       7 ALL1        0.0000 
     56 O          24.1640    0.7090   94.2200 O.2       4 ALP1        0.0000 
     57 CA         23.1230    7.8860   91.9180 C.3       3 GLC5        0.0000 
     58 CA         25.0840    7.3600   91.3120 C.3       9 GLL5        0.0000 
     59 CA         21.1620    8.4120   92.5240 C.3       6 GLP5        0.0000 
     60 CA         22.6025    8.3975   90.6925 C.3       3 GLC5        0.0000 
     61 CA         24.5390    8.1410   90.2770 C.3       9 GLL5        0.0000 
     62 CA         20.6660    8.6540   91.1080 C.3       6 GLP5        0.0000 
     63 CA         24.2870   12.1675   89.3625 C.3       3 GLC5        0.0000 
     64 CA         24.5660   10.1680   88.7780 C.3       9 GLL5        0.0000 
     65 CA         24.0080   14.1670   89.9470 C.3       6 GLP5        0.0000 
     66 CA         25.5425   12.5950   90.0215 C.3       3 GLC5        0.0000 
     67 CA         27.0770   11.0230   90.0960 C.3       9 GLL5        0.0000 
     68 CA         28.8145   11.7440   89.2490 C.3       3 GLC5        0.0000 
     69 CA         30.5520   12.4650   88.4020 C.3       6 GLP5        0.0000 
     70 CA         25.7235    7.7690   95.2385 C.3       3 GLC5        0.0000 
     71 CA         27.7060    7.9700   95.0990 C.3       9 GLL5        0.0000 
     72 CA         23.7410    7.5680   95.3780 C.3       6 GLP5        0.0000 
     73 N          27.9330   10.2530   94.0265 N.am      2 SEC2        0.0000 
     74 N          26.9430    9.1380   94.7810 N.am      8 SEL2        0.0000 
     75 N          28.9230   11.3680   93.2720 N.am      5 SEP2        0.0000 
     76 O          30.9395    7.9250   95.9435 O.2       1 ALC1        0.0000 
     77 O          29.7140    7.2440   96.1300 O.2       7 ALL1        0.0000 
     78 O          32.1650    8.6060   95.7570 O.2       4 ALP1        0.0000 
     79 CA         31.5675    9.7175   97.6345 C.3       3 GLC5        0.0000 
     80 CA         29.6310    9.3890   98.0920 C.3       9 GLL5        0.0000 
     81 CA         33.5040   10.0460   97.1770 C.3       6 GLP5        0.0000 
     82 CA         30.0705    8.0540   99.4830 C.3       3 GLC5        0.0000 
     83 CA         30.5100    6.7190  100.8740 C.3       6 GLP5        0.0000 
     84 N          32.6645   10.0205   99.8860 N.am      2 SEC2        0.0000 
     85 N          31.3360   10.4390  100.2680 N.am      8 SEL2        0.0000 
     86 N          33.9930    9.6020   99.5040 N.am      5 SEP2        0.0000 
     87 N          28.7935    9.8550  102.6845 N.am      2 SEC2        0.0000 
     88 N          29.1500   10.7750  101.5880 N.am      8 SEL2        0.0000 
     89 N          28.4370    8.9350  103.7810 N.am      5 SEP2        0.0000 
     90 CA         30.6872   16.0100  101.1610 C.3       3 GLC5        0.0000 
     91 CA         28.3420   16.6015  102.8777 C.3       3 GLC5        0.0000 
     92 CA         28.3770   16.0900  101.1890 C.3       9 GLL5        0.0000 
     93 CA         27.3772   20.1125  102.0365 C.3       3 GLC5        0.0000 
     94 CA         31.3154   20.4622  104.1650 C.3       3 GLC5        0.0000 
     95 CA         30.9770   21.1880  102.0670 C.3       9 GLL5        0.0000 
     96 CA         31.9644   19.7203  102.6850 C.3       3 GLC5        0.0000 
     97 CA         33.4170   18.4110  102.8740 C.3       6 GLP5        0.0000 
     98 CA         24.6573    6.5942   94.2030 C.3       3 GLC5        0.0000 
     99 CA         26.1940    5.7980   93.3920 C.3       9 GLL5        0.0000 
    100 CA         26.0237    4.9118   91.6640 C.3       3 GLC5        0.0000 
    101 CA         26.4740    4.2030   90.3000 C.3       6 GLP5        0.0000 
    102 CA         24.7293    7.5687   93.5127 C.3       3 GLC5        0.0000 
    103 CA         26.8377   11.1394   92.0834 C.3       3 GLC5        0.0000 
    104 CA         26.4030    9.7400   90.5430 C.3       9 GLL5        0.0000 
    105 CA         26.8250   12.6060   93.2240 C.3       6 GLP5        0.0000 
    106 CA         26.0276    5.9839   90.8444 C.3       3 GLC5        0.0000 
    107 CA         26.3510    7.7790   91.9830 C.3       9 GLL5        0.0000 
    108 CA         27.7497    8.6212   99.2905 C.3       3 GLC5        0.0000 
    109 CA         28.4560    8.9060   97.2640 C.3       9 GLL5        0.0000 
    110 CA         26.4560    8.0950  100.9030 C.3       6 GLP5        0.0000 
@<TRIPOS>BOND
@<TRIPOS>SUBSTRUCTURE
     1 ALC1       14 GROUP        1 X    ALC  0     ROOT ALC X 1
     2 SEC2        1 GROUP        1 X    SEC  0     **** SEC X 2
     3 GLC5        4 GROUP        1 X    GLC  0     **** GLC X 6
     4 ALP1       16 GROUP        1 Y    ALP  0     ROOT ALP Y 8
     5 SEP2        3 GROUP        1 Y    SEP  0     **** SEP Y 9
     6 GLP5        6 GROUP        1 Y    GLP  0     **** GLP Y 13
     7 ALL1       15 GROUP        1 Z    ALL  0     ROOT ALL Z 15
     8 SEL2        2 GROUP        1 Z    SEL  0     **** SEL Z 16
     9 GLL5        5 GROUP        1 Z    GLL  0     **** GLL Z 20
@<TRIPOS>SET

