#    Name: 4jnq_FDA_1_ligand
#    Modification time : Tue Mar 25 06:10:16 2014

@<TRIPOS>MOLECULE
4jnq_FDA_1_ligand
   86    91     1     0     0
SMALL
NO_CHARGES


@<TRIPOS>ATOM
      1 PA         28.5250   12.9330   98.8800 P.3       1 FDA401      0.0000 
      2 O1A        28.9970   13.5920   97.6170 O.co2     1 FDA401      0.0000 
      3 O2A        27.2870   12.0700   98.7610 O.co2     1 FDA401      0.0000 
      4 O5B        28.1650   14.0800   99.9510 O.3       1 FDA401      0.0000 
      5 C5B        29.0420   15.1700  100.1690 C.3       1 FDA401      0.0000 
      6 C4B        28.3770   16.0900  101.1890 C.3       1 FDA401      0.0000 
      7 O4B        29.3740   17.0240  101.6020 O.3       1 FDA401      0.0000 
      8 C3B        27.2230   16.9220  100.6640 C.3       1 FDA401      0.0000 
      9 O3B        26.1050   16.8020  101.5420 O.3       1 FDA401      0.0000 
     10 C2B        27.7550   18.3490  100.5580 C.3       1 FDA401      0.0000 
     11 O2B        26.6940   19.2930  100.7250 O.3       1 FDA401      0.0000 
     12 C1B        28.8080   18.3230  101.6700 C.3       1 FDA401      0.0000 
     13 N9A        29.8400   19.3520  101.5600 N.pl3     1 FDA401      0.0000 
     14 C8A        30.7720   19.5650  100.6000 C.2       1 FDA401      0.0000 
     15 N7A        31.4730   20.6950  100.9050 N.2       1 FDA401      0.0000 
     16 C5A        30.9770   21.1880  102.0670 C.ar      1 FDA401      0.0000 
     17 C6A        31.2580   22.3280  102.9430 C.ar      1 FDA401      0.0000 
     18 N6A        32.2490   23.1680  102.5890 N.pl3     1 FDA401      0.0000 
     19 N1A        30.5000   22.4650  104.0600 N.ar      1 FDA401      0.0000 
     20 C2A        29.5200   21.6130  104.3580 C.ar      1 FDA401      0.0000 
     21 N3A        29.2020   20.5320  103.6100 N.ar      1 FDA401      0.0000 
     22 C4A        29.9060   20.3010  102.4870 C.ar      1 FDA401      0.0000 
     23 N1         26.6330    4.9800   94.3610 N.am      1 FDA401      0.0000 
     24 C2         25.9850    3.8540   94.6700 C.2       1 FDA401      0.0000 
     25 O2         26.5120    3.1630   95.5520 O.2       1 FDA401      0.0000 
     26 N3         24.8390    3.4540   94.0280 N.am      1 FDA401      0.0000 
     27 C4         24.2960    4.1720   93.0170 C.2       1 FDA401      0.0000 
     28 O4         23.2270    3.8370   92.3950 O.2       1 FDA401      0.0000 
     29 C4X        24.9530    5.4430   92.6640 C.2       1 FDA401      0.0000 
     30 N5         24.4580    6.2400   91.6830 N.pl3     1 FDA401      0.0000 
     31 C5X        25.0840    7.3600   91.3120 C.ar      1 FDA401      0.0000 
     32 C6         24.5390    8.1410   90.2770 C.ar      1 FDA401      0.0000 
     33 C7         25.1580    9.3170   89.8830 C.ar      1 FDA401      0.0000 
     34 C7M        24.5660   10.1680   88.7780 C.3       1 FDA401      0.0000 
     35 C8         26.4030    9.7400   90.5430 C.ar      1 FDA401      0.0000 
     36 C8M        27.0770   11.0230   90.0960 C.3       1 FDA401      0.0000 
     37 C9         26.9610    8.9640   91.5660 C.ar      1 FDA401      0.0000 
     38 C9A        26.3510    7.7790   91.9830 C.ar      1 FDA401      0.0000 
     39 N10        26.8730    6.9720   93.0410 N.pl3     1 FDA401      0.0000 
     40 C10        26.1940    5.7980   93.3920 C.2       1 FDA401      0.0000 
     41 C1'        28.1150    7.3160   93.7820 C.3       1 FDA401      0.0000 
     42 C2'        27.7060    7.9700   95.0990 C.3       1 FDA401      0.0000 
     43 O2'        26.9430    9.1380   94.7810 O.3       1 FDA401      0.0000 
     44 C3'        28.9160    8.4000   95.9330 C.3       1 FDA401      0.0000 
     45 O3'        29.7140    7.2440   96.1300 O.3       1 FDA401      0.0000 
     46 C4'        28.4560    8.9060   97.2640 C.3       1 FDA401      0.0000 
     47 O4'        27.5050    9.9550   97.0870 O.3       1 FDA401      0.0000 
     48 C5'        29.6310    9.3890   98.0920 C.3       1 FDA401      0.0000 
     49 O5'        29.1330    9.6820   99.3730 O.3       1 FDA401      0.0000 
     50 P          29.8920   10.7490  100.3060 P.3       1 FDA401      0.0000 
     51 O1P        31.3360   10.4390  100.2680 O.co2     1 FDA401      0.0000 
     52 O2P        29.1500   10.7750  101.5880 O.co2     1 FDA401      0.0000 
     53 O3P        29.8240   12.1410   99.4840 O.3       1 FDA401      0.0000 
     54 H          29.2164   15.7474   99.2636 H         1 FDA401      0.0000 
     55 H          29.9991   14.8546  100.5791 H         1 FDA401      0.0000 
     56 H          28.0488   15.5117  102.0289 H         1 FDA401      0.0000 
     57 H          27.0025   16.5745   99.6679 H         1 FDA401      0.0000 
     58 H          28.2660   18.4167   99.6249 H         1 FDA401      0.0000 
     59 H          28.2660   18.4262  102.6144 H         1 FDA401      0.0000 
     60 H          30.9203   19.0104   99.8239 H         1 FDA401      0.0000 
     61 H          32.4030   23.9475  103.1961 H         1 FDA401      0.0000 
     62 H          32.7427   22.9375  101.7505 H         1 FDA401      0.0000 
     63 H          28.9426   21.7881  105.2444 H         1 FDA401      0.0000 
     64 H          27.5107    5.2350   94.8893 H         1 FDA401      0.0000 
     65 H          24.3759    2.5626   94.3369 H         1 FDA401      0.0000 
     66 H          23.5598    5.9607   91.2096 H         1 FDA401      0.0000 
     67 H          23.6735    7.8292   89.8142 H         1 FDA401      0.0000 
     68 H          27.8363    9.2736   92.0177 H         1 FDA401      0.0000 
     69 H          28.7137    8.0148   93.2147 H         1 FDA401      0.0000 
     70 H          28.6878    6.4246   93.9963 H         1 FDA401      0.0000 
     71 H          27.1220    7.2747   95.6655 H         1 FDA401      0.0000 
     72 H          29.4352    9.1607   95.4093 H         1 FDA401      0.0000 
     73 H          27.9967    8.0702   97.8023 H         1 FDA401      0.0000 
     74 H          30.0515   10.2636   97.5990 H         1 FDA401      0.0000 
     75 H          30.3783    8.5977   98.1071 H         1 FDA401      0.0000 
     76 H          25.1161   10.9845   88.6029 H         1 FDA401      0.0000 
     77 H          24.5038    9.6659   87.9154 H         1 FDA401      0.0000 
     78 H          23.6427   10.4793   89.0031 H         1 FDA401      0.0000 
     79 H          27.9137   11.2027   90.6133 H         1 FDA401      0.0000 
     80 H          27.3310   10.9918   89.1293 H         1 FDA401      0.0000 
     81 H          26.4814   11.8171   90.2170 H         1 FDA401      0.0000 
     82 H          25.3310   16.5848  100.9471 H         1 FDA401      0.0000 
     83 H          26.0815   18.8775  101.3975 H         1 FDA401      0.0000 
     84 H          26.9674    9.6966   95.6101 H         1 FDA401      0.0000 
     85 H          30.6561    7.5561   96.0075 H         1 FDA401      0.0000 
     86 H          27.6779   10.5906   97.8395 H         1 FDA401      0.0000 
@<TRIPOS>BOND
     1    2    1 ar   
     2    3    1 ar   
     3    4    1 1    
     4   53    1 1    
     5    5    4 1    
     6    6    5 1    
     7   54    5 1    
     8   55    5 1    
     9    7    6 1    
    10    8    6 1    
    11   56    6 1    
    12   12    7 1    
    13    9    8 1    
    14   10    8 1    
    15   57    8 1    
    16   82    9 1    
    17   11   10 1    
    18   12   10 1    
    19   58   10 1    
    20   83   11 1    
    21   13   12 1    
    22   59   12 1    
    23   14   13 1    
    24   22   13 1    
    25   15   14 2    
    26   60   14 1    
    27   16   15 1    
    28   17   16 ar   
    29   22   16 ar   
    30   18   17 1    
    31   19   17 ar   
    32   61   18 1    
    33   62   18 1    
    34   20   19 ar   
    35   21   20 ar   
    36   63   20 1    
    37   22   21 ar   
    38   24   23 am   
    39   40   23 1    
    40   64   23 1    
    41   25   24 2    
    42   26   24 am   
    43   27   26 am   
    44   65   26 1    
    45   28   27 2    
    46   29   27 1    
    47   30   29 1    
    48   40   29 2    
    49   31   30 1    
    50   66   30 1    
    51   32   31 ar   
    52   38   31 ar   
    53   33   32 ar   
    54   67   32 1    
    55   34   33 1    
    56   35   33 ar   
    57   76   34 1    
    58   77   34 1    
    59   78   34 1    
    60   36   35 1    
    61   37   35 ar   
    62   79   36 1    
    63   80   36 1    
    64   81   36 1    
    65   38   37 ar   
    66   68   37 1    
    67   39   38 1    
    68   40   39 1    
    69   41   39 1    
    70   42   41 1    
    71   69   41 1    
    72   70   41 1    
    73   43   42 1    
    74   44   42 1    
    75   71   42 1    
    76   84   43 1    
    77   45   44 1    
    78   46   44 1    
    79   72   44 1    
    80   85   45 1    
    81   47   46 1    
    82   48   46 1    
    83   73   46 1    
    84   86   47 1    
    85   49   48 1    
    86   74   48 1    
    87   75   48 1    
    88   50   49 1    
    89   51   50 ar   
    90   52   50 ar   
    91   53   50 1    
@<TRIPOS>SUBSTRUCTURE
     1 FDA401      1 GROUP   
@<TRIPOS>SET

