#    Name: 3axs_SFG_1_INTS_M
#    Modification time : Mon Mar 24 18:27:57 2014

@<TRIPOS>MOLECULE
3axs_SFG_1_INTS_M
   73     0    15     0     0
SMALL
NO_CHARGES


@<TRIPOS>ATOM
      1 OD1        18.7125   15.3935   48.0345 O.co2     3 ASC3        0.0000 
      2 OD1        18.5320   14.0740   47.7490 O.co2    13 ASL3        0.0000 
      3 OD1        18.8930   16.7130   48.3200 O.co2     8 ASP3        0.0000 
      4 O          19.2810   13.4485   46.5985 O.2       1 ALC1        0.0000 
      5 O          18.5320   14.0740   47.7490 O.2      11 ALL1        0.0000 
      6 O          20.0300   12.8230   45.4480 O.2       6 ALP1        0.0000 
      7 O          18.7125   15.3935   48.0345 O.2       1 ALC1        0.0000 
      8 O          18.8930   16.7130   48.3200 O.2       6 ALP1        0.0000 
      9 O          17.4485   12.8480   47.7760 O.2       1 ALC1        0.0000 
     10 O          16.3650   11.6220   47.8030 O.2       6 ALP1        0.0000 
     11 NZ         16.5185   15.3860   49.0160 N.4       4 LYC4        0.0000 
     12 NZ         17.3070   14.6070   50.0600 N.4      14 LYL4        0.0000 
     13 NZ         15.4910   17.4600   48.1660 N.4       9 LYP4        0.0000 
     14 N          16.9015   15.1735   51.4585 N.am      2 SEC2        0.0000 
     15 N          17.3070   14.6070   50.0600 N.am     12 SEL2        0.0000 
     16 N          16.4960   15.7400   52.8570 N.am      7 SEP2        0.0000 
     17 N          16.5185   15.3860   49.0160 N.am      2 SEC2        0.0000 
     18 N          15.7300   16.1650   47.9720 N.am      7 SEP2        0.0000 
     19 CA         21.7065   13.7795   45.7550 C.3       5 GLC5        0.0000 
     20 CA         21.5920   13.8280   47.9500 C.3      15 GLL5        0.0000 
     21 CA         21.8210   13.7310   43.5600 C.3      10 GLP5        0.0000 
     22 CA         24.1530   14.8690   49.5350 C.3       5 GLC5        0.0000 
     23 CA         23.0110   14.2760   48.2090 C.3      15 GLL5        0.0000 
     24 CA         25.2950   15.4620   50.8610 C.3      10 GLP5        0.0000 
     25 CA         25.1035   14.6410   48.4770 C.3       5 GLC5        0.0000 
     26 CA         23.8910   14.1350   46.9680 C.3      15 GLL5        0.0000 
     27 CA         26.3160   15.1470   49.9860 C.3      10 GLP5        0.0000 
     28 CA         25.7525   13.5525   48.7355 C.3       5 GLC5        0.0000 
     29 CA         25.1890   11.9580   47.4850 C.3      15 GLL5        0.0000 
     30 O          23.9330   10.0410   47.1135 O.2       1 ALC1        0.0000 
     31 O          24.5030   10.8490   48.0060 O.2      11 ALL1        0.0000 
     32 O          23.3630    9.2330   46.2210 O.2       6 ALP1        0.0000 
     33 O          25.9250    9.2290   46.1875 O.2       1 ALC1        0.0000 
     34 O          26.6000   10.1950   46.7230 O.2      11 ALL1        0.0000 
     35 O          25.2500    8.2630   45.6520 O.2       6 ALP1        0.0000 
     36 O          24.9815    9.7140   46.4720 O.2       1 ALC1        0.0000 
     37 CA         24.7370   12.5960   43.6365 C.3       5 GLC5        0.0000 
     38 CA         25.6580   11.6750   45.2290 C.3      15 GLL5        0.0000 
     39 CA         23.8160   13.5170   42.0440 C.3      10 GLP5        0.0000 
     40 CA         28.1360   11.5550   38.8995 C.3       5 GLC5        0.0000 
     41 CA         27.3370   12.1690   40.8290 C.3      15 GLL5        0.0000 
     42 CA         28.9350   10.9410   36.9700 C.3      10 GLP5        0.0000 
     43 CA         25.5660   12.3485   39.6335 C.3       5 GLC5        0.0000 
     44 CA         23.7950   12.5280   38.4380 C.3      10 GLP5        0.0000 
     45 O          28.1390   12.9945   38.4665 O.2       1 ALC1        0.0000 
     46 O          28.1550   12.8180   40.0640 O.2      11 ALL1        0.0000 
     47 O          28.1230   13.1710   36.8690 O.2       6 ALP1        0.0000 
     48 N          26.0115   11.0490   39.0070 N.am      2 SEC2        0.0000 
     49 N          26.5780   11.2270   40.3250 N.am     12 SEL2        0.0000 
     50 N          25.4450   10.8710   37.6890 N.am      7 SEP2        0.0000 
     51 CA         24.7825   12.0415   41.5610 C.3       5 GLC5        0.0000 
     52 CA         25.7490   10.5660   41.0780 C.3      15 GLL5        0.0000 
     53 CA         24.6240    9.0385   42.1780 C.3       5 GLC5        0.0000 
     54 CA         23.4990    7.5110   43.2780 C.3      10 GLP5        0.0000 
     55 CA         26.9200    9.3065   41.4480 C.3       5 GLC5        0.0000 
     56 CA         28.0910    8.0470   41.8180 C.3      10 GLP5        0.0000 
     57 CA         26.4650    9.8670   39.3220 C.3       5 GLC5        0.0000 
     58 CA         27.1810    9.1680   37.5660 C.3      10 GLP5        0.0000 
     59 CA         24.7720   11.5470   39.7580 C.3       5 GLC5        0.0000 
     60 N          25.7505    9.1665   42.5375 N.am      2 SEC2        0.0000 
     61 N          25.6430   10.8090   42.3510 N.am     12 SEL2        0.0000 
     62 N          25.8580    7.5240   42.7240 N.am      7 SEP2        0.0000 
     63 CA         20.6900   12.1787   49.3178 C.3       5 GLC5        0.0000 
     64 CA         20.6050   14.2090   49.0480 C.3      15 GLL5        0.0000 
     65 CA         21.4780   10.4690   49.6480 C.3      10 GLP5        0.0000 
     66 CA         21.8897   12.2605   48.8638 C.3       5 GLC5        0.0000 
     67 CA         22.9473   13.5777   45.1623 C.3       5 GLC5        0.0000 
     68 CA         24.2560   12.7140   46.5610 C.3      15 GLL5        0.0000 
     69 CA         25.3225   12.7647   42.1287 C.3       5 GLC5        0.0000 
     70 CA         27.2430   12.4350   42.1830 C.3      15 GLL5        0.0000 
     71 CA         27.7620   10.4023   42.6073 C.3       5 GLC5        0.0000 
     72 CA         26.3680   11.7230   42.9210 C.3      15 GLL5        0.0000 
     73 CA         28.6950    8.7920   43.0010 C.3      10 GLP5        0.0000 
@<TRIPOS>BOND
@<TRIPOS>SUBSTRUCTURE
     1 ALC1        4 GROUP        1 X    ALC  0     ROOT ALC X 1
     2 SEC2       14 GROUP        1 X    SEC  0     **** SEC X 2
     3 ASC3        1 GROUP        1 X    ASC  0     **** ASC X 3
     4 LYC4       11 GROUP        1 X    LYC  0     **** LYC X 4
     5 GLC5       19 GROUP        1 X    GLC  0     **** GLC X 6
     6 ALP1        6 GROUP        1 Y    ALP  0     ROOT ALP Y 8
     7 SEP2       16 GROUP        1 Y    SEP  0     **** SEP Y 9
     8 ASP3        3 GROUP        1 Y    ASP  0     **** ASP Y 10
     9 LYP4       13 GROUP        1 Y    LYP  0     **** LYP Y 11
    10 GLP5       21 GROUP        1 Y    GLP  0     **** GLP Y 13
    11 ALL1        5 GROUP        1 Z    ALL  0     ROOT ALL Z 15
    12 SEL2       15 GROUP        1 Z    SEL  0     **** SEL Z 16
    13 ASL3        2 GROUP        1 Z    ASL  0     **** ASL Z 17
    14 LYL4       12 GROUP        1 Z    LYL  0     **** LYL Z 18
    15 GLL5       20 GROUP        1 Z    GLL  0     **** GLL Z 20
@<TRIPOS>SET

