#    Name: 3axs_SFG_1_ligand
#    Modification time : Mon Mar 24 18:27:57 2014

@<TRIPOS>MOLECULE
3axs_SFG_1_ligand
   48    50     1     0     0
SMALL
NO_CHARGES


@<TRIPOS>ATOM
      1 N          18.5320   14.0740   47.7490 N.4       1 SFG501      0.0000 
      2 CA         19.1990   13.5680   48.9270 C.3       1 SFG501      0.0000 
      3 C          18.3030   13.9020   50.1360 C.2       1 SFG501      0.0000 
      4 O          18.5530   13.3670   51.1860 O.co2     1 SFG501      0.0000 
      5 OXT        17.3070   14.6070   50.0600 O.co2     1 SFG501      0.0000 
      6 CB         20.6050   14.2090   49.0480 C.3       1 SFG501      0.0000 
      7 CG         21.5920   13.8280   47.9500 C.3       1 SFG501      0.0000 
      8 CD         23.0110   14.2760   48.2090 C.3       1 SFG501      0.0000 
      9 NE         23.0100   15.6750   48.5660 N.3       1 SFG501      0.0000 
     10 C5'        23.8910   14.1350   46.9680 C.3       1 SFG501      0.0000 
     11 C4'        24.2560   12.7140   46.5610 C.3       1 SFG501      0.0000 
     12 O4'        24.9980   12.8490   45.4070 O.3       1 SFG501      0.0000 
     13 C3'        25.1890   11.9580   47.4850 C.3       1 SFG501      0.0000 
     14 O3'        24.5030   10.8490   48.0060 O.3       1 SFG501      0.0000 
     15 C2'        26.3220   11.5270   46.5590 C.3       1 SFG501      0.0000 
     16 O2'        26.6000   10.1950   46.7230 O.3       1 SFG501      0.0000 
     17 C1'        25.6580   11.6750   45.2290 C.3       1 SFG501      0.0000 
     18 N9         26.4480   12.1310   44.1370 N.pl3     1 SFG501      0.0000 
     19 C8         27.3230   13.0790   44.1730 C.2       1 SFG501      0.0000 
     20 N7         27.8210   13.2650   42.9920 N.2       1 SFG501      0.0000 
     21 C5         27.2430   12.4350   42.1830 C.ar      1 SFG501      0.0000 
     22 C6         27.3370   12.1690   40.8290 C.ar      1 SFG501      0.0000 
     23 N6         28.1550   12.8180   40.0640 N.pl3     1 SFG501      0.0000 
     24 N1         26.5780   11.2270   40.3250 N.ar      1 SFG501      0.0000 
     25 C2         25.7490   10.5660   41.0780 C.ar      1 SFG501      0.0000 
     26 N3         25.6430   10.8090   42.3510 N.ar      1 SFG501      0.0000 
     27 C4         26.3680   11.7230   42.9210 C.ar      1 SFG501      0.0000 
     28 H          19.3092   12.5026   48.8727 H         1 SFG501      0.0000 
     29 H          21.0289   13.9291   50.0309 H         1 SFG501      0.0000 
     30 H          20.4833   15.3086   49.0618 H         1 SFG501      0.0000 
     31 H          21.2423   14.2600   46.9940 H         1 SFG501      0.0000 
     32 H          21.5741   12.7296   47.8233 H         1 SFG501      0.0000 
     33 H          23.4373   13.6887   48.9971 H         1 SFG501      0.0000 
     34 H          24.8283   14.7125   47.1311 H         1 SFG501      0.0000 
     35 H          23.3800   14.6320   46.1133 H         1 SFG501      0.0000 
     36 H          23.3778   12.1449   46.3890 H         1 SFG501      0.0000 
     37 H          25.5660   12.6244   48.2015 H         1 SFG501      0.0000 
     38 H          27.1033   12.1905   46.6349 H         1 SFG501      0.0000 
     39 H          25.0254   10.9080   45.0055 H         1 SFG501      0.0000 
     40 H          27.5794   13.5934   44.9876 H         1 SFG501      0.0000 
     41 H          27.8957   12.8868   39.1006 H         1 SFG501      0.0000 
     42 H          28.9704   13.1904   40.5073 H         1 SFG501      0.0000 
     43 H          25.1401    9.8046   40.6399 H         1 SFG501      0.0000 
     44 H          18.3935   15.0632   47.7967 H         1 SFG501      0.0000 
     45 H          19.0569   13.8912   46.9177 H         1 SFG501      0.0000 
     46 H          17.6314   13.6576   47.6245 H         1 SFG501      0.0000 
     47 H          24.1411   10.3697   47.2064 H         1 SFG501      0.0000 
     48 H          25.9215    9.7184   46.1640 H         1 SFG501      0.0000 
@<TRIPOS>BOND
     1    2    1 1    
     2   44    1 1    
     3   45    1 1    
     4   46    1 1    
     5    3    2 1    
     6    6    2 1    
     7   28    2 1    
     8    4    3 ar   
     9    5    3 ar   
    10    7    6 1    
    11   29    6 1    
    12   30    6 1    
    13    8    7 1    
    14   31    7 1    
    15   32    7 1    
    16    9    8 1    
    17   10    8 1    
    18   33    8 1    
    19   11   10 1    
    20   34   10 1    
    21   35   10 1    
    22   12   11 1    
    23   13   11 1    
    24   36   11 1    
    25   17   12 1    
    26   14   13 1    
    27   15   13 1    
    28   37   13 1    
    29   47   14 1    
    30   16   15 1    
    31   17   15 1    
    32   38   15 1    
    33   48   16 1    
    34   18   17 1    
    35   39   17 1    
    36   19   18 1    
    37   27   18 1    
    38   20   19 2    
    39   40   19 1    
    40   21   20 1    
    41   22   21 ar   
    42   27   21 ar   
    43   23   22 1    
    44   24   22 ar   
    45   41   23 1    
    46   42   23 1    
    47   25   24 ar   
    48   26   25 ar   
    49   43   25 1    
    50   27   26 ar   
@<TRIPOS>SUBSTRUCTURE
     1 SFG501      1 GROUP   
@<TRIPOS>SET

