#    Name: 2io6_330_1_INTS_M
#    Modification time : Tue Mar 25 18:23:20 2014

@<TRIPOS>MOLECULE
2io6_330_1_INTS_M
   66     0     9     0     0
SMALL
NO_CHARGES


@<TRIPOS>ATOM
      1 CA          0.5440   54.7890   27.5675 C.3       3 GLC5        0.0000 
      2 CA          1.9000   53.6100   28.8390 C.3       9 GLL5        0.0000 
      3 CA         -0.8120   55.9680   26.2960 C.3       6 GLP5        0.0000 
      4 CA          1.4660   56.0370   28.0200 C.3       3 GLC5        0.0000 
      5 CA          1.6590   54.6460   29.7260 C.3       9 GLL5        0.0000 
      6 CA          1.2730   57.4280   26.3140 C.3       6 GLP5        0.0000 
      7 CA         -0.0510   55.7585   32.4015 C.3       3 GLC5        0.0000 
      8 CA          0.7620   54.4720   30.8030 C.3       9 GLL5        0.0000 
      9 CA         -0.8640   57.0450   34.0000 C.3       6 GLP5        0.0000 
     10 CA          1.1650   50.4470   29.6720 C.3       3 GLC5        0.0000 
     11 CA          1.2680   52.3690   29.0040 C.3       9 GLL5        0.0000 
     12 CA          1.0620   48.5250   30.3400 C.3       6 GLP5        0.0000 
     13 CA          0.5650   54.4045   22.6360 C.3       3 GLC5        0.0000 
     14 CA          2.0290   53.4650   23.5340 C.3       9 GLL5        0.0000 
     15 CA         -0.8990   55.3440   21.7380 C.3       6 GLP5        0.0000 
     16 N           8.7970   55.9225   26.9100 N.am      2 SEC2        0.0000 
     17 N           7.4910   55.4920   27.0660 N.am      8 SEL2        0.0000 
     18 N          10.1030   56.3530   26.7540 N.am      5 SEP2        0.0000 
     19 O           7.2460   55.9360   29.6320 O.2       1 ALC1        0.0000 
     20 O           6.3660   55.0900   29.0360 O.2       7 ALL1        0.0000 
     21 O           8.1260   56.7820   30.2280 O.2       4 ALP1        0.0000 
     22 N           4.2005   54.7280   31.9300 N.am      2 SEC2        0.0000 
     23 N           4.6410   54.5020   30.4780 N.am      8 SEL2        0.0000 
     24 N           3.7600   54.9540   33.3820 N.am      5 SEP2        0.0000 
     25 N           9.3125   54.2875   21.9560 N.am      2 SEC2        0.0000 
     26 N           8.2990   55.5860   22.3680 N.am      8 SEL2        0.0000 
     27 N          10.3260   52.9890   21.5440 N.am      5 SEP2        0.0000 
     28 O           9.2300   55.4090   23.1945 O.2       1 ALC1        0.0000 
     29 O           8.2990   55.5860   22.3680 O.2       7 ALL1        0.0000 
     30 O          10.1610   55.2320   24.0210 O.2       4 ALP1        0.0000 
     31 CA          1.6005   57.1720   28.4440 C.3       3 GLC5        0.0000 
     32 CA          1.9280   56.9160   30.5740 C.3       9 GLL5        0.0000 
     33 CA          3.4265   57.6695   29.2915 C.3       3 GLC5        0.0000 
     34 CA          4.9250   58.4230   28.0090 C.3       6 GLP5        0.0000 
     35 CA          1.6550   58.9150   30.1500 C.3       3 GLC5        0.0000 
     36 CA          1.3820   60.9140   29.7260 C.3       6 GLP5        0.0000 
     37 CA          0.1330   57.0990   30.2980 C.3       3 GLC5        0.0000 
     38 CA         -1.6620   57.2820   30.0220 C.3       6 GLP5        0.0000 
     39 CA          0.5320   56.9805   32.2870 C.3       3 GLC5        0.0000 
     40 CA          3.6430   56.8270   31.6350 C.3       3 GLC5        0.0000 
     41 CA          5.3580   56.7380   32.6960 C.3       6 GLP5        0.0000 
     42 O           2.5755   48.6485   24.0265 O.2       1 ALC1        0.0000 
     43 O           2.0470   49.6530   23.0690 O.2       7 ALL1        0.0000 
     44 O           3.1040   47.6440   24.9840 O.2       4 ALP1        0.0000 
     45 CA          4.8315   56.4718   27.7812 C.3       3 GLC5        0.0000 
     46 CA          4.2690   54.3680   28.1040 C.3       9 GLL5        0.0000 
     47 CA         -0.2257   55.9205   30.1433 C.3       3 GLC5        0.0000 
     48 CA         -1.4467   53.6992   30.8890 C.3       3 GLC5        0.0000 
     49 CA          0.1270   53.2190   31.0070 C.3       9 GLL5        0.0000 
     50 CA         -3.1300   54.6960   31.2310 C.3       6 GLP5        0.0000 
     51 CA          0.8997   50.9177   31.0975 C.3       3 GLC5        0.0000 
     52 CA          1.5630   49.1330   31.6480 C.3       6 GLP5        0.0000 
     53 CA          2.2233   55.6859   26.2604 C.3       3 GLC5        0.0000 
     54 CA          3.5690   54.0380   25.3460 C.3       9 GLL5        0.0000 
     55 CA          5.5142   56.5498   23.6165 C.3       3 GLC5        0.0000 
     56 CA          6.7470   55.0880   24.0130 C.3       9 GLL5        0.0000 
     57 CA          4.1220   57.9670   23.8920 C.3       6 GLP5        0.0000 
     58 CA          4.3245   56.2055   21.6048 C.3       3 GLC5        0.0000 
     59 CA          6.1700   54.8380   21.6350 C.3       9 GLL5        0.0000 
     60 CA          3.1590   57.7950   21.4320 C.3       6 GLP5        0.0000 
     61 CA          7.7666   53.7011   21.8525 C.3       3 GLC5        0.0000 
     62 CA          8.9950   52.4170   21.2170 C.3       6 GLP5        0.0000 
     63 CA          3.6205   51.3398   24.5595 C.3       3 GLC5        0.0000 
     64 CA          2.3720   52.1040   22.9040 C.3       9 GLL5        0.0000 
     65 CA          5.2070   51.1520   25.8360 C.3       6 GLP5        0.0000 
     66 CA          4.3569   56.1710   24.2692 C.3       3 GLC5        0.0000 
@<TRIPOS>BOND
@<TRIPOS>SUBSTRUCTURE
     1 ALC1       19 GROUP        1 X    ALC  0     ROOT ALC X 1
     2 SEC2       16 GROUP        1 X    SEC  0     **** SEC X 2
     3 GLC5        1 GROUP        1 X    GLC  0     **** GLC X 6
     4 ALP1       21 GROUP        1 Y    ALP  0     ROOT ALP Y 8
     5 SEP2       18 GROUP        1 Y    SEP  0     **** SEP Y 9
     6 GLP5        3 GROUP        1 Y    GLP  0     **** GLP Y 13
     7 ALL1       20 GROUP        1 Z    ALL  0     ROOT ALL Z 15
     8 SEL2       17 GROUP        1 Z    SEL  0     **** SEL Z 16
     9 GLL5        2 GROUP        1 Z    GLL  0     **** GLL Z 20
@<TRIPOS>SET

