#    Name: 2io6_330_1_ligand
#    Modification time : Tue Mar 25 18:23:20 2014

@<TRIPOS>MOLECULE
2io6_330_1_ligand
   51    55     1     0     0
SMALL
NO_CHARGES


@<TRIPOS>ATOM
      1 C1          2.6500   53.7760   26.3830 C.ar      1 330901      0.0000 
      2 C2          2.9060   53.9230   27.7520 C.ar      1 330901      0.0000 
      3 C3          4.2690   54.3680   28.1040 C.ar      1 330901      0.0000 
      4 C4          5.2070   54.6730   27.0030 C.ar      1 330901      0.0000 
      5 C5          6.4590   55.0650   27.6680 C.2       1 330901      0.0000 
      6 C6          5.1110   54.6380   29.3050 C.2       1 330901      0.0000 
      7 C7          1.9000   53.6100   28.8390 C.ar      1 330901      0.0000 
      8 C8          1.6590   54.6460   29.7260 C.ar      1 330901      0.0000 
      9 C9          0.7620   54.4720   30.8030 C.ar      1 330901      0.0000 
     10 C10         0.1270   53.2190   31.0070 C.ar      1 330901      0.0000 
     11 C11         0.3460   52.1860   30.0870 C.ar      1 330901      0.0000 
     12 C12         1.2680   52.3690   29.0040 C.ar      1 330901      0.0000 
     13 C13         4.8530   54.4670   25.5650 C.ar      1 330901      0.0000 
     14 C14         3.5690   54.0380   25.3460 C.ar      1 330901      0.0000 
     15 C15         5.4700   54.6900   24.3380 C.ar      1 330901      0.0000 
     16 C16         4.4750   54.3050   23.3370 C.ar      1 330901      0.0000 
     17 C17         6.7470   55.0880   24.0130 C.ar      1 330901      0.0000 
     18 C18         4.8100   54.3940   21.9200 C.ar      1 330901      0.0000 
     19 C19         7.0660   55.1770   22.6690 C.ar      1 330901      0.0000 
     20 C20         6.1700   54.8380   21.6350 C.ar      1 330901      0.0000 
     21 C21         2.0290   53.4650   23.5340 C.3       1 330901      0.0000 
     22 C22         2.3720   52.1040   22.9040 C.3       1 330901      0.0000 
     23 C23         1.6960   50.9510   23.6620 C.3       1 330901      0.0000 
     24 O1          7.4910   55.4920   27.0660 O.2       1 330901      0.0000 
     25 N1          6.3660   55.0900   29.0360 N.am      1 330901      0.0000 
     26 O2          4.6410   54.5020   30.4780 O.2       1 330901      0.0000 
     27 O3          8.2990   55.5860   22.3680 O.3       1 330901      0.0000 
     28 O5          2.2800   55.8760   29.5870 O.3       1 330901      0.0000 
     29 C24         1.9280   56.9160   30.5740 C.3       1 330901      0.0000 
     30 N2          3.3090   53.9610   24.0350 N.pl3     1 330901      0.0000 
     31 O4          2.0470   49.6530   23.0690 O.3       1 330901      0.0000 
     32 H           1.6834   53.4390   26.0979 H         1 330901      0.0000 
     33 H           0.5678   55.2474   31.4381 H         1 330901      0.0000 
     34 H          -0.4767   53.0819   31.8122 H         1 330901      0.0000 
     35 H          -0.1445   51.2952   30.1747 H         1 330901      0.0000 
     36 H           1.4521   51.5979   28.3698 H         1 330901      0.0000 
     37 H           7.4311   55.3086   24.7287 H         1 330901      0.0000 
     38 H           4.1764   54.1745   21.2202 H         1 330901      0.0000 
     39 H           6.4606   54.8979   20.6540 H         1 330901      0.0000 
     40 H           1.3307   53.3049   24.3270 H         1 330901      0.0000 
     41 H           1.6310   54.1003   22.7723 H         1 330901      0.0000 
     42 H           3.4513   51.9627   22.9268 H         1 330901      0.0000 
     43 H           2.0366   52.0962   21.8682 H         1 330901      0.0000 
     44 H           0.6130   51.1122   23.6310 H         1 330901      0.0000 
     45 H           2.0149   50.9988   24.7088 H         1 330901      0.0000 
     46 H           7.0238   55.3594   29.6441 H         1 330901      0.0000 
     47 H           2.1486   56.6323   31.5072 H         1 330901      0.0000 
     48 H           2.4184   57.7707   30.4038 H         1 330901      0.0000 
     49 H           0.9513   57.1299   30.5559 H         1 330901      0.0000 
     50 H           8.9056   54.9738   22.8751 H         1 330901      0.0000 
     51 H           2.4230   49.1166   23.8246 H         1 330901      0.0000 
@<TRIPOS>BOND
     1    2    1 ar   
     2   14    1 ar   
     3   32    1 1    
     4    3    2 ar   
     5    7    2 1    
     6    4    3 ar   
     7    6    3 1    
     8    5    4 1    
     9   13    4 ar   
    10   24    5 2    
    11   25    5 am   
    12   25    6 am   
    13   26    6 2    
    14    8    7 ar   
    15   12    7 ar   
    16    9    8 ar   
    17   28    8 1    
    18   10    9 ar   
    19   33    9 1    
    20   11   10 ar   
    21   34   10 1    
    22   12   11 ar   
    23   35   11 1    
    24   36   12 1    
    25   14   13 ar   
    26   15   13 1    
    27   30   14 1    
    28   16   15 ar   
    29   17   15 ar   
    30   18   16 ar   
    31   30   16 1    
    32   19   17 ar   
    33   37   17 1    
    34   20   18 ar   
    35   38   18 1    
    36   20   19 ar   
    37   27   19 1    
    38   39   20 1    
    39   22   21 1    
    40   30   21 1    
    41   40   21 1    
    42   41   21 1    
    43   23   22 1    
    44   42   22 1    
    45   43   22 1    
    46   31   23 1    
    47   44   23 1    
    48   45   23 1    
    49   46   25 1    
    50   50   27 1    
    51   29   28 1    
    52   47   29 1    
    53   48   29 1    
    54   49   29 1    
    55   51   31 1    
@<TRIPOS>SUBSTRUCTURE
     1 330901      1 GROUP   
@<TRIPOS>SET

