#    Name: 1f28_F89_4_INTS_M
#    Modification time : Tue Mar 25 00:42:51 2014

@<TRIPOS>MOLECULE
1f28_F89_4_INTS_M
   64     0     6     0     0
SMALL
NO_CHARGES


@<TRIPOS>ATOM
      1 O          27.5810  -26.9390   68.0005 O.2       1 ALC1        0.0000 
      2 O          27.3380  -26.9230   69.2970 O.2       5 ALL1        0.0000 
      3 O          27.8240  -26.9550   66.7040 O.2       3 ALP1        0.0000 
      4 CA         29.8895  -25.1475   68.2745 C.3       2 GLC5        0.0000 
      5 CA         29.5520  -25.9080   69.8890 C.3       6 GLL5        0.0000 
      6 CA         30.2270  -24.3870   66.6600 C.3       4 GLP5        0.0000 
      7 CA         29.7045  -27.7550   70.5775 C.3       2 GLC5        0.0000 
      8 CA         29.8570  -29.6020   71.2660 C.3       4 GLP5        0.0000 
      9 CA         31.6160  -26.2050   69.3810 C.3       2 GLC5        0.0000 
     10 CA         33.6800  -26.5020   68.8730 C.3       4 GLP5        0.0000 
     11 CA         28.4230  -24.3905   70.3475 C.3       2 GLC5        0.0000 
     12 CA         27.2940  -22.8730   70.8060 C.3       4 GLP5        0.0000 
     13 CA         28.2900  -28.4400   71.6300 C.3       2 GLC5        0.0000 
     14 CA         26.7230  -27.2780   71.9940 C.3       6 GLL5        0.0000 
     15 CA         28.0855  -28.6135   73.2380 C.3       2 GLC5        0.0000 
     16 CA         26.5080  -27.4090   73.4330 C.3       6 GLL5        0.0000 
     17 CA         29.6630  -29.8180   73.0430 C.3       4 GLP5        0.0000 
     18 CA         23.1755  -28.5450   68.6045 C.3       2 GLC5        0.0000 
     19 CA         23.3330  -28.7790   70.6620 C.3       6 GLL5        0.0000 
     20 CA         23.0180  -28.3110   66.5470 C.3       4 GLP5        0.0000 
     21 CA         20.2380  -30.7200   68.8625 C.3       2 GLC5        0.0000 
     22 CA         21.0190  -29.7690   70.3290 C.3       6 GLL5        0.0000 
     23 CA         19.4570  -31.6710   67.3960 C.3       4 GLP5        0.0000 
     24 O          18.9880  -30.8045   71.9740 O.2       1 ALC1        0.0000 
     25 O          20.2950  -30.9590   70.8300 O.2       5 ALL1        0.0000 
     26 O          17.6810  -30.6500   73.1180 O.2       3 ALP1        0.0000 
     27 CA         19.3075  -36.3840   71.6940 C.3       2 GLC5        0.0000 
     28 CA         20.4180  -34.7990   71.2620 C.3       6 GLL5        0.0000 
     29 CA         18.1970  -37.9690   72.1260 C.3       4 GLP5        0.0000 
     30 CA         20.8585  -35.8450   73.2040 C.3       2 GLC5        0.0000 
     31 CA         21.2990  -36.8910   75.1460 C.3       4 GLP5        0.0000 
     32 CA         24.5960  -33.0820   68.4310 C.3       2 GLC5        0.0000 
     33 CA         23.6880  -34.5450   69.4510 C.3       6 GLL5        0.0000 
     34 CA         25.5040  -31.6190   67.4110 C.3       4 GLP5        0.0000 
     35 CA         22.7650  -34.8530   68.0030 C.3       2 GLC5        0.0000 
     36 CA         21.8420  -35.1610   66.5550 C.3       4 GLP5        0.0000 
     37 CA         23.3445  -35.9190   67.8790 C.3       2 GLC5        0.0000 
     38 CA         24.8470  -36.6770   69.2030 C.3       6 GLL5        0.0000 
     39 CA         25.1150  -35.2395   72.0795 C.3       2 GLC5        0.0000 
     40 CA         26.2670  -36.1610   71.3830 C.3       6 GLL5        0.0000 
     41 CA         23.9630  -34.3180   72.7760 C.3       4 GLP5        0.0000 
     42 CA         25.6653  -25.9733   74.5320 C.3       2 GLC5        0.0000 
     43 CA         25.4540  -24.2940   75.3670 C.3       4 GLP5        0.0000 
     44 CA         23.6248  -26.7195   72.6173 C.3       2 GLC5        0.0000 
     45 CA         25.2450  -27.8960   73.9610 C.3       6 GLL5        0.0000 
     46 CA         22.4970  -25.2640   71.7330 C.3       4 GLP5        0.0000 
     47 CA         22.5065  -27.2455   72.4427 C.3       2 GLC5        0.0000 
     48 CA         21.9900  -29.4400   72.7100 C.3       6 GLL5        0.0000 
     49 CA         22.1127  -30.9485   73.0579 C.3       2 GLC5        0.0000 
     50 CA         23.0420  -29.0140   73.5950 C.3       6 GLL5        0.0000 
     51 CA         21.9060  -32.6200   73.9210 C.3       4 GLP5        0.0000 
     52 CA         23.0412  -26.9748   71.4846 C.3       2 GLC5        0.0000 
     53 CA         24.4430  -28.3180   71.5230 C.3       6 GLL5        0.0000 
     54 CA         24.9269  -26.0961   71.5819 C.3       2 GLC5        0.0000 
     55 CA         25.7080  -27.7250   71.0060 C.3       6 GLL5        0.0000 
     56 CA         23.6920  -24.6580   71.3040 C.3       4 GLP5        0.0000 
     57 CA         18.1617  -34.6208   70.9775 C.3       2 GLC5        0.0000 
     58 CA         16.1410  -35.1360   70.6640 C.3       4 GLP5        0.0000 
     59 CA         21.1464  -33.2286   72.5329 C.3       2 GLC5        0.0000 
     60 CA         20.0655  -32.3139   69.1310 C.3       2 GLC5        0.0000 
     61 CA         19.9470  -33.4120   71.3200 C.3       6 GLL5        0.0000 
     62 CA         23.3990  -34.3491   71.3345 C.3       2 GLC5        0.0000 
     63 CA         21.7080  -35.0880   70.6070 C.3       6 GLL5        0.0000 
     64 CA         24.6493  -35.6262   71.2692 C.3       2 GLC5        0.0000 
@<TRIPOS>BOND
@<TRIPOS>SUBSTRUCTURE
     1 ALC1        1 GROUP        1 X    ALC  0     ROOT ALC X 1
     2 GLC5        4 GROUP        1 X    GLC  0     **** GLC X 6
     3 ALP1        3 GROUP        1 Y    ALP  0     ROOT ALP Y 8
     4 GLP5        6 GROUP        1 Y    GLP  0     **** GLP Y 13
     5 ALL1        2 GROUP        1 Z    ALL  0     ROOT ALL Z 15
     6 GLL5        5 GROUP        1 Z    GLL  0     **** GLL Z 20
@<TRIPOS>SET

