#    Name: 1f28_F89_4_ligand
#    Modification time : Tue Mar 25 00:42:51 2014

@<TRIPOS>MOLECULE
1f28_F89_4_ligand
   59    63     1     0     0
SMALL
NO_CHARGES


@<TRIPOS>ATOM
      1 C1         26.1070  -27.5010   69.5910 C.2       1 F89404      0.0000 
      2 O1A        25.3580  -27.6800   68.6270 O.2       1 F89404      0.0000 
      3 N2         27.3380  -26.9230   69.2970 N.am      1 F89404      0.0000 
      4 C3         28.2340  -26.5300   70.2520 C.2       1 F89404      0.0000 
      5 C3M        29.5520  -25.9080   69.8890 C.3       1 F89404      0.0000 
      6 N4         27.9010  -26.7170   71.5740 N.2       1 F89404      0.0000 
      7 C4A        26.7230  -27.2780   71.9940 C.ar      1 F89404      0.0000 
      8 C5         26.5080  -27.4090   73.4330 C.ar      1 F89404      0.0000 
      9 C6         25.2450  -27.8960   73.9610 C.ar      1 F89404      0.0000 
     10 C6A        24.2600  -28.4540   73.0420 C.ar      1 F89404      0.0000 
     11 C7         23.0420  -29.0140   73.5950 C.ar      1 F89404      0.0000 
     12 C8         21.9900  -29.4400   72.7100 C.ar      1 F89404      0.0000 
     13 C9         22.1230  -29.3270   71.2370 C.ar      1 F89404      0.0000 
     14 C10        23.3330  -28.7790   70.6620 C.ar      1 F89404      0.0000 
     15 C1B        24.4430  -28.3180   71.5230 C.ar      1 F89404      0.0000 
     16 C1A        25.7080  -27.7250   71.0060 C.ar      1 F89404      0.0000 
     17 C11        21.0190  -29.7690   70.3290 C.3       1 F89404      0.0000 
     18 N12        20.2950  -30.9590   70.8300 N.pl3     1 F89404      0.0000 
     19 C13        20.7640  -32.3390   70.7350 C.ar      1 F89404      0.0000 
     20 C14        22.0380  -32.6640   70.0890 C.ar      1 F89404      0.0000 
     21 C15        22.4740  -34.0220   70.0370 C.ar      1 F89404      0.0000 
     22 C16        21.7080  -35.0880   70.6070 C.ar      1 F89404      0.0000 
     23 C17        20.4180  -34.7990   71.2620 C.ar      1 F89404      0.0000 
     24 C18        19.9470  -33.4120   71.3200 C.ar      1 F89404      0.0000 
     25 C19        23.6880  -34.5450   69.4510 C.3       1 F89404      0.0000 
     26 C          22.4290  -36.3460   70.4070 C.2       1 F89404      0.0000 
     27 O          22.3040  -37.3550   71.1200 O.2       1 F89404      0.0000 
     28 N          23.5850  -35.9790   69.7200 N.am      1 F89404      0.0000 
     29 CA         24.8470  -36.6770   69.2030 C.3       1 F89404      0.0000 
     30 CT         24.5690  -37.7620   68.0990 C.2       1 F89404      0.0000 
     31 O1         23.3920  -38.1120   67.9080 O.co2     1 F89404      0.0000 
     32 O2         25.4480  -38.0240   67.2440 O.co2     1 F89404      0.0000 
     33 CB         25.8240  -37.1920   70.3220 C.3       1 F89404      0.0000 
     34 CG         26.2670  -36.1610   71.3830 C.3       1 F89404      0.0000 
     35 CD         27.7860  -36.0810   71.6740 C.2       1 F89404      0.0000 
     36 OE1        28.5180  -35.5000   70.8370 O.co2     1 F89404      0.0000 
     37 OE2        28.1870  -36.2430   72.8390 O.co2     1 F89404      0.0000 
     38 H          27.5842  -26.7847   68.2790 H         1 F89404      0.0000 
     39 H          27.2542  -27.1551   74.0708 H         1 F89404      0.0000 
     40 H          25.0516  -27.8501   74.9411 H         1 F89404      0.0000 
     41 H          22.9376  -29.1023   74.5929 H         1 F89404      0.0000 
     42 H          21.1295  -29.8294   73.0844 H         1 F89404      0.0000 
     43 H          23.4335  -28.7048   69.6585 H         1 F89404      0.0000 
     44 H          21.4405  -29.9845   69.3279 H         1 F89404      0.0000 
     45 H          20.3077  -28.9313   70.1925 H         1 F89404      0.0000 
     46 H          19.3735  -30.7900   71.2880 H         1 F89404      0.0000 
     47 H          22.5897  -31.9230   69.6897 H         1 F89404      0.0000 
     48 H          19.8801  -35.5357   71.6563 H         1 F89404      0.0000 
     49 H          19.0729  -33.1946   71.7558 H         1 F89404      0.0000 
     50 H          24.5549  -34.1371   69.9349 H         1 F89404      0.0000 
     51 H          23.7121  -34.3658   68.3930 H         1 F89404      0.0000 
     52 H          25.4482  -35.8661   68.6522 H         1 F89404      0.0000 
     53 H          26.7239  -37.6041   69.8236 H         1 F89404      0.0000 
     54 H          25.3356  -38.0457   70.8325 H         1 F89404      0.0000 
     55 H          25.7396  -36.3832   72.3335 H         1 F89404      0.0000 
     56 H          25.9176  -35.1565   71.0671 H         1 F89404      0.0000 
     57 H          30.0914  -25.6809   70.6999 H         1 F89404      0.0000 
     58 H          30.1095  -26.5200   69.3281 H         1 F89404      0.0000 
     59 H          29.4328  -25.0617   69.3697 H         1 F89404      0.0000 
@<TRIPOS>BOND
     1    2    1 2    
     2    3    1 am   
     3   16    1 1    
     4    4    3 1    
     5   38    3 1    
     6    5    4 1    
     7    6    4 2    
     8   57    5 1    
     9   58    5 1    
    10   59    5 1    
    11    7    6 1    
    12    8    7 ar   
    13   16    7 ar   
    14    9    8 ar   
    15   39    8 1    
    16   10    9 ar   
    17   40    9 1    
    18   11   10 ar   
    19   15   10 ar   
    20   12   11 ar   
    21   41   11 1    
    22   13   12 ar   
    23   42   12 1    
    24   14   13 ar   
    25   17   13 1    
    26   15   14 ar   
    27   43   14 1    
    28   16   15 ar   
    29   18   17 1    
    30   44   17 1    
    31   45   17 1    
    32   19   18 1    
    33   46   18 1    
    34   20   19 ar   
    35   24   19 ar   
    36   21   20 ar   
    37   47   20 1    
    38   22   21 ar   
    39   25   21 1    
    40   23   22 ar   
    41   26   22 1    
    42   24   23 ar   
    43   48   23 1    
    44   49   24 1    
    45   28   25 1    
    46   50   25 1    
    47   51   25 1    
    48   27   26 2    
    49   28   26 am   
    50   29   28 1    
    51   30   29 1    
    52   33   29 1    
    53   52   29 1    
    54   31   30 ar   
    55   32   30 ar   
    56   34   33 1    
    57   53   33 1    
    58   54   33 1    
    59   35   34 1    
    60   55   34 1    
    61   56   34 1    
    62   36   35 ar   
    63   37   35 ar   
@<TRIPOS>SUBSTRUCTURE
     1 F89404      1 GROUP   
@<TRIPOS>SET

