#    Name: 2y1t_DUD_3_INTS_M
#    Modification time : Tue Mar 25 07:24:20 2014

@<TRIPOS>MOLECULE
2y1t_DUD_3_INTS_M
   44     0    12     0     0
SMALL
NO_CHARGES


@<TRIPOS>ATOM
      1 O          -4.6990   37.9715  -40.8090 O.2       1 ALC1        0.0000 
      2 O          -4.9600   37.7240  -42.1870 O.2       9 ALL1        0.0000 
      3 O          -4.4380   38.2190  -39.4310 O.2       5 ALP1        0.0000 
      4 CA         -3.1100   38.8875  -44.8685 C.3       4 GLC5        0.0000 
      5 CA         -4.1560   37.4230  -44.4050 C.3      12 GLL5        0.0000 
      6 CA         -2.0640   40.3520  -45.3320 C.3       8 GLP5        0.0000 
      7 N          -7.0180   37.3760  -40.1080 N.am      2 SEC2        0.0000 
      8 N          -6.9660   37.1150  -41.4910 N.am     10 SEL2        0.0000 
      9 N          -7.0700   37.6370  -38.7250 N.am      6 SEP2        0.0000 
     10 N          -1.7660   37.8965  -43.6690 N.am      2 SEC2        0.0000 
     11 N          -2.8210   38.3770  -42.7570 N.am     10 SEL2        0.0000 
     12 N          -0.7110   37.4160  -44.5810 N.am      6 SEP2        0.0000 
     13 CA         -9.5550   35.8300  -43.6250 C.3       4 GLC5        0.0000 
     14 CA         -7.7070   36.1430  -44.0630 C.3      12 GLL5        0.0000 
     15 CA        -11.4030   35.5170  -43.1870 C.3       8 GLP5        0.0000 
     16 CA        -10.0220   37.0910  -44.8300 C.3       4 GLC5        0.0000 
     17 CA         -8.3160   36.5170  -45.4240 C.3      12 GLL5        0.0000 
     18 CA        -11.7280   37.6650  -44.2360 C.3       8 GLP5        0.0000 
     19 NZ         -9.4375   30.8280  -48.8310 N.4       3 LYC4        0.0000 
     20 NZ         -8.1940   31.2630  -48.8170 N.4      11 LYL4        0.0000 
     21 NZ        -10.6810   30.3930  -48.8450 N.4       7 LYP4        0.0000 
     22 NZ         -7.9860   30.8165  -50.2390 N.4       3 LYC4        0.0000 
     23 NZ         -7.7780   30.3700  -51.6610 N.4       7 LYP4        0.0000 
     24 N          -9.4375   30.8280  -48.8310 N.am      2 SEC2        0.0000 
     25 N          -8.1940   31.2630  -48.8170 N.am     10 SEL2        0.0000 
     26 N         -10.6810   30.3930  -48.8450 N.am      6 SEP2        0.0000 
     27 N          -7.9860   30.8165  -50.2390 N.am      2 SEC2        0.0000 
     28 N          -7.7780   30.3700  -51.6610 N.am      6 SEP2        0.0000 
     29 N          -4.7045   34.0680  -48.1845 N.am      2 SEC2        0.0000 
     30 N          -5.6660   34.8860  -49.3110 N.am     10 SEL2        0.0000 
     31 N          -3.7430   33.2500  -47.0580 N.am      6 SEP2        0.0000 
     32 NZ         -7.1055   31.7395  -51.3100 N.4       3 LYC4        0.0000 
     33 NZ         -6.4330   33.1090  -50.9590 N.4      11 LYL4        0.0000 
     34 N          -7.1055   31.7395  -51.3100 N.am      2 SEC2        0.0000 
     35 N          -6.4330   33.1090  -50.9590 N.am     10 SEL2        0.0000 
     36 CA         -6.1822   38.5998  -44.3573 C.3       4 GLC5        0.0000 
     37 CA         -5.4170   36.9040  -44.7180 C.3      12 GLL5        0.0000 
     38 CA         -7.5780   40.0360  -44.1530 C.3       8 GLP5        0.0000 
     39 CA         -3.8447   35.6508  -45.4973 C.3       4 GLC5        0.0000 
     40 CA         -2.9030   34.1380  -46.4330 C.3       8 GLP5        0.0000 
     41 CA         -7.7948   38.1830  -44.4483 C.3       4 GLC5        0.0000 
     42 CA         -9.9652   34.7820  -45.0533 C.3       4 GLC5        0.0000 
     43 CA         -8.0950   35.2500  -46.2180 C.3      12 GLL5        0.0000 
     44 CA        -11.8470   34.8830  -44.3910 C.3       8 GLP5        0.0000 
@<TRIPOS>BOND
@<TRIPOS>SUBSTRUCTURE
     1 ALC1        1 GROUP        1 X    ALC  0     ROOT ALC X 1
     2 SEC2        7 GROUP        1 X    SEC  0     **** SEC X 2
     3 LYC4       19 GROUP        1 X    LYC  0     **** LYC X 4
     4 GLC5        4 GROUP        1 X    GLC  0     **** GLC X 6
     5 ALP1        3 GROUP        1 Y    ALP  0     ROOT ALP Y 8
     6 SEP2        9 GROUP        1 Y    SEP  0     **** SEP Y 9
     7 LYP4       21 GROUP        1 Y    LYP  0     **** LYP Y 11
     8 GLP5        6 GROUP        1 Y    GLP  0     **** GLP Y 13
     9 ALL1        2 GROUP        1 Z    ALL  0     ROOT ALL Z 15
    10 SEL2        8 GROUP        1 Z    SEL  0     **** SEL Z 16
    11 LYL4       20 GROUP        1 Z    LYL  0     **** LYL Z 18
    12 GLL5        5 GROUP        1 Z    GLL  0     **** GLL Z 20
@<TRIPOS>SET

