#    Name: 2y1t_DUD_3_ligand
#    Modification time : Tue Mar 25 07:24:20 2014

@<TRIPOS>MOLECULE
2y1t_DUD_3_ligand
   35    36     1     0     0
SMALL
NO_CHARGES


@<TRIPOS>ATOM
      1 N1         -6.3630   36.7350  -43.7520 N.am      1 DUD143      0.0000 
      2 C2         -6.1280   37.2330  -42.4500 C.2       1 DUD143      0.0000 
      3 N3         -4.9600   37.7240  -42.1870 N.am      1 DUD143      0.0000 
      4 C4         -3.9230   37.8370  -43.1070 C.2       1 DUD143      0.0000 
      5 C5         -4.1560   37.4230  -44.4050 C.2       1 DUD143      0.0000 
      6 C6         -5.4170   36.9040  -44.7180 C.2       1 DUD143      0.0000 
      7 O2         -6.9660   37.1150  -41.4910 O.2       1 DUD143      0.0000 
      8 O4         -2.8210   38.3770  -42.7570 O.2       1 DUD143      0.0000 
      9 C1'        -7.7070   36.1430  -44.0630 C.3       1 DUD143      0.0000 
     10 C2'        -8.3160   36.5170  -45.4240 C.3       1 DUD143      0.0000 
     11 C3'        -8.0950   35.2500  -46.2180 C.3       1 DUD143      0.0000 
     12 C4'        -8.0720   34.1120  -45.2130 C.3       1 DUD143      0.0000 
     13 O4'        -7.5160   34.7130  -44.0440 O.3       1 DUD143      0.0000 
     14 O3'        -9.0850   35.0850  -47.2270 O.3       1 DUD143      0.0000 
     15 C5'        -7.2000   32.9560  -45.5930 C.3       1 DUD143      0.0000 
     16 O5'        -7.8940   32.1210  -46.5190 O.3       1 DUD143      0.0000 
     17 PA         -7.0860   31.5940  -47.8130 P.3       1 DUD143      0.0000 
     18 O1A        -8.1940   31.2630  -48.8170 O.co2     1 DUD143      0.0000 
     19 O2A        -5.7960   30.7880  -47.5970 O.co2     1 DUD143      0.0000 
     20 O3A        -6.2680   32.6380  -48.6610 O.3       1 DUD143      0.0000 
     21 PB         -6.6680   33.7840  -49.6200 P.3       1 DUD143      0.0000 
     22 O1B        -5.6660   34.8860  -49.3110 O.co2     1 DUD143      0.0000 
     23 O2B        -8.0960   34.2310  -49.3280 O.co2     1 DUD143      0.0000 
     24 O3B        -6.4330   33.1090  -50.9590 O.co2     1 DUD143      0.0000 
     25 H          -4.7361   38.0815  -41.1957 H         1 DUD143      0.0000 
     26 H          -3.4359   37.4905  -45.1185 H         1 DUD143      0.0000 
     27 H          -5.6189   36.6493  -45.7035 H         1 DUD143      0.0000 
     28 H          -8.4064   36.4126  -43.2831 H         1 DUD143      0.0000 
     29 H          -7.7716   37.3149  -45.8440 H         1 DUD143      0.0000 
     30 H          -9.3460   36.7040  -45.3074 H         1 DUD143      0.0000 
     31 H          -7.0914   35.3170  -46.6487 H         1 DUD143      0.0000 
     32 H          -9.0688   33.7935  -45.0237 H         1 DUD143      0.0000 
     33 H          -6.9333   32.4058  -44.6808 H         1 DUD143      0.0000 
     34 H          -6.2707   33.3482  -46.0272 H         1 DUD143      0.0000 
     35 H          -8.6009   35.2278  -48.0903 H         1 DUD143      0.0000 
@<TRIPOS>BOND
     1    2    1 1    
     2    6    1 1    
     3    9    1 1    
     4    3    2 1    
     5    7    2 2    
     6    4    3 1    
     7   25    3 1    
     8    5    4 1    
     9    8    4 2    
    10    6    5 2    
    11   26    5 1    
    12   27    6 1    
    13   10    9 1    
    14   13    9 1    
    15   28    9 1    
    16   11   10 1    
    17   29   10 1    
    18   30   10 1    
    19   12   11 1    
    20   14   11 1    
    21   31   11 1    
    22   13   12 1    
    23   15   12 1    
    24   32   12 1    
    25   35   14 1    
    26   16   15 1    
    27   33   15 1    
    28   34   15 1    
    29   17   16 1    
    30   18   17 ar   
    31   19   17 ar   
    32   20   17 1    
    33   21   20 1    
    34   22   21 ar   
    35   23   21 ar   
    36   24   21 ar   
@<TRIPOS>SUBSTRUCTURE
     1 DUD143      1 GROUP   
@<TRIPOS>SET

