#    Name: 3O2K_1_CAVITY_N1_6.mol2
#    Modification time : Tue Mar 11 19:01:28 2014

@<TRIPOS>MOLECULE
3O2K_1_CAVITY_N1_6.mol2
  146     0     7     0     0
SMALL
NO_CHARGES


@<TRIPOS>ATOM
      1 N         -25.2840   14.2318  -11.7050 N.2       2 ALA2        0.0000 
      2 OD1       -26.3012   13.6851  -10.7478 O.3       3 ASP3        0.0000 
      3 OD1       -25.6730   12.3273  -10.8556 O.3       3 ASP3        0.0000 
      4 OD1       -26.0620   10.4228  -10.0061 O.3       3 ASP3        0.0000 
      5 OD1       -23.3609   15.1063  -11.5124 O.3       3 ASP3        0.0000 
      6 OD1       -24.3782   14.5596  -10.5552 O.3       3 ASP3        0.0000 
      7 OD1       -25.3955   14.0129   -9.5980 O.3       3 ASP3        0.0000 
      8 NZ        -22.7327   13.7485  -11.6202 N.2       4 LYS4        0.0000 
      9 OD1       -23.7499   13.2018  -10.6630 O.3       3 ASP3        0.0000 
     10 OD1       -24.7672   12.6551   -9.7057 O.3       3 ASP3        0.0000 
     11 OD1       -23.1216   11.8440  -10.7708 O.3       3 ASP3        0.0000 
     12 DU        -24.1389   11.2973   -9.8135 H         7 CUB7        0.0000 
     13 OD1       -25.1562   10.7506   -8.8563 O.3       3 ASP3        0.0000 
     14 OD1       -26.1734   10.2039   -7.8990 O.3       3 ASP3        0.0000 
     15 DU        -23.5106    9.9395   -9.9213 H         7 CUB7        0.0000 
     16 DU        -24.5279    9.3928   -8.9641 H         7 CUB7        0.0000 
     17 OG        -25.5452    8.8461   -8.0068 O.2       1 SER1        0.0000 
     18 OD1       -25.5069   13.7941   -7.4909 O.3       3 ASP3        0.0000 
     19 OD1       -23.8614   12.9830   -8.5559 O.3       3 ASP3        0.0000 
     20 OD1       -24.8787   12.4363   -7.5987 O.3       3 ASP3        0.0000 
     21 OD1       -22.2159   12.1719   -9.6210 O.3       3 ASP3        0.0000 
     22 OD1       -23.2331   11.6252   -8.6637 O.3       3 ASP3        0.0000 
     23 OG        -24.2504   11.0785   -7.7065 O.2       1 SER1        0.0000 
     24 NZ        -21.5876   10.8140   -9.7287 N.2       4 LYS4        0.0000 
     25 NZ        -22.6048   10.2674   -8.7715 N.2       4 LYS4        0.0000 
     26 OG        -23.6221    9.7207   -7.8143 O.2       1 SER1        0.0000 
     27 OG        -24.6394    9.1740   -6.8570 O.2       1 SER1        0.0000 
     28 NZ        -21.9766    8.9095   -8.8793 N.2       4 LYS4        0.0000 
     29 DU        -22.9938    8.3629   -7.9220 H         7 CUB7        0.0000 
     30 CA        -24.0111    7.8162   -6.9648 C.3       6 GLY6        0.0000 
     31 CA        -24.6012   14.1219   -6.3411 C.3       6 GLY6        0.0000 
     32 OG        -25.6184   13.5753   -5.3838 O.2       1 SER1        0.0000 
     33 OD1       -22.9556   13.3108   -7.4061 O.3       3 ASP3        0.0000 
     34 OG        -23.9729   12.7641   -6.4489 O.2       1 SER1        0.0000 
     35 NZ        -22.3273   11.9530   -7.5139 N.2       4 LYS4        0.0000 
     36 OG        -23.3446   11.4063   -6.5567 O.2       1 SER1        0.0000 
     37 NZ        -22.7163   10.0485   -6.6644 N.2       4 LYS4        0.0000 
     38 NZ        -22.0880    8.6907   -6.7722 N.2       4 LYS4        0.0000 
     39 CA        -23.1053    8.1440   -5.8150 C.3       6 GLY6        0.0000 
     40 N         -21.4598    7.3329   -6.8800 N.2       2 ALA2        0.0000 
     41 CA        -23.3064   16.3543   -6.0407 C.3       6 GLY6        0.0000 
     42 OG        -24.3236   15.8076   -5.0835 O.2       1 SER1        0.0000 
     43 OD1       -22.6781   14.9965   -6.1485 O.3       3 ASP3        0.0000 
     44 DU        -23.6954   14.4498   -5.1913 H         7 CUB7        0.0000 
     45 OG        -24.7126   13.9031   -4.2340 O.2       1 SER1        0.0000 
     46 OD1       -22.0498   13.6387   -6.2563 O.3       3 ASP3        0.0000 
     47 O         -23.0671   13.0920   -5.2991 O.2       2 ALA2        0.0000 
     48 NZ        -21.1823    9.0185   -5.6224 N.2       4 LYS4        0.0000 
     49 O         -22.1995    8.4719   -4.6652 O.2       2 ALA2        0.0000 
     50 CA        -20.5540    7.6607   -5.7302 C.3       6 GLY6        0.0000 
     51 CA        -21.5712    7.1140   -4.7730 C.3       6 GLY6        0.0000 
     52 OG        -22.4006   16.6821   -4.8909 O.2       1 SER1        0.0000 
     53 OG        -23.4179   16.1354   -3.9337 O.2       1 SER1        0.0000 
     54 CA        -20.7551   15.8710   -5.9559 C.3       6 GLY6        0.0000 
     55 OG        -21.7723   15.3243   -4.9987 O.2       1 SER1        0.0000 
     56 O         -22.7896   14.7776   -4.0415 O.2       2 ALA2        0.0000 
     57 O         -23.8068   14.2309   -3.0842 O.2       2 ALA2        0.0000 
     58 O         -21.1440   13.9665   -5.1065 O.2       2 ALA2        0.0000 
     59 OG        -21.4948   17.0100   -3.7411 O.2       1 SER1        0.0000 
     60 OG        -22.5121   16.4633   -2.7839 O.2       1 SER1        0.0000 
     61 OG        -20.8665   15.6522   -3.8489 O.2       1 SER1        0.0000 
     62 O         -21.8838   15.1055   -2.8916 O.2       2 ALA2        0.0000 
     63 O         -20.2383   14.2944   -3.9567 O.2       2 ALA2        0.0000 
     64 CZ        -22.8628   19.5068   -1.4185 C.ar      5 PHE5        0.0000 
     65 CZ        -22.2346   18.1489   -1.5263 C.ar      5 PHE5        0.0000 
     66 OG        -21.6063   16.7911   -1.6340 O.2       1 SER1        0.0000 
     67 OG        -20.9780   15.4333   -1.7418 O.2       1 SER1        0.0000 
     68 OG        -19.3325   14.6222   -2.8069 O.2       1 SER1        0.0000 
     69 O         -20.3497   14.0755   -1.8496 O.2       2 ALA2        0.0000 
     70 CA        -22.5853   21.1924   -0.1609 C.3       6 GLY6        0.0000 
     71 CA        -23.6026   20.6457    0.7964 C.3       6 GLY6        0.0000 
     72 CZ        -20.9398   20.3813   -1.2259 C.ar      5 PHE5        0.0000 
     73 CZ        -21.9571   19.8346   -0.2687 C.ar      5 PHE5        0.0000 
     74 CZ        -22.9743   19.2879    0.6886 C.ar      5 PHE5        0.0000 
     75 CZ        -20.3115   19.0235   -1.3337 C.ar      5 PHE5        0.0000 
     76 CZ        -21.3288   18.4768   -0.3764 C.ar      5 PHE5        0.0000 
     77 CZ        -22.3460   17.9301    0.5808 C.ar      5 PHE5        0.0000 
     78 OG        -19.6832   17.6657   -1.4415 O.2       1 SER1        0.0000 
     79 CZ        -20.7005   17.1190   -0.4842 C.ar      5 PHE5        0.0000 
     80 CZ        -20.0722   15.7612   -0.5920 C.ar      5 PHE5        0.0000 
     81 OG        -18.4267   14.9500   -1.6570 O.2       1 SER1        0.0000 
     82 CZ        -19.4439   14.4034   -0.6998 C.ar      5 PHE5        0.0000 
     83 CA        -17.7984   13.5922   -1.7648 C.3       6 GLY6        0.0000 
     84 OG        -18.8157   13.0455   -0.8076 O.2       1 SER1        0.0000 
     85 CZ        -20.6623   22.0669    0.0317 C.ar      5 PHE5        0.0000 
     86 CA        -21.6795   21.5202    0.9889 C.3       6 GLY6        0.0000 
     87 CA        -22.6968   20.9736    1.9462 C.3       6 GLY6        0.0000 
     88 CZ        -23.7141   20.4269    2.9034 C.ar      5 PHE5        0.0000 
     89 OG        -20.0340   20.7091   -0.0761 O.2       1 SER1        0.0000 
     90 DU        -21.0513   20.1624    0.8812 H         7 CUB7        0.0000 
     91 DU        -22.0685   19.6158    1.8384 H         7 CUB7        0.0000 
     92 CA        -23.0858   19.0691    2.7956 C.3       6 GLY6        0.0000 
     93 CZ        -18.3885   19.8980   -1.1411 C.ar      5 PHE5        0.0000 
     94 CZ        -19.4057   19.3513   -0.1839 C.ar      5 PHE5        0.0000 
     95 CZ        -20.4230   18.8046    0.7734 C.ar      5 PHE5        0.0000 
     96 CZ        -21.4403   18.2579    1.7306 C.ar      5 PHE5        0.0000 
     97 CZ        -22.4575   17.7113    2.6879 C.ar      5 PHE5        0.0000 
     98 CZ        -17.7602   18.5402   -1.2489 C.ar      5 PHE5        0.0000 
     99 OG        -18.7775   17.9935   -0.2917 O.2       1 SER1        0.0000 
    100 CZ        -19.7947   17.4468    0.6656 C.ar      5 PHE5        0.0000 
    101 OG        -17.1319   17.1824   -1.3567 O.2       1 SER1        0.0000 
    102 OG        -18.1492   16.6357   -0.3994 O.2       1 SER1        0.0000 
    103 CZ        -19.1664   16.0890    0.5578 C.ar      5 PHE5        0.0000 
    104 CA        -17.5209   15.2779   -0.5072 C.3       6 GLY6        0.0000 
    105 OG        -18.5382   14.7312    0.4500 O.2       1 SER1        0.0000 
    106 O         -16.8926   13.9201   -0.6150 O.2       2 ALA2        0.0000 
    107 OG        -17.9099   13.3734    0.3422 O.2       1 SER1        0.0000 
    108 OG        -20.3848   23.7526    1.2893 O.2       1 SER1        0.0000 
    109 CA        -21.4020   23.2059    2.2465 C.3       6 GLY6        0.0000 
    110 CA        -22.4193   22.6592    3.2038 C.3       6 GLY6        0.0000 
    111 CA        -20.7738   21.8481    2.1388 C.3       6 GLY6        0.0000 
    112 CZ        -21.7910   21.3014    3.0960 C.ar      5 PHE5        0.0000 
    113 DU        -20.1455   20.4903    2.0310 H         7 CUB7        0.0000 
    114 CZ        -21.1627   19.9436    2.9882 C.ar      5 PHE5        0.0000 
    115 CZ        -22.1800   19.3969    3.9455 C.ar      5 PHE5        0.0000 
    116 CA        -16.4654   20.7725   -0.9485 C.3       6 GLY6        0.0000 
    117 CA        -17.4827   20.2258    0.0087 C.3       6 GLY6        0.0000 
    118 DU        -18.4999   19.6792    0.9659 H         7 CUB7        0.0000 
    119 DU        -19.5172   19.1325    1.9232 H         7 CUB7        0.0000 
    120 CZ        -20.5345   18.5858    2.8804 C.ar      5 PHE5        0.0000 
    121 CZ        -21.5517   18.0391    3.8377 C.ar      5 PHE5        0.0000 
    122 CA        -15.8371   19.4147   -1.0563 C.3       6 GLY6        0.0000 
    123 CA        -16.8544   18.8680   -0.0991 C.3       6 GLY6        0.0000 
    124 CA        -17.8717   18.3213    0.8582 C.3       6 GLY6        0.0000 
    125 NZ        -18.8889   17.7747    1.8154 N.2       4 LYS4        0.0000 
    126 N         -16.2261   17.5102   -0.2069 N.2       2 ALA2        0.0000 
    127 NZ        -17.2434   16.9635    0.7504 N.2       4 LYS4        0.0000 
    128 NZ        -18.2607   16.4169    1.7076 N.2       4 LYS4        0.0000 
    129 CA        -16.6151   15.6057    0.6426 C.3       6 GLY6        0.0000 
    130 NZ        -17.6324   15.0590    1.5998 N.2       4 LYS4        0.0000 
    131 OG        -19.4790   24.0804    2.4391 O.2       1 SER1        0.0000 
    132 OG        -20.4962   23.5337    3.3964 O.2       1 SER1        0.0000 
    133 CZ        -21.5135   22.9871    4.3536 C.ar      5 PHE5        0.0000 
    134 OG        -18.8507   22.7226    2.3313 O.2       1 SER1        0.0000 
    135 N         -19.8680   22.1759    3.2886 N.2       2 ALA2        0.0000 
    136 CZ        -20.8852   21.6292    4.2458 C.ar      5 PHE5        0.0000 
    137 N         -18.2224   21.3648    2.2235 N.2       2 ALA2        0.0000 
    138 N         -19.2397   20.8181    3.1808 N.2       2 ALA2        0.0000 
    139 N         -20.2570   20.2714    4.1380 N.2       2 ALA2        0.0000 
    140 CA        -16.5769   20.5537    1.1585 C.3       6 GLY6        0.0000 
    141 CA        -17.5942   20.0070    2.1158 C.3       6 GLY6        0.0000 
    142 N         -18.6114   19.4603    3.0730 N.2       2 ALA2        0.0000 
    143 N         -19.6287   18.9136    4.0302 N.2       2 ALA2        0.0000 
    144 NZ        -17.9831   18.1025    2.9652 N.2       4 LYS4        0.0000 
    145 N         -18.9622   22.5038    4.4384 N.2       2 ALA2        0.0000 
    146 CZ        -19.9794   21.9571    5.3956 C.ar      5 PHE5        0.0000 
@<TRIPOS>BOND
@<TRIPOS>SUBSTRUCTURE
     1 SER1       17 GROUP   
     2 ALA2        1 GROUP   
     3 ASP3        2 GROUP   
     4 LYS4        8 GROUP   
     5 PHE5       64 GROUP   
     6 GLY6       30 GROUP   
     7 CUB7       12 GROUP   
@<TRIPOS>SET

