#    Name: 3o2k_DST_1_INTS_M
#    Modification time : Tue Mar 25 03:10:20 2014

@<TRIPOS>MOLECULE
3o2k_DST_1_INTS_M
   44     0     9     0     0
SMALL
NO_CHARGES


@<TRIPOS>ATOM
      1 NZ        -22.5540   11.9430   -3.9205 N.4       2 LYC4        0.0000 
      2 NZ        -22.6810   12.9740   -5.2490 N.4       8 LYL4        0.0000 
      3 NZ        -22.4270   10.9120   -2.5920 N.4       5 LYP4        0.0000 
      4 NZ        -22.0450   14.7230   -7.5630 N.4       2 LYC4        0.0000 
      5 NZ        -23.1070   15.2160   -6.4390 N.4       8 LYL4        0.0000 
      6 NZ        -20.9830   14.2300   -8.6870 N.4       5 LYP4        0.0000 
      7 NZ        -23.2705   15.7980   -7.7570 N.4       2 LYC4        0.0000 
      8 NZ        -23.4340   16.3800   -9.0750 N.4       5 LYP4        0.0000 
      9 N         -22.0450   14.7230   -7.5630 N.am      1 SEC2        0.0000 
     10 N         -23.1070   15.2160   -6.4390 N.am      7 SEL2        0.0000 
     11 N         -20.9830   14.2300   -8.6870 N.am      4 SEP2        0.0000 
     12 N         -23.2705   15.7980   -7.7570 N.am      1 SEC2        0.0000 
     13 N         -23.4340   16.3800   -9.0750 N.am      4 SEP2        0.0000 
     14 N         -22.4705   15.1305   -1.1610 N.am      1 SEC2        0.0000 
     15 N         -21.5360   14.9360   -2.1230 N.am      7 SEL2        0.0000 
     16 N         -23.4050   15.3250   -0.1990 N.am      4 SEP2        0.0000 
     17 CA        -22.5070   19.2980   -3.8820 C.3       3 GLC5        0.0000 
     18 CA        -22.3580   17.4560   -2.9600 C.3       9 GLL5        0.0000 
     19 CA        -22.6560   21.1400   -4.8040 C.3       6 GLP5        0.0000 
     20 CA        -24.0790   18.1560   -2.3605 C.3       3 GLC5        0.0000 
     21 CA        -25.8000   18.8560   -1.7610 C.3       6 GLP5        0.0000 
     22 CA        -21.6000   16.4705    0.0425 C.3       3 GLC5        0.0000 
     23 CA        -21.5210   17.7320   -1.3540 C.3       9 GLL5        0.0000 
     24 CA        -21.6790   15.2090    1.4390 C.3       6 GLP5        0.0000 
     25 CA        -22.6265   20.2130   -2.2855 C.3       3 GLC5        0.0000 
     26 CA        -21.8600   19.0010   -0.9010 C.3       9 GLL5        0.0000 
     27 CA        -23.3930   21.4250   -3.6700 C.3       6 GLP5        0.0000 
     28 CA        -24.1600   18.6200    1.0700 C.3       3 GLC5        0.0000 
     29 CA        -22.4340   18.3960    1.5080 C.3       9 GLL5        0.0000 
     30 CA        -25.8860   18.8440    0.6320 C.3       6 GLP5        0.0000 
     31 CA        -21.9520   22.4350   -0.5260 C.3       3 GLC5        0.0000 
     32 CA        -22.6460   20.8540    0.5970 C.3       9 GLL5        0.0000 
     33 CA        -21.2580   24.0160   -1.6490 C.3       6 GLP5        0.0000 
     34 CA        -23.0195   21.1395   -1.5365 C.3       3 GLC5        0.0000 
     35 CA        -24.2660   19.8490    0.6145 C.3       3 GLC5        0.0000 
     36 CA        -20.3959   18.9378   -2.7095 C.3       3 GLC5        0.0000 
     37 CA        -18.8920   19.5780   -3.8900 C.3       6 GLP5        0.0000 
     38 CA        -23.1090   21.8233    0.8440 C.3       3 GLC5        0.0000 
     39 CA        -22.2980   19.3910    0.3590 C.3       9 GLL5        0.0000 
     40 CA        -23.7460   23.5240    1.2100 C.3       6 GLP5        0.0000 
     41 CA        -23.7036   18.5904   -0.4706 C.3       3 GLC5        0.0000 
     42 CA        -25.4130   18.3020   -0.5570 C.3       6 GLP5        0.0000 
     43 CA        -22.6373   17.0535    0.8698 C.3       3 GLC5        0.0000 
     44 CA        -23.0180   15.3110    1.1210 C.3       6 GLP5        0.0000 
@<TRIPOS>BOND
@<TRIPOS>SUBSTRUCTURE
     1 SEC2        9 GROUP        1 X    SEC  0     ROOT SEC X 2
     2 LYC4        1 GROUP        1 X    LYC  0     **** LYC X 4
     3 GLC5       17 GROUP        1 X    GLC  0     **** GLC X 6
     4 SEP2       11 GROUP        1 Y    SEP  0     ROOT SEP Y 9
     5 LYP4        3 GROUP        1 Y    LYP  0     **** LYP Y 11
     6 GLP5       19 GROUP        1 Y    GLP  0     **** GLP Y 13
     7 SEL2       10 GROUP        1 Z    SEL  0     ROOT SEL Z 16
     8 LYL4        2 GROUP        1 Z    LYL  0     **** LYL Z 18
     9 GLL5       18 GROUP        1 Z    GLL  0     **** GLL Z 20
@<TRIPOS>SET

