#    Name: 3o2k_DST_1_ligand
#    Modification time : Tue Mar 25 03:10:20 2014

@<TRIPOS>MOLECULE
3o2k_DST_1_ligand
   25    24     1     0     0
SMALL
NO_CHARGES


@<TRIPOS>ATOM
      1 O4        -22.6810   12.9740   -5.2490 O.co2     1 DST501      0.0000 
      2 P1        -23.4940   14.2120   -5.2410 P.3       1 DST501      0.0000 
      3 O6        -25.0770   13.9580   -5.4010 O.co2     1 DST501      0.0000 
      4 O5        -23.1070   15.2160   -6.4390 O.co2     1 DST501      0.0000 
      5 O2        -23.3310   15.0820   -3.8820 O.3       1 DST501      0.0000 
      6 P3        -21.8890   15.6410   -3.3760 P.3       1 DST501      0.0000 
      7 O8        -21.5360   14.9360   -2.1230 O.co2     1 DST501      0.0000 
      8 O7        -20.9370   15.6370   -4.5120 O.co2     1 DST501      0.0000 
      9 S9        -22.3580   17.4560   -2.9600 S.3       1 DST501      0.0000 
     10 C10       -21.5210   17.7320   -1.3540 C.3       1 DST501      0.0000 
     11 C11       -21.8600   19.0010   -0.9010 C.3       1 DST501      0.0000 
     12 C12       -22.2980   19.3910    0.3590 C.3       1 DST501      0.0000 
     13 C13       -22.4340   18.3960    1.5080 C.3       1 DST501      0.0000 
     14 C14       -22.6460   20.8540    0.5970 C.3       1 DST501      0.0000 
     15 H         -20.4994   17.5682   -1.6478 H         1 DST501      0.0000 
     16 H         -21.9011   16.8915   -0.8010 H         1 DST501      0.0000 
     17 H         -22.6322   19.4623   -1.6978 H         1 DST501      0.0000 
     18 H         -20.9538   19.7322   -1.1979 H         1 DST501      0.0000 
     19 H         -23.6740   19.1433   -0.0078 H         1 DST501      0.0000 
     20 H         -21.5609   17.9608    1.7277 H         1 DST501      0.0000 
     21 H         -22.7605   18.8367    2.3442 H         1 DST501      0.0000 
     22 H         -23.0799   17.6641    1.2910 H         1 DST501      0.0000 
     23 H         -21.8620   21.4533    0.4353 H         1 DST501      0.0000 
     24 H         -23.3811   21.1638   -0.0061 H         1 DST501      0.0000 
     25 H         -22.9496   21.0155    1.5360 H         1 DST501      0.0000 
@<TRIPOS>BOND
     1    2    1 ar   
     2    3    2 ar   
     3    4    2 ar   
     4    5    2 1    
     5    6    5 1    
     6    7    6 ar   
     7    8    6 ar   
     8    9    6 1    
     9   10    9 1    
    10   11   10 1    
    11   15   10 1    
    12   16   10 1    
    13   12   11 1    
    14   17   11 1    
    15   18   11 1    
    16   13   12 1    
    17   14   12 1    
    18   19   12 1    
    19   20   13 1    
    20   21   13 1    
    21   22   13 1    
    22   23   14 1    
    23   24   14 1    
    24   25   14 1    
@<TRIPOS>SUBSTRUCTURE
     1 DST501      1 GROUP   
@<TRIPOS>SET

