#    Name: 3o99_K13_1_INTS_M
#    Modification time : Tue Mar 25 03:23:44 2014

@<TRIPOS>MOLECULE
3o99_K13_1_INTS_M
   90     0     9     0     0
SMALL
NO_CHARGES


@<TRIPOS>ATOM
      1 O          13.3890   33.7495   18.6875 O.2       1 ALC1        0.0000 
      2 O          14.2900   34.9560   18.1170 O.2       7 ALL1        0.0000 
      3 O          12.4880   32.5430   19.2580 O.2       4 ALP1        0.0000 
      4 CA         15.2505   36.5180   15.7575 C.3       3 GLC5        0.0000 
      5 CA         16.2760   35.0950   16.7970 C.3       9 GLL5        0.0000 
      6 CA         14.2250   37.9410   14.7180 C.3       6 GLP5        0.0000 
      7 CA         15.2165   30.7020   15.1805 C.3       3 GLC5        0.0000 
      8 CA         15.8960   32.4230   16.0900 C.3       9 GLL5        0.0000 
      9 CA         14.5370   28.9810   14.2710 C.3       6 GLP5        0.0000 
     10 CA         21.3440   33.9765   13.6615 C.3       3 GLC5        0.0000 
     11 CA         22.1470   32.4360   14.9330 C.3       9 GLL5        0.0000 
     12 CA         20.5410   35.5170   12.3900 C.3       6 GLP5        0.0000 
     13 CA         22.7880   32.8290   19.0095 C.3       3 GLC5        0.0000 
     14 CA         22.1430   33.4300   17.2830 C.3       9 GLL5        0.0000 
     15 CA         23.4330   32.2280   20.7360 C.3       6 GLP5        0.0000 
     16 CA         23.9775   32.3360   17.3490 C.3       3 GLC5        0.0000 
     17 CA         25.8120   31.2420   17.4150 C.3       6 GLP5        0.0000 
     18 CA         17.4400   30.5890   17.6770 C.3       3 GLC5        0.0000 
     19 CA         18.9850   30.4770   16.1570 C.3       9 GLL5        0.0000 
     20 CA         15.8950   30.7010   19.1970 C.3       6 GLP5        0.0000 
     21 CA         22.9635   35.8250   15.1795 C.3       3 GLC5        0.0000 
     22 CA         22.1510   34.8520   16.7800 C.3       9 GLL5        0.0000 
     23 CA         23.7760   36.7980   13.5790 C.3       6 GLP5        0.0000 
     24 N          19.3115   27.7445   17.7180 N.am      2 SEC2        0.0000 
     25 N          19.8660   28.2590   16.4930 N.am      8 SEL2        0.0000 
     26 N          18.7570   27.2300   18.9430 N.am      5 SEP2        0.0000 
     27 O          18.6665   28.0410   16.8755 O.2       1 ALC1        0.0000 
     28 O          19.8660   28.2590   16.4930 O.2       7 ALL1        0.0000 
     29 O          17.4670   27.8230   17.2580 O.2       4 ALP1        0.0000 
     30 O          20.4085   26.6425   14.1465 O.2       1 ALC1        0.0000 
     31 O          20.6780   28.1510   13.7030 O.2       7 ALL1        0.0000 
     32 O          20.1390   25.1340   14.5900 O.2       4 ALP1        0.0000 
     33 CA         26.2795   25.5210   11.6475 C.3       3 GLC5        0.0000 
     34 CA         24.6900   26.9110   11.8740 C.3       9 GLL5        0.0000 
     35 CA         27.8690   24.1310   11.4210 C.3       6 GLP5        0.0000 
     36 CA         26.4835   27.7735   11.9010 C.3       3 GLC5        0.0000 
     37 CA         28.2770   28.6360   11.9280 C.3       6 GLP5        0.0000 
     38 CA         25.1605   28.2480   13.4060 C.3       3 GLC5        0.0000 
     39 CA         25.6310   29.5850   14.9380 C.3       6 GLP5        0.0000 
     40 N          25.3265   24.4200   12.3065 N.am      2 SEC2        0.0000 
     41 N          24.5150   25.5030   11.6570 N.am      8 SEL2        0.0000 
     42 N          26.1380   23.3370   12.9560 N.am      5 SEP2        0.0000 
     43 CA         23.2230   25.1760   12.8195 C.3       3 GLC5        0.0000 
     44 CA         23.5510   25.2830   10.6260 C.3       9 GLL5        0.0000 
     45 CA         22.8950   25.0690   15.0130 C.3       6 GLP5        0.0000 
     46 CA         23.7500   23.3915   11.1940 C.3       3 GLC5        0.0000 
     47 CA         23.9490   21.5000   11.7620 C.3       6 GLP5        0.0000 
     48 N          23.0155   23.8125   12.3145 N.am      2 SEC2        0.0000 
     49 N          22.4990   24.4350   11.0710 N.am      8 SEL2        0.0000 
     50 N          23.5320   23.1900   13.5580 N.am      5 SEP2        0.0000 
     51 CA         22.0725   25.0960   13.0625 C.3       3 GLC5        0.0000 
     52 CA         21.2500   25.1230   11.1120 C.3       9 GLL5        0.0000 
     53 CA         17.2555   26.1945   14.4480 C.3       3 GLC5        0.0000 
     54 CA         18.2670   28.1530   14.0400 C.3       9 GLL5        0.0000 
     55 CA         16.2440   24.2360   14.8560 C.3       6 GLP5        0.0000 
     56 CA         17.2080   25.3290   13.5230 C.3       3 GLC5        0.0000 
     57 CA         18.1720   26.4220   12.1900 C.3       9 GLL5        0.0000 
     58 CA         19.0055   29.3980    9.4355 C.3       3 GLC5        0.0000 
     59 CA         17.5150   28.3280   10.3130 C.3       9 GLL5        0.0000 
     60 CA         20.4960   30.4680    8.5580 C.3       6 GLP5        0.0000 
     61 CA         17.3545   30.2400    9.7970 C.3       3 GLC5        0.0000 
     62 CA         17.1940   32.1520    9.2810 C.3       6 GLP5        0.0000 
     63 CA         17.2055   30.6680   11.1530 C.3       3 GLC5        0.0000 
     64 CA         17.6940   28.6800   11.6430 C.3       9 GLL5        0.0000 
     65 CA         16.7170   32.6560   10.6630 C.3       6 GLP5        0.0000 
     66 CA         15.4925   32.2090   18.1567 C.3       3 GLC5        0.0000 
     67 CA         14.9950   33.0570   16.9390 C.3       9 GLL5        0.0000 
     68 CA         14.0340   34.7150   15.7317 C.3       3 GLC5        0.0000 
     69 CA         12.9780   35.7130   14.3470 C.3       6 GLP5        0.0000 
     70 CA         15.5343   32.7835   14.0062 C.3       3 GLC5        0.0000 
     71 CA         14.6270   32.8030   12.1790 C.3       6 GLP5        0.0000 
     72 CA         16.1683   31.7325   17.5153 C.3       3 GLC5        0.0000 
     73 CA         13.6922   32.1150   15.7462 C.3       3 GLC5        0.0000 
     74 CA         11.9390   31.4900   14.9780 C.3       6 GLP5        0.0000 
     75 CA         23.9580   34.4820   17.7667 C.3       3 GLC5        0.0000 
     76 CA         25.7690   34.8230   18.5020 C.3       6 GLP5        0.0000 
     77 CA         23.9895   26.6710   13.5320 C.3       3 GLC5        0.0000 
     78 CA         23.3880   27.5350   11.4060 C.3       9 GLL5        0.0000 
     79 CA         23.9400   26.1190   15.4240 C.3       6 GLP5        0.0000 
     80 CA         24.5265   29.1490   11.5515 C.3       3 GLC5        0.0000 
     81 CA         25.0140   31.0750   11.4630 C.3       6 GLP5        0.0000 
     82 CA         16.2490   26.1848   11.5987 C.3       3 GLC5        0.0000 
     83 CA         14.4130   26.1240   11.6710 C.3       6 GLP5        0.0000 
     84 CA         16.2390   28.0300    8.8885 C.3       3 GLC5        0.0000 
     85 CA         17.6470   27.0140    9.9130 C.3       9 GLL5        0.0000 
     86 CA         14.8970   28.3890    7.6640 C.3       6 GLP5        0.0000 
     87 CA         15.9970   26.8975   10.8920 C.3       3 GLC5        0.0000 
     88 CA         16.1395   27.1675   11.8950 C.3       3 GLC5        0.0000 
     89 CA         16.2301   28.6474   13.3756 C.3       3 GLC5        0.0000 
     90 CA         18.0380   27.7420   12.5950 C.3       9 GLL5        0.0000 
@<TRIPOS>BOND
@<TRIPOS>SUBSTRUCTURE
     1 ALC1        1 GROUP        1 X    ALC  0     ROOT ALC X 1
     2 SEC2       24 GROUP        1 X    SEC  0     **** SEC X 2
     3 GLC5        4 GROUP        1 X    GLC  0     **** GLC X 6
     4 ALP1        3 GROUP        1 Y    ALP  0     ROOT ALP Y 8
     5 SEP2       26 GROUP        1 Y    SEP  0     **** SEP Y 9
     6 GLP5        6 GROUP        1 Y    GLP  0     **** GLP Y 13
     7 ALL1        2 GROUP        1 Z    ALL  0     ROOT ALL Z 15
     8 SEL2       25 GROUP        1 Z    SEL  0     **** SEL Z 16
     9 GLL5        5 GROUP        1 Z    GLL  0     **** GLL Z 20
@<TRIPOS>SET

