#    Name: 3o99_K13_1_ligand
#    Modification time : Tue Mar 25 03:23:44 2014

@<TRIPOS>MOLECULE
3o99_K13_1_ligand
   78    81     1     0     0
SMALL
NO_CHARGES


@<TRIPOS>ATOM
      1 N1         14.2900   34.9560   18.1170 N.pl3     1 K13200      0.0000 
      2 C2         15.1850   34.3770   17.2940 C.ar      1 K13200      0.0000 
      3 C3         16.2760   35.0950   16.7970 C.ar      1 K13200      0.0000 
      4 C4         17.1690   34.4450   15.9350 C.ar      1 K13200      0.0000 
      5 C5         16.9870   33.1050   15.5770 C.ar      1 K13200      0.0000 
      6 C6         15.8960   32.4230   16.0900 C.ar      1 K13200      0.0000 
      7 C7         14.9950   33.0570   16.9390 C.ar      1 K13200      0.0000 
      8 S8         18.0160   32.3170   14.6060 S.o2      1 K13200      0.0000 
      9 O9         17.3560   31.2410   13.9410 O.2       1 K13200      0.0000 
     10 O10        18.5970   33.2130   13.6530 O.2       1 K13200      0.0000 
     11 N11        19.2770   31.7200   15.4300 N.pl3     1 K13200      0.0000 
     12 C12        19.9720   32.7460   16.2460 C.3       1 K13200      0.0000 
     13 C13        21.4690   32.4510   16.3100 C.3       1 K13200      0.0000 
     14 C14        22.1470   32.4360   14.9330 C.3       1 K13200      0.0000 
     15 C15        22.1430   33.4300   17.2830 C.3       1 K13200      0.0000 
     16 C16        18.9850   30.4770   16.1570 C.3       1 K13200      0.0000 
     17 C17        19.9100   29.3860   15.6070 C.3       1 K13200      0.0000 
     18 C18        22.1510   34.8520   16.7800 C.3       1 K13200      0.0000 
     19 O18        19.8660   28.2590   16.4930 O.3       1 K13200      0.0000 
     20 C19        19.5700   28.9530   14.1740 C.3       1 K13200      0.0000 
     21 N20        20.6780   28.1510   13.7030 N.am      1 K13200      0.0000 
     22 C21        21.5550   28.5010   12.7730 C.2       1 K13200      0.0000 
     23 O22        21.5970   29.5460   12.1620 O.2       1 K13200      0.0000 
     24 O23        22.5340   27.4800   12.5300 O.3       1 K13200      0.0000 
     25 C24        23.3880   27.5350   11.4060 C.3       1 K13200      0.0000 
     26 C25        24.6900   26.9110   11.8740 C.3       1 K13200      0.0000 
     27 O26        24.5150   25.5030   11.6570 O.3       1 K13200      0.0000 
     28 C27        23.5510   25.2830   10.6260 C.3       1 K13200      0.0000 
     29 O28        22.4990   24.4350   11.0710 O.3       1 K13200      0.0000 
     30 C29        21.2500   25.1230   11.1120 C.3       1 K13200      0.0000 
     31 C30        21.4290   26.3300   10.2060 C.3       1 K13200      0.0000 
     32 C31        22.9180   26.6200   10.2920 C.3       1 K13200      0.0000 
     33 C32        18.2670   28.1530   14.0400 C.3       1 K13200      0.0000 
     34 C33        18.1720   26.4220   12.1900 C.ar      1 K13200      0.0000 
     35 C34        17.9980   26.0690   10.8630 C.ar      1 K13200      0.0000 
     36 C35        17.6470   27.0140    9.9130 C.ar      1 K13200      0.0000 
     37 C36        17.5150   28.3280   10.3130 C.ar      1 K13200      0.0000 
     38 C37        17.6940   28.6800   11.6430 C.ar      1 K13200      0.0000 
     39 C38        18.0380   27.7420   12.5950 C.ar      1 K13200      0.0000 
     40 H          13.8254   34.3472   18.7600 H         1 K13200      0.0000 
     41 H          14.1698   35.9431   18.0118 H         1 K13200      0.0000 
     42 H          16.4199   36.0666   17.0540 H         1 K13200      0.0000 
     43 H          17.9778   34.9666   15.5567 H         1 K13200      0.0000 
     44 H          15.7473   31.4300   15.8402 H         1 K13200      0.0000 
     45 H          14.1830   32.5342   17.3022 H         1 K13200      0.0000 
     46 H          19.5748   32.7553   17.2632 H         1 K13200      0.0000 
     47 H          19.8304   33.7374   15.8106 H         1 K13200      0.0000 
     48 H          21.5826   31.4397   16.7509 H         1 K13200      0.0000 
     49 H          23.1757   33.0942   17.4568 H         1 K13200      0.0000 
     50 H          21.6161   33.3825   18.2471 H         1 K13200      0.0000 
     51 H          17.9595   30.1678   16.0023 H         1 K13200      0.0000 
     52 H          19.1797   30.5907   17.2155 H         1 K13200      0.0000 
     53 H          20.9284   29.7989   15.5959 H         1 K13200      0.0000 
     54 H          19.4915   29.8486   13.5638 H         1 K13200      0.0000 
     55 H          20.7574   27.1916   14.1796 H         1 K13200      0.0000 
     56 H          23.5799   28.4872   11.0472 H         1 K13200      0.0000 
     57 H          24.8264   27.1435   12.9154 H         1 K13200      0.0000 
     58 H          25.4941   27.3121   11.2827 H         1 K13200      0.0000 
     59 H          24.0052   24.9101    9.7338 H         1 K13200      0.0000 
     60 H          21.0120   25.4755   12.1037 H         1 K13200      0.0000 
     61 H          20.4421   24.5231   10.7224 H         1 K13200      0.0000 
     62 H          20.8779   27.1526   10.5870 H         1 K13200      0.0000 
     63 H          21.1671   26.0759    9.2097 H         1 K13200      0.0000 
     64 H          23.3017   26.9295    9.3582 H         1 K13200      0.0000 
     65 H          17.4370   28.7688   14.3800 H         1 K13200      0.0000 
     66 H          18.3306   27.2655   14.6660 H         1 K13200      0.0000 
     67 H          18.4045   25.6947   12.8883 H         1 K13200      0.0000 
     68 H          18.1324   25.0815   10.5749 H         1 K13200      0.0000 
     69 H          17.4905   26.7429    8.9426 H         1 K13200      0.0000 
     70 H          17.2811   29.0580    9.6192 H         1 K13200      0.0000 
     71 H          17.5654   29.6730   11.9255 H         1 K13200      0.0000 
     72 H          23.1259   32.2439   15.0031 H         1 K13200      0.0000 
     73 H          21.7538   31.7393   14.3330 H         1 K13200      0.0000 
     74 H          22.0535   33.3139   14.4634 H         1 K13200      0.0000 
     75 H          22.5899   35.4731   17.4293 H         1 K13200      0.0000 
     76 H          22.6440   34.9369   15.9141 H         1 K13200      0.0000 
     77 H          21.2250   35.1964   16.6251 H         1 K13200      0.0000 
     78 H          18.9730   27.8384   16.3325 H         1 K13200      0.0000 
@<TRIPOS>BOND
     1    2    1 1    
     2   40    1 1    
     3   41    1 1    
     4    3    2 ar   
     5    7    2 ar   
     6    4    3 ar   
     7   42    3 1    
     8    5    4 ar   
     9   43    4 1    
    10    6    5 ar   
    11    8    5 1    
    12    7    6 ar   
    13   44    6 1    
    14   45    7 1    
    15    9    8 2    
    16   10    8 2    
    17   11    8 1    
    18   12   11 1    
    19   16   11 1    
    20   13   12 1    
    21   46   12 1    
    22   47   12 1    
    23   14   13 1    
    24   15   13 1    
    25   48   13 1    
    26   72   14 1    
    27   73   14 1    
    28   74   14 1    
    29   18   15 1    
    30   49   15 1    
    31   50   15 1    
    32   17   16 1    
    33   51   16 1    
    34   52   16 1    
    35   19   17 1    
    36   20   17 1    
    37   53   17 1    
    38   75   18 1    
    39   76   18 1    
    40   77   18 1    
    41   78   19 1    
    42   21   20 1    
    43   33   20 1    
    44   54   20 1    
    45   22   21 am   
    46   55   21 1    
    47   23   22 2    
    48   24   22 1    
    49   25   24 1    
    50   26   25 1    
    51   32   25 1    
    52   56   25 1    
    53   27   26 1    
    54   57   26 1    
    55   58   26 1    
    56   28   27 1    
    57   29   28 1    
    58   32   28 1    
    59   59   28 1    
    60   30   29 1    
    61   31   30 1    
    62   60   30 1    
    63   61   30 1    
    64   32   31 1    
    65   62   31 1    
    66   63   31 1    
    67   64   32 1    
    68   39   33 1    
    69   65   33 1    
    70   66   33 1    
    71   35   34 ar   
    72   39   34 ar   
    73   67   34 1    
    74   36   35 ar   
    75   68   35 1    
    76   37   36 ar   
    77   69   36 1    
    78   38   37 ar   
    79   70   37 1    
    80   39   38 ar   
    81   71   38 1    
@<TRIPOS>SUBSTRUCTURE
     1 K13200      1 GROUP   
@<TRIPOS>SET

