#    Name: 3zs5_SB2_1_INTS_M
#    Modification time : Tue Mar 25 03:53:43 2014

@<TRIPOS>MOLECULE
3zs5_SB2_1_INTS_M
   69     0     6     0     0
SMALL
NO_CHARGES


@<TRIPOS>ATOM
      1 CA         22.3565   37.4485   25.0840 C.3       2 GLC5        0.0000 
      2 CA         20.4710   36.8950   25.3950 C.3       6 GLL5        0.0000 
      3 CA         24.2420   38.0020   24.7730 C.3       4 GLP5        0.0000 
      4 CA         23.7435   34.3725   21.7210 C.3       2 GLC5        0.0000 
      5 CA         22.1290   35.8970   21.5670 C.3       6 GLL5        0.0000 
      6 CA         25.3580   32.8480   21.8750 C.3       4 GLP5        0.0000 
      7 CA         23.1460   36.0970   24.3460 C.3       2 GLC5        0.0000 
      8 CA         21.6760   36.4370   22.7620 C.3       6 GLL5        0.0000 
      9 CA         24.6160   35.7570   25.9300 C.3       4 GLP5        0.0000 
     10 N          22.0100   36.6860   11.3520 N.am      1 SEC2        0.0000 
     11 N          22.5320   36.6210   12.7700 N.am      5 SEL2        0.0000 
     12 N          21.4880   36.7510    9.9340 N.am      3 SEP2        0.0000 
     13 CA         23.8755   37.9075   11.9910 C.3       2 GLC5        0.0000 
     14 CA         22.7800   37.6150   13.6260 C.3       6 GLL5        0.0000 
     15 CA         24.9710   38.2000   10.3560 C.3       4 GLP5        0.0000 
     16 CA         22.9720   35.5760   11.1605 C.3       2 GLC5        0.0000 
     17 CA         22.3910   35.3720   13.2070 C.3       6 GLL5        0.0000 
     18 CA         23.5530   35.7800    9.1140 C.3       4 GLP5        0.0000 
     19 CA         23.4155   28.9740   17.9325 C.3       2 GLC5        0.0000 
     20 CA         23.6360   30.9040   17.0550 C.3       6 GLL5        0.0000 
     21 CA         23.1950   27.0440   18.8100 C.3       4 GLP5        0.0000 
     22 CA         25.7225   35.2375   16.2175 C.3       2 GLC5        0.0000 
     23 CA         24.8140   33.3150   16.2920 C.3       6 GLL5        0.0000 
     24 CA         26.6310   37.1600   16.1430 C.3       4 GLP5        0.0000 
     25 CA         25.4155   27.8255   15.7040 C.3       2 GLC5        0.0000 
     26 CA         25.2770   29.7440   15.8080 C.3       6 GLL5        0.0000 
     27 CA         25.5540   25.9070   15.6000 C.3       4 GLP5        0.0000 
     28 CA         24.3500   29.9400   14.2570 C.3       2 GLC5        0.0000 
     29 CA         23.4230   30.1360   12.7060 C.3       4 GLP5        0.0000 
     30 CA         19.9952   35.7205   21.5378 C.3       2 GLC5        0.0000 
     31 CA         18.0880   35.2740   20.9110 C.3       4 GLP5        0.0000 
     32 CA         19.5010   36.6347   21.5508 C.3       2 GLC5        0.0000 
     33 CA         21.0170   37.6520   22.7820 C.3       6 GLL5        0.0000 
     34 CA         19.8520   36.2443   20.6493 C.3       2 GLC5        0.0000 
     35 CA         21.2680   37.8190   20.3990 C.3       6 GLL5        0.0000 
     36 CA         24.2668   36.3432   13.6085 C.3       2 GLC5        0.0000 
     37 CA         22.8830   37.3660   14.9820 C.3       6 GLL5        0.0000 
     38 CA         25.7020   35.1960   12.9130 C.3       4 GLP5        0.0000 
     39 CA         24.7212   36.9345   15.6865 C.3       2 GLC5        0.0000 
     40 CA         20.8844   37.4451   14.7820 C.3       2 GLC5        0.0000 
     41 CA         22.7400   36.0520   15.4780 C.3       6 GLL5        0.0000 
     42 CA         18.9830   38.1190   14.6730 C.3       4 GLP5        0.0000 
     43 CA         22.7885   33.3787   13.5393 C.3       2 GLC5        0.0000 
     44 CA         22.4610   35.0450   14.5480 C.3       6 GLL5        0.0000 
     45 CA         23.1510   31.5490   13.2010 C.3       4 GLP5        0.0000 
     46 CA         21.0100   34.3192   13.2508 C.3       2 GLC5        0.0000 
     47 CA         19.5940   33.4300   12.6240 C.3       4 GLP5        0.0000 
     48 CA         24.0989   35.3281   13.5115 C.3       2 GLC5        0.0000 
     49 CA         24.5650   36.0853   17.9307 C.3       2 GLC5        0.0000 
     50 CA         22.7780   35.7450   16.9230 C.3       6 GLL5        0.0000 
     51 CA         26.1840   37.0030   18.5950 C.3       4 GLP5        0.0000 
     52 CA         24.4490   33.1515   18.9423 C.3       2 GLC5        0.0000 
     53 CA         23.1140   34.5900   17.6100 C.3       6 GLL5        0.0000 
     54 CA         25.6530   33.2800   20.4570 C.3       4 GLP5        0.0000 
     55 CA         21.6403   31.0160   16.4378 C.3       2 GLC5        0.0000 
     56 CA         23.0970   32.0960   17.4960 C.3       6 GLL5        0.0000 
     57 CA         19.9140   30.5320   15.6000 C.3       4 GLP5        0.0000 
     58 CA         23.2587   31.5245   15.2383 C.3       2 GLC5        0.0000 
     59 CA         24.1022   31.5347   14.6270 C.3       2 GLC5        0.0000 
     60 CA         25.3430   32.1200   15.8660 C.3       6 GLL5        0.0000 
     61 CA         25.3903   33.9567   14.4960 C.3       2 GLC5        0.0000 
     62 CA         26.1999   32.8289   17.4708 C.3       2 GLC5        0.0000 
     63 CA         24.7640   30.9210   16.2400 C.3       6 GLL5        0.0000 
     64 CA         27.4660   33.2400   18.7690 C.3       4 GLP5        0.0000 
     65 CA         23.6970   32.4308   14.9505 C.3       2 GLC5        0.0000 
     66 CA         26.2266   29.7286   17.0407 C.3       2 GLC5        0.0000 
     67 CA         27.4290   28.8270   18.0490 C.3       4 GLP5        0.0000 
     68 CA         26.5871   30.0671   14.7142 C.3       2 GLC5        0.0000 
     69 CA         28.0090   29.5020   13.4980 C.3       4 GLP5        0.0000 
@<TRIPOS>BOND
@<TRIPOS>SUBSTRUCTURE
     1 SEC2       10 GROUP        1 X    SEC  0     ROOT SEC X 2
     2 GLC5        1 GROUP        1 X    GLC  0     **** GLC X 6
     3 SEP2       12 GROUP        1 Y    SEP  0     ROOT SEP Y 9
     4 GLP5        3 GROUP        1 Y    GLP  0     **** GLP Y 13
     5 SEL2       11 GROUP        1 Z    SEL  0     ROOT SEL Z 16
     6 GLL5        2 GROUP        1 Z    GLL  0     **** GLL Z 20
@<TRIPOS>SET

