#    Name: 3zs5_SB2_1_ligand
#    Modification time : Tue Mar 25 03:53:43 2014

@<TRIPOS>MOLECULE
3zs5_SB2_1_ligand
   43    46     1     0     0
SMALL
NO_CHARGES


@<TRIPOS>ATOM
      1 O2         21.4950   39.2170   24.6280 O.2       1 SB21000     0.0000 
      2 C1         20.4710   36.8950   25.3950 C.3       1 SB21000     0.0000 
      3 S1         20.4250   38.3520   24.3140 S.2       1 SB21000     0.0000 
      4 CA1        22.1290   35.8970   21.5670 C.ar      1 SB21000     0.0000 
      5 CA2        21.6760   36.4370   22.7620 C.ar      1 SB21000     0.0000 
      6 CA3        21.0170   37.6520   22.7820 C.ar      1 SB21000     0.0000 
      7 CA4        20.8110   38.3390   21.5990 C.ar      1 SB21000     0.0000 
      8 CA5        21.2680   37.8190   20.3990 C.ar      1 SB21000     0.0000 
      9 CA6        21.9640   36.6100   20.3760 C.ar      1 SB21000     0.0000 
     10 NB1        22.5320   36.6210   12.7700 N.ar      1 SB21000     0.0000 
     11 CB2        22.7800   37.6150   13.6260 C.ar      1 SB21000     0.0000 
     12 CB3        22.8830   37.3660   14.9820 C.ar      1 SB21000     0.0000 
     13 CB4        22.7400   36.0520   15.4780 C.ar      1 SB21000     0.0000 
     14 CB5        22.4610   35.0450   14.5480 C.ar      1 SB21000     0.0000 
     15 CB6        22.3910   35.3720   13.2070 C.ar      1 SB21000     0.0000 
     16 NC1        22.3030   36.6340   17.8870 N.pl3     1 SB21000     0.0000 
     17 CC2        22.4070   36.0200   19.0930 C.2       1 SB21000     0.0000 
     18 NC3        22.8630   34.7900   18.9300 N.2       1 SB21000     0.0000 
     19 CC4        23.1140   34.5900   17.6100 C.2       1 SB21000     0.0000 
     20 CC5        22.7780   35.7450   16.9230 C.2       1 SB21000     0.0000 
     21 CD1        23.0970   32.0960   17.4960 C.ar      1 SB21000     0.0000 
     22 CD2        23.6360   30.9040   17.0550 C.ar      1 SB21000     0.0000 
     23 CD3        24.7640   30.9210   16.2400 C.ar      1 SB21000     0.0000 
     24 CD4        25.3430   32.1200   15.8660 C.ar      1 SB21000     0.0000 
     25 CD5        24.8140   33.3150   16.2920 C.ar      1 SB21000     0.0000 
     26 CD6        23.6720   33.3100   17.1080 C.ar      1 SB21000     0.0000 
     27 FD3        25.2770   29.7440   15.8080 F         1 SB21000     0.0000 
     28 H          22.5843   34.9775   21.5525 H         1 SB21000     0.0000 
     29 H          21.8342   35.9232   23.6463 H         1 SB21000     0.0000 
     30 H          20.3141   39.2442   21.6096 H         1 SB21000     0.0000 
     31 H          21.0954   38.3238   19.5176 H         1 SB21000     0.0000 
     32 H          22.9004   38.5950   13.2899 H         1 SB21000     0.0000 
     33 H          23.0644   38.1326   15.6430 H         1 SB21000     0.0000 
     34 H          22.3124   34.0848   14.8629 H         1 SB21000     0.0000 
     35 H          22.2187   34.5869   12.5218 H         1 SB21000     0.0000 
     36 H          21.9717   37.5056   17.7094 H         1 SB21000     0.0000 
     37 H          22.2719   32.0994   18.1107 H         1 SB21000     0.0000 
     38 H          23.2115   30.0087   17.3235 H         1 SB21000     0.0000 
     39 H          26.1830   32.1135   15.2592 H         1 SB21000     0.0000 
     40 H          25.2393   34.2075   16.0238 H         1 SB21000     0.0000 
     41 H          21.3238   36.3830   25.2921 H         1 SB21000     0.0000 
     42 H          20.3944   37.1459   26.3600 H         1 SB21000     0.0000 
     43 H          19.7231   36.2616   25.1966 H         1 SB21000     0.0000 
@<TRIPOS>BOND
     1    3    1 2    
     2    3    2 1    
     3   41    2 1    
     4   42    2 1    
     5   43    2 1    
     6    6    3 1    
     7    5    4 ar   
     8    9    4 ar   
     9   28    4 1    
    10    6    5 ar   
    11   29    5 1    
    12    7    6 ar   
    13    8    7 ar   
    14   30    7 1    
    15    9    8 ar   
    16   31    8 1    
    17   17    9 1    
    18   11   10 ar   
    19   15   10 ar   
    20   12   11 ar   
    21   32   11 1    
    22   13   12 ar   
    23   33   12 1    
    24   14   13 ar   
    25   20   13 1    
    26   15   14 ar   
    27   34   14 1    
    28   35   15 1    
    29   17   16 1    
    30   20   16 1    
    31   36   16 1    
    32   18   17 2    
    33   19   18 1    
    34   20   19 2    
    35   26   19 1    
    36   22   21 ar   
    37   26   21 ar   
    38   37   21 1    
    39   23   22 ar   
    40   38   22 1    
    41   24   23 ar   
    42   27   23 1    
    43   25   24 ar   
    44   39   24 1    
    45   26   25 ar   
    46   40   25 1    
@<TRIPOS>SUBSTRUCTURE
     1 SB21000     1 GROUP   
@<TRIPOS>SET

