#    Name: 1a30_GLU_ASP_LEU_1_INTS_M
#    Modification time : Mon Mar 24 17:44:37 2014

@<TRIPOS>MOLECULE
1a30_GLU_ASP_LEU_1_INTS_M
   51     0    15     0     0
SMALL
NO_CHARGES


@<TRIPOS>ATOM
      1 OD1         5.2320   28.8990    4.7560 O.co2     3 ASC3        0.0000 
      2 OD1         4.8410   27.5760    5.3100 O.co2    13 ASL3        0.0000 
      3 OD1         5.6230   30.2220    4.2020 O.co2     8 ASP3        0.0000 
      4 O           5.2320   28.8990    4.7560 O.2       1 ALC1        0.0000 
      5 O           4.8410   27.5760    5.3100 O.2      11 ALL1        0.0000 
      6 O           5.6230   30.2220    4.2020 O.2       6 ALP1        0.0000 
      7 N           8.5290   29.1665    5.3900 N.am      2 SEC2        0.0000 
      8 N           7.6240   27.8870    5.2180 N.am     12 SEL2        0.0000 
      9 N           9.4340   30.4460    5.5620 N.am      7 SEP2        0.0000 
     10 NZ          5.6100   28.2925    0.5390 N.4       4 LYC4        0.0000 
     11 NZ          6.4250   26.6200    0.3630 N.4      14 LYL4        0.0000 
     12 NZ          4.7950   29.9650    0.7150 N.4       9 LYP4        0.0000 
     13 O           6.9945   24.7635    6.3335 O.2       1 ALC1        0.0000 
     14 O           7.8730   25.8560    6.1630 O.2      11 ALL1        0.0000 
     15 O           6.1160   23.6710    6.5040 O.2       6 ALP1        0.0000 
     16 CA         10.3735   27.6040    6.0220 C.3       5 GLC5        0.0000 
     17 CA          9.2580   26.0720    6.5600 C.3      15 GLL5        0.0000 
     18 CA         11.4890   29.1360    5.4840 C.3      10 GLP5        0.0000 
     19 CA         10.7710   27.5700    7.4485 C.3       5 GLC5        0.0000 
     20 CA          9.3460   26.1960    8.0790 C.3      15 GLL5        0.0000 
     21 CA         12.1960   28.9440    6.8180 C.3      10 GLP5        0.0000 
     22 CA         11.0670   26.4855    9.1155 C.3       5 GLC5        0.0000 
     23 CA         12.7880   26.7750   10.1520 C.3      10 GLP5        0.0000 
     24 N           9.0825   30.0115    8.2780 N.am      2 SEC2        0.0000 
     25 N           9.2700   28.5180    8.5210 N.am     12 SEL2        0.0000 
     26 N           8.8950   31.5050    8.0350 N.am      7 SEP2        0.0000 
     27 O          10.8965   26.3475    4.0355 O.2       1 ALC1        0.0000 
     28 O          10.6860   25.1150    4.8690 O.2      11 ALL1        0.0000 
     29 O          11.1070   27.5800    3.2020 O.2       6 ALP1        0.0000 
     30 CA         10.9965   25.4225    1.2160 C.3       5 GLC5        0.0000 
     31 CA         11.0380   23.9220    2.7850 C.3      15 GLL5        0.0000 
     32 CA         10.9550   26.9230   -0.3530 C.3      10 GLP5        0.0000 
     33 CA         11.5820   23.2885    0.8570 C.3       5 GLC5        0.0000 
     34 CA         12.1260   22.6550   -1.0710 C.3      10 GLP5        0.0000 
     35 CA          9.8870   25.5600    0.6775 C.3       5 GLC5        0.0000 
     36 CA          8.8190   24.1970    1.7080 C.3      15 GLL5        0.0000 
     37 CA         10.2990   20.1935    2.9330 C.3       5 GLC5        0.0000 
     38 CA          9.5210   21.9550    2.6020 C.3      15 GLL5        0.0000 
     39 CA         11.0770   18.4320    3.2640 C.3      10 GLP5        0.0000 
     40 CA          8.2705   20.4660    2.0515 C.3       5 GLC5        0.0000 
     41 CA          7.0200   18.9770    1.5010 C.3      10 GLP5        0.0000 
     42 O          14.5700   25.7615    3.4225 O.2       1 ALC1        0.0000 
     43 O          13.3340   25.5920    4.3780 O.2      11 ALL1        0.0000 
     44 O          15.8060   25.9310    2.4670 O.2       6 ALP1        0.0000 
     45 O          13.9345   24.9440    3.0835 O.2       1 ALC1        0.0000 
     46 O          14.5350   24.2960    1.7890 O.2       6 ALP1        0.0000 
     47 CA          8.4770   22.0168    4.1730 C.3       5 GLC5        0.0000 
     48 CA          9.5830   23.4660    2.7700 C.3      15 GLL5        0.0000 
     49 CA          7.4020   21.3230    5.6600 C.3      10 GLP5        0.0000 
     50 CA          8.8465   23.7752    0.3580 C.3       5 GLC5        0.0000 
     51 CA          8.4920   23.7190   -1.5230 C.3      10 GLP5        0.0000 
@<TRIPOS>BOND
@<TRIPOS>SUBSTRUCTURE
     1 ALC1        4 GROUP        1 X    ALC  0     ROOT ALC X 1
     2 SEC2        7 GROUP        1 X    SEC  0     **** SEC X 2
     3 ASC3        1 GROUP        1 X    ASC  0     **** ASC X 3
     4 LYC4       10 GROUP        1 X    LYC  0     **** LYC X 4
     5 GLC5       16 GROUP        1 X    GLC  0     **** GLC X 6
     6 ALP1        6 GROUP        1 Y    ALP  0     ROOT ALP Y 8
     7 SEP2        9 GROUP        1 Y    SEP  0     **** SEP Y 9
     8 ASP3        3 GROUP        1 Y    ASP  0     **** ASP Y 10
     9 LYP4       12 GROUP        1 Y    LYP  0     **** LYP Y 11
    10 GLP5       18 GROUP        1 Y    GLP  0     **** GLP Y 13
    11 ALL1        5 GROUP        1 Z    ALL  0     ROOT ALL Z 15
    12 SEL2        8 GROUP        1 Z    SEL  0     **** SEL Z 16
    13 ASL3        2 GROUP        1 Z    ASL  0     **** ASL Z 17
    14 LYL4       11 GROUP        1 Z    LYL  0     **** LYL Z 18
    15 GLL5       17 GROUP        1 Z    GLL  0     **** GLL Z 20
@<TRIPOS>SET

