#    Name: 1a30_GLU_ASP_LEU_1_ligand
#    Modification time : Mon Mar 24 17:44:37 2014

@<TRIPOS>MOLECULE
1a30_GLU_ASP_LEU_1_ligand
   50    49     3     0     0
SMALL
NO_CHARGES


@<TRIPOS>ATOM
      1 N           4.8410   27.5760    5.3100 N.4       1 GLU506      0.0000
      2 CA          5.7330   26.3940    5.1650 C.3       1 GLU506      0.0000
      3 C           7.1740   26.7720    5.5040 C.2       1 GLU506      0.0000
      4 O           7.6240   27.8870    5.2180 O.2       1 GLU506      0.0000
      5 CB          5.6380   25.8180    3.7500 C.3       1 GLU506      0.0000
      6 CG          5.8270   26.8460    2.6520 C.3       1 GLU506      0.0000
      7 CD          5.6250   26.2750    1.2620 C.2       1 GLU506      0.0000
      8 OE1         4.6630   25.4970    1.0650 O.co2     1 GLU506      0.0000
      9 OE2         6.4250   26.6200    0.3630 O.co2     1 GLU506      0.0000
     10 HA          5.4158   25.6207    5.8637 H         1 GLU506      0.0000
     11 HB2         4.6528   25.3356    3.6307 H         1 GLU506      0.0000
     12 HB3         6.3973   25.0248    3.6400 H         1 GLU506      0.0000
     13 HG2         6.8413   27.2682    2.7242 H         1 GLU506      0.0000
     14 HG3         5.1185   27.6742    2.8077 H         1 GLU506      0.0000
     15 HNCA        5.3238   28.4310    5.1207 H         1 GLU506      0.0000
     16 H           4.0632   27.5335    4.6829 H         1 GLU506      0.0000
     17 H           4.4681   27.6486    6.2350 H         1 GLU506      0.0000
     18 N           7.8730   25.8560    6.1630 N.am      2 ASP507      0.0000
     19 CA          9.2580   26.0720    6.5600 C.3       2 ASP507      0.0000
     20 C          10.1010   24.9180    6.0470 C.2       2 ASP507      0.0000
     21 O          10.1820   23.8640    6.6820 O.2       2 ASP507      0.0000
     22 CB          9.3460   26.1960    8.0790 C.3       2 ASP507      0.0000
     23 CG          8.6490   27.4410    8.5880 C.2       2 ASP507      0.0000
     24 OD1         9.2700   28.5180    8.5210 O.co2     2 ASP507      0.0000
     25 OD2         7.4740   27.3570    9.0120 O.co2     2 ASP507      0.0000
     26 HNCA        7.4658   24.9316    6.4315 H         2 ASP507      0.0000
     27 HA          9.6285   26.9882    6.1202 H         2 ASP507      0.0000
     28 HB2        10.4007   26.2228    8.3734 H         2 ASP507      0.0000
     29 HB3         8.8900   25.3109    8.5354 H         2 ASP507      0.0000
     30 N          10.6860   25.1150    4.8690 N.am      3 LEU508      0.0000
     31 CA         11.4980   24.0930    4.2260 C.3       3 LEU508      0.0000
     32 C          12.9840   24.3990    4.2680 C.2       3 LEU508      0.0000
     33 O          13.7840   23.4420    4.1920 O.2       3 LEU508      0.0000
     34 CB         11.0380   23.9220    2.7850 C.3       3 LEU508      0.0000
     35 CG          9.5830   23.4660    2.7700 C.3       3 LEU508      0.0000
     36 CD1         8.8190   24.1970    1.7080 C.3       3 LEU508      0.0000
     37 CD2         9.5210   21.9550    2.6020 C.3       3 LEU508      0.0000
     38 OXT        13.3340   25.5920    4.3780 O.3       3 LEU508      0.0000
     39 HNCA       10.5917   26.0142    4.3458 H         3 LEU508      0.0000
     40 HA         11.3382   23.1283    4.7255 H         3 LEU508      0.0000
     41 HB2        11.6534   23.1770    2.2950 H         3 LEU508      0.0000
     42 HB3        11.1239   24.8677    2.2634 H         3 LEU508      0.0000
     43 HG          9.1553   23.7145    3.7474 H         3 LEU508      0.0000
     44 HD11        8.8273   25.1856    1.8584 H         3 LEU508      0.0000
     45 HD12        9.2011   24.0358    0.7981 H         3 LEU508      0.0000
     46 HD13        7.8606   23.9131    1.6780 H         3 LEU508      0.0000
     47 HD21        9.9506   21.6582    1.7492 H         3 LEU508      0.0000
     48 HD22        9.9885   21.4790    3.3469 H         3 LEU508      0.0000
     49 HD23        8.5784   21.6214    2.5869 H         3 LEU508      0.0000
     50 H          14.0980   25.6972    3.7414 H         3 LEU508      0.0000
@<TRIPOS>BOND
     1    2    1 1
     2   15    1 1
     3   16    1 1
     4   17    1 1
     5    3    2 1
     6    5    2 1
     7   10    2 1
     8    4    3 2
     9    6    5 1
    10   11    5 1
    11   12    5 1
    12    7    6 1
    13   13    6 1
    14   14    6 1
    15    8    7 ar
    16    9    7 ar
    17   19   18 1
    18   26   18 1
    19   20   19 1
    20   22   19 1
    21   27   19 1
    22   21   20 2
    23   23   22 1
    24   28   22 1
    25   29   22 1
    26   24   23 ar
    27   25   23 ar
    28   31   30 1
    29   39   30 1
    30   32   31 1
    31   34   31 1
    32   40   31 1
    33   33   32 2
    34   38   32 1
    35   35   34 1
    36   41   34 1
    37   42   34 1
    38   36   35 1
    39   37   35 1
    40   43   35 1
    41   44   36 1
    42   45   36 1
    43   46   36 1
    44   47   37 1
    45   48   37 1
    46   49   37 1
    47   50   38 1
    48   18    3 am
    49   30   20 am
@<TRIPOS>SUBSTRUCTURE
     1 GLU506      1 RESIDUE
     2 ASP507     18 RESIDUE
     3 LEU508     30 RESIDUE
@<TRIPOS>SET

