#    Name: 3peq_3EQ_1_INTS_M
#    Modification time : Tue Mar 25 06:28:42 2014

@<TRIPOS>MOLECULE
3peq_3EQ_1_INTS_M
  108     0     6     0     0
SMALL
NO_CHARGES


@<TRIPOS>ATOM
      1 CA         31.0620    1.8785   61.9940 C.3       2 GLC5        0.0000 
      2 CA         31.6240    0.1810   60.9360 C.3       6 GLL5        0.0000 
      3 CA         30.5000    3.5760   63.0520 C.3       4 GLP5        0.0000 
      4 CA         29.7390   -0.1070   61.0585 C.3       2 GLC5        0.0000 
      5 CA         27.8540   -0.3950   61.1810 C.3       4 GLP5        0.0000 
      6 CA         32.5670   -1.2680   60.3165 C.3       2 GLC5        0.0000 
      7 CA         33.5100   -2.7170   59.6970 C.3       4 GLP5        0.0000 
      8 CA         32.7675   -0.7225   59.2360 C.3       2 GLC5        0.0000 
      9 CA         32.5840    0.8410   59.9750 C.3       6 GLL5        0.0000 
     10 CA         32.9510   -2.2860   58.4970 C.3       4 GLP5        0.0000 
     11 CA         31.5760    2.9580   61.6145 C.3       2 GLC5        0.0000 
     12 CA         32.6520    2.3400   60.1770 C.3       6 GLL5        0.0000 
     13 CA         30.7970    2.4245   58.9655 C.3       2 GLC5        0.0000 
     14 CA         28.9420    2.5090   57.7540 C.3       4 GLP5        0.0000 
     15 CA         35.4405    2.5970   58.5445 C.3       2 GLC5        0.0000 
     16 CA         33.7940    2.8790   59.3350 C.3       6 GLL5        0.0000 
     17 CA         37.0870    2.3150   57.7540 C.3       4 GLP5        0.0000 
     18 CA         34.6420    4.7165   54.3890 C.3       2 GLC5        0.0000 
     19 CA         33.9270    4.2950   56.4640 C.3       6 GLL5        0.0000 
     20 CA         35.3570    5.1380   52.3140 C.3       4 GLP5        0.0000 
     21 CA         33.6750    2.2865   55.8115 C.3       2 GLC5        0.0000 
     22 CA         33.4230    0.2780   55.1590 C.3       4 GLP5        0.0000 
     23 CA         35.5070    3.3050   57.1090 C.3       2 GLC5        0.0000 
     24 CA         32.0510    8.1735   54.9095 C.3       2 GLC5        0.0000 
     25 CA         31.2290    6.5070   54.2250 C.3       6 GLL5        0.0000 
     26 CA         32.8730    9.8400   55.5940 C.3       4 GLP5        0.0000 
     27 CA         31.4550    8.1530   51.9620 C.3       2 GLC5        0.0000 
     28 CA         31.1290    6.4580   52.8510 C.3       6 GLL5        0.0000 
     29 CA         31.7810    9.8480   51.0730 C.3       4 GLP5        0.0000 
     30 CA         29.7150    5.8770   49.6370 C.3       2 GLC5        0.0000 
     31 CA         31.2640    5.2580   50.3880 C.3       6 GLL5        0.0000 
     32 CA         28.1660    6.4960   48.8860 C.3       4 GLP5        0.0000 
     33 CA         31.4475    2.1430   48.6105 C.3       2 GLC5        0.0000 
     34 CA         32.0740    3.6850   50.0730 C.3       6 GLL5        0.0000 
     35 CA         30.8210    0.6010   47.1480 C.3       4 GLP5        0.0000 
     36 CA         33.9210    4.2575   49.9655 C.3       2 GLC5        0.0000 
     37 CA         35.7680    4.8300   49.8580 C.3       4 GLP5        0.0000 
     38 CA         30.6740    2.6415   50.7560 C.3       2 GLC5        0.0000 
     39 CA         29.2740    1.5980   51.4390 C.3       4 GLP5        0.0000 
     40 CA         33.3885    2.1365   49.4495 C.3       2 GLC5        0.0000 
     41 CA         34.7030    0.5880   48.8260 C.3       4 GLP5        0.0000 
     42 CA         30.9185    2.5340   55.2700 C.3       2 GLC5        0.0000 
     43 CA         31.8530    4.2290   54.2670 C.3       6 GLL5        0.0000 
     44 CA         29.9840    0.8390   56.2730 C.3       4 GLP5        0.0000 
     45 CA         34.7495    9.9830   59.0435 C.3       2 GLC5        0.0000 
     46 CA         35.6150   11.4680   60.3820 C.3       6 GLL5        0.0000 
     47 CA         33.8840    8.4980   57.7050 C.3       4 GLP5        0.0000 
     48 CA         33.6050   12.0655   60.3800 C.3       2 GLC5        0.0000 
     49 CA         31.5950   12.6630   60.3780 C.3       4 GLP5        0.0000 
     50 CA         37.6850   11.6120   60.4545 C.3       2 GLC5        0.0000 
     51 CA         39.7550   11.7560   60.5270 C.3       4 GLP5        0.0000 
     52 CA         35.4220   13.4610   60.0470 C.3       2 GLC5        0.0000 
     53 CA         35.2290   15.4540   59.7120 C.3       4 GLP5        0.0000 
     54 N          34.8685   12.9000   63.5610 N.am      1 SEC2        0.0000 
     55 N          35.1810   12.8990   62.1740 N.am      5 SEL2        0.0000 
     56 N          34.5560   12.9010   64.9480 N.am      3 SEP2        0.0000 
     57 N          37.1195   10.1065   63.0325 N.am      1 SEC2        0.0000 
     58 N          36.6980   11.2520   62.5080 N.am      5 SEL2        0.0000 
     59 N          37.5410    8.9610   63.5570 N.am      3 SEP2        0.0000 
     60 N          37.1190   11.6105   63.6880 N.am      1 SEC2        0.0000 
     61 N          37.5400   11.9690   64.8680 N.am      3 SEP2        0.0000 
     62 CA         39.0365    9.3025   59.9890 C.3       2 GLC5        0.0000 
     63 CA         37.7380    8.3530   58.7050 C.3       6 GLL5        0.0000 
     64 CA         40.3350   10.2520   61.2730 C.3       4 GLP5        0.0000 
     65 CA         34.3035    0.8173   59.1585 C.3       2 GLC5        0.0000 
     66 CA         35.9890    0.0440   58.2410 C.3       4 GLP5        0.0000 
     67 CA         33.1720    1.3762   61.9896 C.3       2 GLC5        0.0000 
     68 CA         33.9660    1.3270   63.6630 C.3       4 GLP5        0.0000 
     69 CA         33.0358    6.8615   58.2825 C.3       2 GLC5        0.0000 
     70 CA         32.7260    4.9510   58.5280 C.3       6 GLL5        0.0000 
     71 CA         29.9078    4.9435   60.1088 C.3       2 GLC5        0.0000 
     72 CA         31.6490    5.4990   59.1920 C.3       6 GLL5        0.0000 
     73 CA         28.6930    4.1230   61.3830 C.3       4 GLP5        0.0000 
     74 CA         30.0322    4.1365   58.2942 C.3       2 GLC5        0.0000 
     75 CA         32.2460    7.2532   57.7467 C.3       2 GLC5        0.0000 
     76 CA         30.5960    6.0290   58.4770 C.3       6 GLL5        0.0000 
     77 CA         30.0457    4.1095   57.2550 C.3       2 GLC5        0.0000 
     78 CA         30.6200    5.9880   57.1000 C.3       6 GLL5        0.0000 
     79 CA         33.4765    6.6159   57.1628 C.3       2 GLC5        0.0000 
     80 CA         31.6790    5.4320   56.4120 C.3       6 GLL5        0.0000 
     81 CA         29.6872    5.1105   54.0595 C.3       2 GLC5        0.0000 
     82 CA         31.5960    5.3970   54.9590 C.3       6 GLL5        0.0000 
     83 CA         27.9620    4.2690   53.5270 C.3       4 GLP5        0.0000 
     84 CA         33.3093    5.5068   52.4115 C.3       2 GLC5        0.0000 
     85 CA         29.6118    5.0723   53.0180 C.3       2 GLC5        0.0000 
     86 CA         31.3940    5.2930   52.1670 C.3       6 GLL5        0.0000 
     87 CA         32.0460    4.4298   48.2602 C.3       2 GLC5        0.0000 
     88 CA         32.4230    4.3880   46.2900 C.3       4 GLP5        0.0000 
     89 CA         33.5817    4.6713   52.9472 C.3       2 GLC5        0.0000 
     90 CA         31.7600    4.1800   52.8940 C.3       6 GLL5        0.0000 
     91 CA         29.8843    4.2368   53.5538 C.3       2 GLC5        0.0000 
     92 CA         30.4093    3.1629   51.7624 C.3       2 GLC5        0.0000 
     93 CA         33.2057    2.6883   53.3623 C.3       2 GLC5        0.0000 
     94 CA         34.6050    1.1720   53.1440 C.3       4 GLP5        0.0000 
     95 CA         34.2972    7.8440   59.2313 C.3       2 GLC5        0.0000 
     96 CA         35.0150    6.6580   60.4440 C.3       6 GLL5        0.0000 
     97 CA         34.6693    8.8008   59.1090 C.3       2 GLC5        0.0000 
     98 CA         34.8990    8.9990   60.9080 C.3       6 GLL5        0.0000 
     99 CA         35.5328    8.3717   58.4020 C.3       2 GLC5        0.0000 
    100 CA         36.6250    8.1380   59.4930 C.3       6 GLL5        0.0000 
    101 CA         38.7935    6.5330   59.8625 C.3       2 GLC5        0.0000 
    102 CA         39.5370    5.2380   61.3380 C.3       4 GLP5        0.0000 
    103 CA         37.2030    4.1155   58.1830 C.3       2 GLC5        0.0000 
    104 CA         37.8750    6.0230   58.2190 C.3       6 GLL5        0.0000 
    105 CA         35.1647    7.4142   58.5160 C.3       2 GLC5        0.0000 
    106 CA         36.7630    5.8090   59.0050 C.3       6 GLL5        0.0000 
    107 CA         38.1302    5.8110   60.2343 C.3       2 GLC5        0.0000 
    108 CA         36.1280    6.8520   59.6490 C.3       6 GLL5        0.0000 
@<TRIPOS>BOND
@<TRIPOS>SUBSTRUCTURE
     1 SEC2       54 GROUP        1 X    SEC  0     ROOT SEC X 2
     2 GLC5        1 GROUP        1 X    GLC  0     **** GLC X 6
     3 SEP2       56 GROUP        1 Y    SEP  0     ROOT SEP Y 9
     4 GLP5        3 GROUP        1 Y    GLP  0     **** GLP Y 13
     5 SEL2       55 GROUP        1 Z    SEL  0     ROOT SEL Z 16
     6 GLL5        2 GROUP        1 Z    GLL  0     **** GLL Z 20
@<TRIPOS>SET

