#    Name: 3peq_3EQ_1_ligand
#    Modification time : Tue Mar 25 06:28:42 2014

@<TRIPOS>MOLECULE
3peq_3EQ_1_ligand
   68    71     1     0     0
SMALL
NO_CHARGES


@<TRIPOS>ATOM
      1 C1         31.6240    0.1810   60.9360 C.3       1 3EQ1        0.0000 
      2 C2         32.5840    0.8410   59.9750 C.3       1 3EQ1        0.0000 
      3 C3         32.6520    2.3400   60.1770 C.3       1 3EQ1        0.0000 
      4 C4         33.7940    2.8790   59.3350 C.3       1 3EQ1        0.0000 
      5 N5         33.8360    4.3690   59.2570 N.pl3     1 3EQ1        0.0000 
      6 C6         32.7260    4.9510   58.5280 C.ar      1 3EQ1        0.0000 
      7 C7         31.6490    5.4990   59.1920 C.ar      1 3EQ1        0.0000 
      8 C8         30.5960    6.0290   58.4770 C.ar      1 3EQ1        0.0000 
      9 C9         30.6200    5.9880   57.1000 C.ar      1 3EQ1        0.0000 
     10 C10        31.6790    5.4320   56.4120 C.ar      1 3EQ1        0.0000 
     11 C11        32.7430    4.9130   57.1420 C.ar      1 3EQ1        0.0000 
     12 C12        33.9270    4.2950   56.4640 C.3       1 3EQ1        0.0000 
     13 C13        31.5960    5.3970   54.9590 C.ar      1 3EQ1        0.0000 
     14 C14        31.2290    6.5070   54.2250 C.ar      1 3EQ1        0.0000 
     15 C15        31.1290    6.4580   52.8510 C.ar      1 3EQ1        0.0000 
     16 C16        31.3940    5.2930   52.1670 C.ar      1 3EQ1        0.0000 
     17 S17        31.2640    5.2580   50.3880 S.3       1 3EQ1        0.0000 
     18 C18        32.0740    3.6850   50.0730 C.3       1 3EQ1        0.0000 
     19 C19        31.7600    4.1800   52.8940 C.ar      1 3EQ1        0.0000 
     20 C20        31.8530    4.2290   54.2670 C.ar      1 3EQ1        0.0000 
     21 S21        34.2960    5.0500   60.7570 S.o2      1 3EQ1        0.0000 
     22 O22        35.3690    4.2350   61.2910 O.2       1 3EQ1        0.0000 
     23 O23        33.1260    5.2470   61.5970 O.2       1 3EQ1        0.0000 
     24 C24        35.0150    6.6580   60.4440 C.ar      1 3EQ1        0.0000 
     25 C25        34.4060    7.7220   61.0710 C.ar      1 3EQ1        0.0000 
     26 C26        34.8990    8.9990   60.9080 C.ar      1 3EQ1        0.0000 
     27 C27        36.0100    9.2080   60.1180 C.ar      1 3EQ1        0.0000 
     28 O28        36.5460   10.4800   59.9330 O.3       1 3EQ1        0.0000 
     29 C29        35.6150   11.4680   60.3820 C.3       1 3EQ1        0.0000 
     30 C30        35.8700   11.9090   61.8230 C.2       1 3EQ1        0.0000 
     31 O31        35.1810   12.8990   62.1740 O.co2     1 3EQ1        0.0000 
     32 O32        36.6980   11.2520   62.5080 O.co2     1 3EQ1        0.0000 
     33 C33        36.6250    8.1380   59.4930 C.ar      1 3EQ1        0.0000 
     34 C34        37.7380    8.3530   58.7050 C.ar      1 3EQ1        0.0000 
     35 C35        38.3620    7.3030   58.0690 C.ar      1 3EQ1        0.0000 
     36 C36        37.8750    6.0230   58.2190 C.ar      1 3EQ1        0.0000 
     37 C37        36.7630    5.8090   59.0050 C.ar      1 3EQ1        0.0000 
     38 C38        36.1280    6.8520   59.6490 C.ar      1 3EQ1        0.0000 
     39 H          32.2692    0.6300   58.9448 H         1 3EQ1        0.0000 
     40 H          33.5857    0.4132   60.1110 H         1 3EQ1        0.0000 
     41 H          32.8366    2.5588   61.2186 H         1 3EQ1        0.0000 
     42 H          31.7241    2.7925   59.8592 H         1 3EQ1        0.0000 
     43 H          33.7108    2.4563   58.3154 H         1 3EQ1        0.0000 
     44 H          34.7479    2.5022   59.7514 H         1 3EQ1        0.0000 
     45 H          31.6311    5.5124   60.2238 H         1 3EQ1        0.0000 
     46 H          29.7972    6.4525   58.9692 H         1 3EQ1        0.0000 
     47 H          29.8188    6.3866   56.5639 H         1 3EQ1        0.0000 
     48 H          31.0235    7.3999   54.7205 H         1 3EQ1        0.0000 
     49 H          30.8507    7.3095   52.3269 H         1 3EQ1        0.0000 
     50 H          31.9687    3.2910   52.3975 H         1 3EQ1        0.0000 
     51 H          32.1211    3.3735   54.7939 H         1 3EQ1        0.0000 
     52 H          33.5755    7.5632   61.6667 H         1 3EQ1        0.0000 
     53 H          34.4394    9.7946   61.3745 H         1 3EQ1        0.0000 
     54 H          34.5726   11.0947   60.3282 H         1 3EQ1        0.0000 
     55 H          35.6503   12.3750   59.7457 H         1 3EQ1        0.0000 
     56 H          38.1067    9.3155   58.5918 H         1 3EQ1        0.0000 
     57 H          39.1925    7.4742   57.4813 H         1 3EQ1        0.0000 
     58 H          38.3370    5.2335   57.7486 H         1 3EQ1        0.0000 
     59 H          36.3939    4.8418   59.1158 H         1 3EQ1        0.0000 
     60 H          31.5860   -0.8092   60.8016 H         1 3EQ1        0.0000 
     61 H          31.8854    0.3377   61.8884 H         1 3EQ1        0.0000 
     62 H          30.6923    0.5276   60.8270 H         1 3EQ1        0.0000 
     63 H          34.7767    4.7688   56.6954 H         1 3EQ1        0.0000 
     64 H          34.0456    3.3367   56.7241 H         1 3EQ1        0.0000 
     65 H          33.8395    4.3198   55.4681 H         1 3EQ1        0.0000 
     66 H          33.0584    3.7337   50.2422 H         1 3EQ1        0.0000 
     67 H          31.7120    2.9576   50.6559 H         1 3EQ1        0.0000 
     68 H          31.9538    3.3885   49.1256 H         1 3EQ1        0.0000 
@<TRIPOS>BOND
     1    2    1 1    
     2   60    1 1    
     3   61    1 1    
     4   62    1 1    
     5    3    2 1    
     6   39    2 1    
     7   40    2 1    
     8    4    3 1    
     9   41    3 1    
    10   42    3 1    
    11    5    4 1    
    12   43    4 1    
    13   44    4 1    
    14    6    5 1    
    15   21    5 1    
    16    7    6 ar   
    17   11    6 ar   
    18    8    7 ar   
    19   45    7 1    
    20    9    8 ar   
    21   46    8 1    
    22   10    9 ar   
    23   47    9 1    
    24   11   10 ar   
    25   13   10 1    
    26   12   11 1    
    27   63   12 1    
    28   64   12 1    
    29   65   12 1    
    30   14   13 ar   
    31   20   13 ar   
    32   15   14 ar   
    33   48   14 1    
    34   16   15 ar   
    35   49   15 1    
    36   17   16 1    
    37   19   16 ar   
    38   18   17 1    
    39   66   18 1    
    40   67   18 1    
    41   68   18 1    
    42   20   19 ar   
    43   50   19 1    
    44   51   20 1    
    45   22   21 2    
    46   23   21 2    
    47   24   21 1    
    48   25   24 ar   
    49   38   24 ar   
    50   26   25 ar   
    51   52   25 1    
    52   27   26 ar   
    53   53   26 1    
    54   28   27 1    
    55   33   27 ar   
    56   29   28 1    
    57   30   29 1    
    58   54   29 1    
    59   55   29 1    
    60   31   30 ar   
    61   32   30 ar   
    62   34   33 ar   
    63   38   33 ar   
    64   35   34 ar   
    65   56   34 1    
    66   36   35 ar   
    67   57   35 1    
    68   37   36 ar   
    69   58   36 1    
    70   38   37 ar   
    71   59   37 1    
@<TRIPOS>SUBSTRUCTURE
     1 3EQ1        1 GROUP   
@<TRIPOS>SET

