#    Name: 4F0E_1_CAVITY_N1_ALL.mol2
#    Modification time : Mon Mar 10 18:31:28 2014

@<TRIPOS>MOLECULE
4F0E_1_CAVITY_N1_ALL.mol2
  111     0     6     0     0
SMALL
NO_CHARGES


@<TRIPOS>ATOM
      1 CZ         15.3886    1.2904  -34.0692 C.ar      4 PHE5        0.0000 
      2 CZ         14.1076    2.0461  -33.8741 C.ar      4 PHE5        0.0000 
      3 CA         15.1835    1.3261  -35.5546 C.3       5 GLY6        0.0000 
      4 N          13.9025    2.0818  -35.3596 N.2       2 ALA2        0.0000 
      5 N          12.6215    2.8374  -35.1646 N.2       2 ALA2        0.0000 
      6 CA         14.9784    1.3618  -37.0401 C.3       5 GLY6        0.0000 
      7 DU         13.6974    2.1175  -36.8451 H         6 CUB7        0.0000 
      8 N          12.4164    2.8732  -36.6501 N.2       2 ALA2        0.0000 
      9 N          11.1355    3.6288  -36.4551 N.2       2 ALA2        0.0000 
     10 CA         14.7733    1.3975  -38.5256 C.3       5 GLY6        0.0000 
     11 DU         13.4923    2.1532  -38.3306 H         6 CUB7        0.0000 
     12 DU         12.2114    2.9089  -38.1356 H         6 CUB7        0.0000 
     13 NZ         10.9304    3.6645  -37.9406 N.2       3 LYS4        0.0000 
     14 N          11.0083   -5.0788  -38.1615 N.2       2 ALA2        0.0000 
     15 N          12.0842   -5.7987  -39.8420 N.2       2 ALA2        0.0000 
     16 CZ         10.8033   -5.0430  -39.6470 C.ar      4 PHE5        0.0000 
     17 N           9.5223   -4.2874  -39.4520 N.2       2 ALA2        0.0000 
     18 CA          8.2413   -3.5317  -39.2570 C.3       5 GLY6        0.0000 
     19 O          10.5982   -5.0073  -41.1325 O.2       2 ALA2        0.0000 
     20 CA          9.3172   -4.2517  -40.9375 C.3       5 GLY6        0.0000 
     21 O          10.3931   -4.9716  -42.6180 O.2       2 ALA2        0.0000 
     22 CZ          9.1121   -4.2160  -42.4229 C.ar      4 PHE5        0.0000 
     23 N          15.5737   -2.1272  -31.1476 N.2       2 ALA2        0.0000 
     24 CZ         14.2928   -1.3715  -30.9525 C.ar      4 PHE5        0.0000 
     25 CZ         16.6497   -2.8472  -32.8281 C.ar      4 PHE5        0.0000 
     26 CA         15.3687   -2.0915  -32.6330 C.3       5 GLY6        0.0000 
     27 CZ         14.0877   -1.3358  -32.4380 C.ar      4 PHE5        0.0000 
     28 N          16.4446   -2.8115  -34.3136 N.2       2 ALA2        0.0000 
     29 N          15.1636   -2.0558  -34.1185 N.2       2 ALA2        0.0000 
     30 CZ         13.8826   -1.3001  -33.9235 C.ar      4 PHE5        0.0000 
     31 CZ         12.6016   -0.5444  -33.7285 C.ar      4 PHE5        0.0000 
     32 N          14.9585   -2.0201  -35.6040 N.2       2 ALA2        0.0000 
     33 O          13.6775   -1.2644  -35.4090 O.2       2 ALA2        0.0000 
     34 N          12.3965   -0.5087  -35.2140 N.2       2 ALA2        0.0000 
     35 N          11.1155    0.2469  -35.0190 N.2       2 ALA2        0.0000 
     36 O          13.4724   -1.2287  -36.8945 O.2       2 ALA2        0.0000 
     37 DU         12.1914   -0.4730  -36.6995 H         6 CUB7        0.0000 
     38 OG         10.9104    0.2826  -36.5045 O.2       1 SER1        0.0000 
     39 O          13.2673   -1.1930  -38.3800 O.2       2 ALA2        0.0000 
     40 DU         11.9863   -0.4373  -38.1850 H         6 CUB7        0.0000 
     41 OG         10.7054    0.3183  -37.9899 O.2       1 SER1        0.0000 
     42 N          11.7813   -0.4016  -39.6704 N.2       2 ALA2        0.0000 
     43 OG         10.5003    0.3541  -39.4754 O.2       1 SER1        0.0000 
     44 CZ         13.7448   -2.7025  -29.3942 C.ar      4 PHE5        0.0000 
     45 CZ         12.4639   -1.9468  -29.1992 C.ar      4 PHE5        0.0000 
     46 CA         14.8207   -3.4225  -31.0747 C.3       5 GLY6        0.0000 
     47 CA         13.5398   -2.6668  -30.8797 C.3       5 GLY6        0.0000 
     48 CZ         12.2588   -1.9111  -30.6847 C.ar      4 PHE5        0.0000 
     49 CA         14.6157   -3.3868  -32.5602 C.3       5 GLY6        0.0000 
     50 CA         13.3347   -2.6311  -32.3652 C.3       5 GLY6        0.0000 
     51 CZ         12.0537   -1.8754  -32.1702 C.ar      4 PHE5        0.0000 
     52 CZ         15.6916   -4.1067  -34.2407 C.ar      4 PHE5        0.0000 
     53 CA         14.4106   -3.3510  -34.0457 C.3       5 GLY6        0.0000 
     54 N          13.1296   -2.5954  -33.8507 N.2       2 ALA2        0.0000 
     55 N          11.8486   -1.8397  -33.6557 N.2       2 ALA2        0.0000 
     56 N          15.4865   -4.0710  -35.7262 N.2       2 ALA2        0.0000 
     57 N          14.2055   -3.3153  -35.5312 N.2       2 ALA2        0.0000 
     58 N          12.9245   -2.5597  -35.3362 N.2       2 ALA2        0.0000 
     59 N          11.6435   -1.8040  -35.1412 N.2       2 ALA2        0.0000 
     60 O          14.0004   -3.2796  -37.0167 O.2       2 ALA2        0.0000 
     61 N          12.7194   -2.5240  -36.8217 N.2       2 ALA2        0.0000 
     62 N          11.4384   -1.7683  -36.6266 N.2       2 ALA2        0.0000 
     63 OG         10.1574   -1.0126  -36.4316 O.2       1 SER1        0.0000 
     64 O          12.5143   -2.4882  -38.3072 O.2       2 ALA2        0.0000 
     65 N          11.2333   -1.7326  -38.1121 N.2       2 ALA2        0.0000 
     66 N          12.3093   -2.4525  -39.7926 N.2       2 ALA2        0.0000 
     67 OG         11.0283   -1.6969  -39.5976 O.2       1 SER1        0.0000 
     68 OG          9.7473   -0.9412  -39.4026 O.2       1 SER1        0.0000 
     69 N          12.1042   -2.4168  -41.2781 N.2       2 ALA2        0.0000 
     70 OG         10.8232   -1.6612  -41.0831 O.2       1 SER1        0.0000 
     71 OG         10.6181   -1.6254  -42.5686 O.2       1 SER1        0.0000 
     72 OG          9.1320   -0.8341  -43.8591 O.2       1 SER1        0.0000 
     73 CA         12.9918   -3.9978  -29.3214 C.3       5 GLY6        0.0000 
     74 OG         11.7109   -3.2421  -29.1264 O.2       1 SER1        0.0000 
     75 N          12.7868   -3.9621  -30.8069 N.2       2 ALA2        0.0000 
     76 OG         11.5058   -3.2064  -30.6119 O.2       1 SER1        0.0000 
     77 O          11.3007   -3.1707  -32.0974 O.2       2 ALA2        0.0000 
     78 O          13.6576   -4.6463  -33.9729 O.2       2 ALA2        0.0000 
     79 O          13.4525   -4.6106  -35.4584 O.2       2 ALA2        0.0000 
     80 CA         13.2474   -4.5749  -36.9439 C.3       5 GLY6        0.0000 
     81 CA         13.0423   -4.5392  -38.4293 C.3       5 GLY6        0.0000 
     82 N          11.7613   -3.7835  -38.2343 N.2       2 ALA2        0.0000 
     83 N          10.4803   -3.0278  -38.0393 N.2       2 ALA2        0.0000 
     84 N          12.8372   -4.5035  -39.9148 N.2       2 ALA2        0.0000 
     85 DU         11.5563   -3.7478  -39.7198 H         6 CUB7        0.0000 
     86 N          10.2753   -2.9921  -39.5248 N.2       2 ALA2        0.0000 
     87 OG          8.9943   -2.2365  -39.3298 O.2       1 SER1        0.0000 
     88 CA         11.3512   -3.7121  -41.2053 C.3       5 GLY6        0.0000 
     89 OG         10.0702   -2.9564  -41.0103 O.2       1 SER1        0.0000 
     90 OG          8.7892   -2.2007  -40.8153 O.2       1 SER1        0.0000 
     91 CA          9.8651   -2.9207  -42.4958 C.3       5 GLY6        0.0000 
     92 OG          8.5841   -2.1650  -42.3008 O.2       1 SER1        0.0000 
     93 CZ          9.6600   -2.8850  -43.9813 C.ar      4 PHE5        0.0000 
     94 OG          8.3790   -2.1293  -43.7862 O.2       1 SER1        0.0000 
     95 N          16.1416    2.5856  -34.1420 N.2       2 ALA2        0.0000 
     96 N          14.8606    3.3413  -33.9470 N.2       2 ALA2        0.0000 
     97 CZ         16.1217   -0.7962  -32.7059 C.ar      4 PHE5        0.0000 
     98 N          15.9166   -0.7605  -34.1914 N.2       2 ALA2        0.0000 
     99 CZ         14.6356   -0.0049  -33.9963 C.ar      4 PHE5        0.0000 
    100 CA         14.4305    0.0308  -35.4818 C.3       5 GLY6        0.0000 
    101 CZ         13.1495    0.7865  -35.2868 C.ar      4 PHE5        0.0000 
    102 N          11.8685    1.5422  -35.0918 N.2       2 ALA2        0.0000 
    103 CA         14.2254    0.0666  -36.9673 C.3       5 GLY6        0.0000 
    104 DU         12.9444    0.8222  -36.7723 H         6 CUB7        0.0000 
    105 N          11.6634    1.5779  -36.5773 N.2       2 ALA2        0.0000 
    106 O          14.0203    0.1023  -38.4528 O.2       2 ALA2        0.0000 
    107 DU         12.7393    0.8579  -38.2578 H         6 CUB7        0.0000 
    108 NZ         11.4584    1.6136  -38.0628 N.2       3 LYS4        0.0000 
    109 N          13.8153    0.1380  -39.9383 N.2       2 ALA2        0.0000 
    110 N          12.5343    0.8936  -39.7433 N.2       2 ALA2        0.0000 
    111 CA          8.5642   -5.5469  -40.8646 C.3       5 GLY6        0.0000 
@<TRIPOS>BOND
@<TRIPOS>SUBSTRUCTURE
     1 SER1       38 GROUP   
     2 ALA2        4 GROUP   
     3 LYS4       13 GROUP   
     4 PHE5        1 GROUP   
     5 GLY6        3 GROUP   
     6 CUB7        7 GROUP   
@<TRIPOS>SET

