#    Name: 4f0e_0RU_1_INTS_M
#    Modification time : Mon Mar 24 18:52:39 2014

@<TRIPOS>MOLECULE
4f0e_0RU_1_INTS_M
   39     0     6     0     0
SMALL
NO_CHARGES


@<TRIPOS>ATOM
      1 CA          9.2810    5.4555  -35.7115 C.3       2 GLC5        0.0000 
      2 CA         10.5130    3.7620  -36.3340 C.3       6 GLL5        0.0000 
      3 CA          8.0490    7.1490  -35.0890 C.3       4 GLP5        0.0000 
      4 CA          8.6295    1.5315  -36.2860 C.3       2 GLC5        0.0000 
      5 CA         10.1310    2.6250  -37.0520 C.3       6 GLL5        0.0000 
      6 CA          7.1280    0.4380  -35.5200 C.3       4 GLP5        0.0000 
      7 CA         11.5135    2.0885  -34.2980 C.3       2 GLC5        0.0000 
      8 CA         12.0860    1.5540  -36.3410 C.3       6 GLL5        0.0000 
      9 CA         10.9410    2.6230  -32.2550 C.3       4 GLP5        0.0000 
     10 CA         14.8785   -0.1240  -37.1980 C.3       2 GLC5        0.0000 
     11 CA         13.1000    0.0900  -36.3530 C.3       6 GLL5        0.0000 
     12 CA         16.6570   -0.3380  -38.0430 C.3       4 GLP5        0.0000 
     13 CA         16.4955   -4.0330  -32.5700 C.3       2 GLC5        0.0000 
     14 CA         16.2760   -2.1490  -32.8510 C.3       6 GLL5        0.0000 
     15 CA         16.7150   -5.9170  -32.2890 C.3       4 GLP5        0.0000 
     16 CA         15.5230   -0.4680  -31.8285 C.3       2 GLC5        0.0000 
     17 CA         14.7700    1.2130  -30.8060 C.3       4 GLP5        0.0000 
     18 CA         14.4280   -4.0515  -28.2080 C.3       2 GLC5        0.0000 
     19 CA         14.1950   -2.7070  -29.7830 C.3       6 GLL5        0.0000 
     20 CA         14.6610   -5.3960  -26.6330 C.3       4 GLP5        0.0000 
     21 N           8.9245   -2.2315  -31.5005 N.am      1 SEC2        0.0000 
     22 N          10.2620   -2.0990  -31.3120 N.am      5 SEL2        0.0000 
     23 N           7.5870   -2.3640  -31.6890 N.am      3 SEP2        0.0000 
     24 CA         11.0288    3.1865  -34.1155 C.3       2 GLC5        0.0000 
     25 CA         11.7200    3.7380  -35.6180 C.3       6 GLL5        0.0000 
     26 CA          8.7235    3.8193  -37.3200 C.3       2 GLC5        0.0000 
     27 CA          7.1250    4.4450  -37.9470 C.3       4 GLP5        0.0000 
     28 CA         14.8377   -3.9798  -32.1578 C.3       2 GLC5        0.0000 
     29 CA         13.7780   -2.0710  -32.4650 C.3       6 GLL5        0.0000 
     30 CA         15.2350   -5.7870  -32.1040 C.3       4 GLP5        0.0000 
     31 CA         17.4591   -2.1481  -31.6236 C.3       2 GLC5        0.0000 
     32 CA         15.1030   -2.2740  -31.9580 C.3       6 GLL5        0.0000 
     33 CA         19.4270   -1.8970  -31.7300 C.3       4 GLP5        0.0000 
     34 CA         14.9895   -4.2170  -31.1552 C.3       2 GLC5        0.0000 
     35 CA         15.2930   -2.5870  -30.6300 C.3       6 GLL5        0.0000 
     36 CA         14.0192   -4.0687  -31.5270 C.3       2 GLC5        0.0000 
     37 CA         12.9020   -2.5110  -30.2720 C.3       6 GLL5        0.0000 
     38 CA         11.9138   -0.4828  -31.1585 C.3       2 GLC5        0.0000 
     39 CA         11.0240    1.3850  -31.3670 C.3       4 GLP5        0.0000 
@<TRIPOS>BOND
@<TRIPOS>SUBSTRUCTURE
     1 SEC2       21 GROUP        1 X    SEC  0     ROOT SEC X 2
     2 GLC5        1 GROUP        1 X    GLC  0     **** GLC X 6
     3 SEP2       23 GROUP        1 Y    SEP  0     ROOT SEP Y 9
     4 GLP5        3 GROUP        1 Y    GLP  0     **** GLP Y 13
     5 SEL2       22 GROUP        1 Z    SEL  0     ROOT SEL Z 16
     6 GLL5        2 GROUP        1 Z    GLL  0     **** GLL Z 20
@<TRIPOS>SET

