#    Name: 4f0e_0RU_1_ligand
#    Modification time : Mon Mar 24 18:52:39 2014

@<TRIPOS>MOLECULE
4f0e_0RU_1_ligand
   32    34     1     0     0
SMALL
NO_CHARGES


@<TRIPOS>ATOM
      1 NAJ        12.4900    2.6160  -35.6340 N.ar      1 0RU701      0.0000 
      2 CAE        11.7200    3.7380  -35.6180 C.ar      1 0RU701      0.0000 
      3 CAC        10.5130    3.7620  -36.3340 C.ar      1 0RU701      0.0000 
      4 CAF        10.1310    2.6250  -37.0520 C.ar      1 0RU701      0.0000 
      5 NAK        10.9360    1.5350  -37.0380 N.ar      1 0RU701      0.0000 
      6 CAQ        12.0860    1.5540  -36.3410 C.ar      1 0RU701      0.0000 
      7 SAN        13.1000    0.0900  -36.3530 S.3       1 0RU701      0.0000 
      8 CAI        12.1040   -1.2320  -35.6760 C.3       1 0RU701      0.0000 
      9 CAP        12.2950   -1.5690  -34.2440 C.2       1 0RU701      0.0000 
     10 NAL        13.5540   -1.7560  -33.7880 N.pl3     1 0RU701      0.0000 
     11 CAT        13.7780   -2.0710  -32.4650 C.ar      1 0RU701      0.0000 
     12 CAO        15.1030   -2.2740  -31.9580 C.ar      1 0RU701      0.0000 
     13 CAA        16.2760   -2.1490  -32.8510 C.3       1 0RU701      0.0000 
     14 CAG        15.2930   -2.5870  -30.6300 C.ar      1 0RU701      0.0000 
     15 CAD        14.1950   -2.7070  -29.7830 C.ar      1 0RU701      0.0000 
     16 CAH        12.9020   -2.5110  -30.2720 C.ar      1 0RU701      0.0000 
     17 CAS        12.7050   -2.1900  -31.6280 C.ar      1 0RU701      0.0000 
     18 CAR        11.3690   -1.9840  -32.1480 C.2       1 0RU701      0.0000 
     19 OAB        10.2620   -2.0990  -31.3120 O.2       1 0RU701      0.0000 
     20 NAM        11.2200   -1.6800  -33.4450 N.2       1 0RU701      0.0000 
     21 H          12.0041    4.5739  -35.0899 H         1 0RU701      0.0000 
     22 H           9.9279    4.5939  -36.3289 H         1 0RU701      0.0000 
     23 H           9.2483    2.6352  -37.5769 H         1 0RU701      0.0000 
     24 H          12.3363   -2.0650  -36.3603 H         1 0RU701      0.0000 
     25 H          11.0826   -0.8936  -35.9174 H         1 0RU701      0.0000 
     26 H          14.3666   -1.6642  -34.4304 H         1 0RU701      0.0000 
     27 H          16.2416   -2.7330  -30.2589 H         1 0RU701      0.0000 
     28 H          14.3350   -2.9415  -28.7903 H         1 0RU701      0.0000 
     29 H          12.0944   -2.5996  -29.6485 H         1 0RU701      0.0000 
     30 H          17.1329   -2.3193  -32.3645 H         1 0RU701      0.0000 
     31 H          16.2358   -2.7987  -33.6101 H         1 0RU701      0.0000 
     32 H          16.3426   -1.2349  -33.2509 H         1 0RU701      0.0000 
@<TRIPOS>BOND
     1    2    1 ar   
     2    6    1 ar   
     3    3    2 ar   
     4   21    2 1    
     5    4    3 ar   
     6   22    3 1    
     7    5    4 ar   
     8   23    4 1    
     9    6    5 ar   
    10    7    6 1    
    11    8    7 1    
    12    9    8 1    
    13   24    8 1    
    14   25    8 1    
    15   10    9 1    
    16   20    9 2    
    17   11   10 1    
    18   26   10 1    
    19   12   11 ar   
    20   17   11 ar   
    21   13   12 1    
    22   14   12 ar   
    23   30   13 1    
    24   31   13 1    
    25   32   13 1    
    26   15   14 ar   
    27   27   14 1    
    28   16   15 ar   
    29   28   15 1    
    30   17   16 ar   
    31   29   16 1    
    32   18   17 1    
    33   19   18 2    
    34   20   18 1    
@<TRIPOS>SUBSTRUCTURE
     1 0RU701      1 GROUP   
@<TRIPOS>SET

