#    Name: 2b3d_FAD_2_INTS_M
#    Modification time : Mon Mar 24 19:51:38 2014

@<TRIPOS>MOLECULE
2b3d_FAD_2_INTS_M
  106     0     9     0     0
SMALL
NO_CHARGES


@<TRIPOS>ATOM
      1 N          -5.0935    6.3865   -4.7655 N.am      2 SEC2        0.0000 
      2 N          -6.3470    5.9590   -4.7760 N.am      8 SEL2        0.0000 
      3 N          -3.8400    6.8140   -4.7550 N.am      5 SEP2        0.0000 
      4 CA        -10.3995    7.5250   -3.5395 C.3       3 GLC5        0.0000 
      5 CA        -10.1520    5.7700   -4.2880 C.3       9 GLL5        0.0000 
      6 CA        -10.6470    9.2800   -2.7910 C.3       6 GLP5        0.0000 
      7 CA        -12.7225    3.7525   -5.2090 C.3       3 GLC5        0.0000 
      8 CA        -10.9780    4.9560   -5.2760 C.3       9 GLL5        0.0000 
      9 CA        -14.4670    2.5490   -5.1420 C.3       6 GLP5        0.0000 
     10 CA        -10.9710   10.4480   -8.1925 C.3       3 GLC5        0.0000 
     11 CA        -12.9510    9.5170   -7.7600 C.3       9 GLL5        0.0000 
     12 CA         -8.9910   11.3790   -8.6250 C.3       6 GLP5        0.0000 
     13 CA        -15.4920   10.2660   -6.8540 C.3       3 GLC5        0.0000 
     14 CA        -13.9200   10.3950   -8.3610 C.3       9 GLL5        0.0000 
     15 CA        -17.0640   10.1370   -5.3470 C.3       6 GLP5        0.0000 
     16 O         -13.0600   12.6545   -7.3850 O.2       1 ALC1        0.0000 
     17 O         -13.8100   11.7270   -8.2910 O.2       7 ALL1        0.0000 
     18 O         -12.3100   13.5820   -6.4790 O.2       4 ALP1        0.0000 
     19 CA        -16.0570    8.5435   -7.2645 C.3       3 GLC5        0.0000 
     20 CA        -15.0740    8.4670   -9.0740 C.3       9 GLL5        0.0000 
     21 CA        -17.0400    8.6200   -5.4550 C.3       6 GLP5        0.0000 
     22 CA        -14.5500    8.1110   -6.2420 C.3       3 GLC5        0.0000 
     23 CA        -13.1640    8.1820   -7.8880 C.3       9 GLL5        0.0000 
     24 CA        -15.9360    8.0400   -4.5960 C.3       6 GLP5        0.0000 
     25 N          -7.6470    1.8150    3.8810 N.am      2 SEC2        0.0000 
     26 N          -6.0390    1.7700    4.2050 N.am      8 SEL2        0.0000 
     27 N          -9.2550    1.8600    3.5570 N.am      5 SEP2        0.0000 
     28 N          -8.4965    1.4975    4.5900 N.am      2 SEC2        0.0000 
     29 N          -7.7380    1.1350    5.6230 N.am      8 SEL2        0.0000 
     30 N          -8.8335    0.4670    5.3525 N.am      2 SEC2        0.0000 
     31 N          -9.9290   -0.2010    5.0820 N.am      5 SEP2        0.0000 
     32 N          -2.9865    2.0735    8.5355 N.am      2 SEC2        0.0000 
     33 N          -3.5040    1.2420    7.4440 N.am      8 SEL2        0.0000 
     34 N          -2.4690    2.9050    9.6270 N.am      5 SEP2        0.0000 
     35 N          -1.7295    2.6655    6.0575 N.am      2 SEC2        0.0000 
     36 N          -2.3570    2.0420    4.9900 N.am      8 SEL2        0.0000 
     37 N          -1.1020    3.2890    7.1250 N.am      5 SEP2        0.0000 
     38 CA         -0.4675    4.7625    3.8700 C.3       3 GLC5        0.0000 
     39 CA         -0.0060    3.2090    2.3300 C.3       9 GLL5        0.0000 
     40 CA         -0.9290    6.3160    5.4100 C.3       6 GLP5        0.0000 
     41 CA          2.5100    2.0870    1.2225 C.3       3 GLC5        0.0000 
     42 CA          1.4960    3.4780    2.2240 C.3       9 GLL5        0.0000 
     43 CA          3.5240    0.6960    0.2210 C.3       6 GLP5        0.0000 
     44 CA          2.8615    3.9800    1.1840 C.3       3 GLC5        0.0000 
     45 CA          4.2270    4.4820    0.1440 C.3       6 GLP5        0.0000 
     46 CA          0.7290    5.2855    2.6465 C.3       3 GLC5        0.0000 
     47 CA         -0.0380    7.0930    3.0690 C.3       6 GLP5        0.0000 
     48 CA          1.7705    2.8760    4.0700 C.3       3 GLC5        0.0000 
     49 CA          2.0450    2.2740    5.9160 C.3       6 GLP5        0.0000 
     50 CA          1.5145    4.6630   -0.3090 C.3       3 GLC5        0.0000 
     51 CA         -0.4030    3.8940   -0.1250 C.3       9 GLL5        0.0000 
     52 CA          3.4320    5.4320   -0.4930 C.3       6 GLP5        0.0000 
     53 CA          0.9025    3.1590   -1.4890 C.3       3 GLC5        0.0000 
     54 CA          2.2080    2.4240   -2.8530 C.3       6 GLP5        0.0000 
     55 CA         -1.2230    2.2220   -1.1650 C.3       3 GLC5        0.0000 
     56 CA         -2.0430    0.5500   -2.2050 C.3       6 GLP5        0.0000 
     57 CA         -0.5010    5.5455    0.8260 C.3       3 GLC5        0.0000 
     58 CA         -0.5990    7.1970    1.7770 C.3       6 GLP5        0.0000 
     59 CA         -4.0790    1.5085    0.2415 C.3       3 GLC5        0.0000 
     60 CA         -5.1910    2.6510    1.7150 C.3       9 GLL5        0.0000 
     61 CA         -2.9670    0.3660   -1.2320 C.3       6 GLP5        0.0000 
     62 CA         -6.7035    1.2840    2.1030 C.3       3 GLC5        0.0000 
     63 CA         -8.2160   -0.0830    2.4910 C.3       6 GLP5        0.0000 
     64 CA         -6.1000    1.5305    0.3235 C.3       3 GLC5        0.0000 
     65 CA         -7.0090    0.4100   -1.0680 C.3       6 GLP5        0.0000 
     66 CA         -5.4895    6.3540    2.0035 C.3       3 GLC5        0.0000 
     67 CA         -5.5000    4.1540    1.5680 C.3       9 GLL5        0.0000 
     68 CA         -5.4790    8.5540    2.4390 C.3       6 GLP5        0.0000 
     69 CA         -3.8275    5.2570    2.3595 C.3       3 GLC5        0.0000 
     70 CA         -2.1550    6.3600    3.1510 C.3       6 GLP5        0.0000 
     71 N          -6.0925    5.7850    3.9750 N.am      2 SEC2        0.0000 
     72 N          -6.1130    4.5930    2.7840 N.am      8 SEL2        0.0000 
     73 N          -6.0720    6.9770    5.1660 N.am      5 SEP2        0.0000 
     74 O          -5.2265    4.6840    3.7970 O.2       1 ALC1        0.0000 
     75 O          -6.1130    4.5930    2.7840 O.2       7 ALL1        0.0000 
     76 O          -4.3400    4.7750    4.8100 O.2       4 ALP1        0.0000 
     77 CA         -6.7020    2.4040   -0.3565 C.3       3 GLC5        0.0000 
     78 CA         -6.3950    4.3980    0.3550 C.3       9 GLL5        0.0000 
     79 O          -4.3675    4.6990   -0.7210 O.2       1 ALC1        0.0000 
     80 O          -5.6570    3.9280   -0.7730 O.2       7 ALL1        0.0000 
     81 O          -3.0780    5.4700   -0.6690 O.2       4 ALP1        0.0000 
     82 CA         -6.0795    7.2300    1.3025 C.3       3 GLC5        0.0000 
     83 CA         -6.6800    5.9060    0.1660 C.3       9 GLL5        0.0000 
     84 N          -8.1180    7.3465    1.7515 N.am      2 SEC2        0.0000 
     85 N          -7.4270    6.3700    1.2960 N.am      8 SEL2        0.0000 
     86 N          -8.8090    8.3230    2.2070 N.am      5 SEP2        0.0000 
     87 N          -7.7095    9.0980   -0.3010 N.am      2 SEC2        0.0000 
     88 N          -7.6270    7.5990   -1.1420 N.am      8 SEL2        0.0000 
     89 N          -7.7920   10.5970    0.5400 N.am      5 SEP2        0.0000 
     90 N          -8.2465   10.8405   -2.0965 N.am      2 SEC2        0.0000 
     91 N          -7.2590    9.7780   -2.2160 N.am      8 SEL2        0.0000 
     92 N          -9.2340   11.9030   -1.9770 N.am      5 SEP2        0.0000 
     93 N          -7.5255   10.1875   -0.8380 N.am      2 SEC2        0.0000 
     94 N          -8.6195    9.1395   -4.0690 N.am      2 SEC2        0.0000 
     95 N          -7.8330    7.7340   -3.6380 N.am      8 SEL2        0.0000 
     96 N          -9.4060   10.5450   -4.5000 N.am      5 SEP2        0.0000 
     97 CA         -2.2717    1.8207    0.0443 C.3       3 GLC5        0.0000 
     98 CA         -2.2780    3.1420    1.4090 C.3       9 GLL5        0.0000 
     99 CA         -1.9503    4.7404   -0.3979 C.3       3 GLC5        0.0000 
    100 CA         -0.8750    3.4090    1.2320 C.3       9 GLL5        0.0000 
    101 CA         -2.4420    6.0840   -1.7770 C.3       6 GLP5        0.0000 
    102 CA         -1.9401    3.9550    4.5524 C.3       3 GLC5        0.0000 
    103 CA         -2.8110    2.6920    2.6310 C.3       9 GLL5        0.0000 
    104 CA         -1.8720    5.2520    5.9670 C.3       6 GLP5        0.0000 
    105 CA         -8.8289    4.8480   -0.0631 C.3       3 GLC5        0.0000 
    106 CA        -10.6380    4.0300    0.2730 C.3       6 GLP5        0.0000 
@<TRIPOS>BOND
@<TRIPOS>SUBSTRUCTURE
     1 ALC1       16 GROUP        1 X    ALC  0     ROOT ALC X 1
     2 SEC2        1 GROUP        1 X    SEC  0     **** SEC X 2
     3 GLC5        4 GROUP        1 X    GLC  0     **** GLC X 6
     4 ALP1       18 GROUP        1 Y    ALP  0     ROOT ALP Y 8
     5 SEP2        3 GROUP        1 Y    SEP  0     **** SEP Y 9
     6 GLP5        6 GROUP        1 Y    GLP  0     **** GLP Y 13
     7 ALL1       17 GROUP        1 Z    ALL  0     ROOT ALL Z 15
     8 SEL2        2 GROUP        1 Z    SEL  0     **** SEL Z 16
     9 GLL5        5 GROUP        1 Z    GLL  0     **** GLL Z 20
@<TRIPOS>SET

