#    Name: 2b3d_FAD_2_ligand
#    Modification time : Mon Mar 24 19:51:38 2014

@<TRIPOS>MOLECULE
2b3d_FAD_2_ligand
   84    89     1     0     0
SMALL
NO_CHARGES


@<TRIPOS>ATOM
      1 PA         -7.6660    6.6420   -4.8070 P.3       1 FAD1206     0.0000 
      2 O1A        -6.3470    5.9590   -4.7760 O.co2     1 FAD1206     0.0000 
      3 O2A        -8.0350    7.3390   -6.0450 O.co2     1 FAD1206     0.0000 
      4 O5B        -8.7420    5.5240   -4.4270 O.3       1 FAD1206     0.0000 
      5 C5B       -10.1520    5.7700   -4.2880 C.3       1 FAD1206     0.0000 
      6 C4B       -10.9780    4.9560   -5.2760 C.3       1 FAD1206     0.0000 
      7 O4B       -11.9760    5.8900   -5.6850 O.3       1 FAD1206     0.0000 
      8 C3B       -10.2710    4.4890   -6.5600 C.3       1 FAD1206     0.0000 
      9 O3B       -10.7130    3.2070   -6.9720 O.3       1 FAD1206     0.0000 
     10 C2B       -10.5880    5.5720   -7.5770 C.3       1 FAD1206     0.0000 
     11 O2B       -10.5670    5.2000   -8.9390 O.3       1 FAD1206     0.0000 
     12 C1B       -11.9410    6.1110   -7.0990 C.3       1 FAD1206     0.0000 
     13 N9A       -12.1310    7.5430   -7.2380 N.pl3     1 FAD1206     0.0000 
     14 C8A       -11.3450    8.5590   -6.7570 C.2       1 FAD1206     0.0000 
     15 N7A       -11.7890    9.7630   -7.0420 N.2       1 FAD1206     0.0000 
     16 C5A       -12.9510    9.5170   -7.7600 C.ar      1 FAD1206     0.0000 
     17 C6A       -13.9200   10.3950   -8.3610 C.ar      1 FAD1206     0.0000 
     18 N6A       -13.8100   11.7270   -8.2910 N.pl3     1 FAD1206     0.0000 
     19 N1A       -14.9790    9.8280   -9.0160 N.ar      1 FAD1206     0.0000 
     20 C2A       -15.0740    8.4670   -9.0740 C.ar      1 FAD1206     0.0000 
     21 N3A       -14.2340    7.5580   -8.5500 N.ar      1 FAD1206     0.0000 
     22 C4A       -13.1640    8.1820   -7.8880 C.ar      1 FAD1206     0.0000 
     23 N1         -6.0390    1.7700    4.2050 N.2       1 FAD1206     0.0000 
     24 C2         -6.5150    1.3590    5.4170 C.2       1 FAD1206     0.0000 
     25 O2         -7.7380    1.1350    5.6230 O.2       1 FAD1206     0.0000 
     26 N3         -5.6170    1.2000    6.4970 N.am      1 FAD1206     0.0000 
     27 C4         -4.2260    1.4040    6.4230 C.2       1 FAD1206     0.0000 
     28 O4         -3.5040    1.2420    7.4440 O.2       1 FAD1206     0.0000 
     29 C4X        -3.7440    1.8010    5.1510 C.2       1 FAD1206     0.0000 
     30 N5         -2.3570    2.0420    4.9900 N.2       1 FAD1206     0.0000 
     31 C5X        -1.9030    2.4890    3.7400 C.ar      1 FAD1206     0.0000 
     32 C6         -0.5080    2.7590    3.5490 C.ar      1 FAD1206     0.0000 
     33 C7         -0.0060    3.2090    2.3300 C.ar      1 FAD1206     0.0000 
     34 C7M         1.4960    3.4780    2.2240 C.3       1 FAD1206     0.0000 
     35 C8         -0.8750    3.4090    1.2320 C.ar      1 FAD1206     0.0000 
     36 C8M        -0.4030    3.8940   -0.1250 C.3       1 FAD1206     0.0000 
     37 C9         -2.2780    3.1420    1.4090 C.ar      1 FAD1206     0.0000 
     38 C9A        -2.8110    2.6920    2.6310 C.ar      1 FAD1206     0.0000 
     39 N10        -4.2350    2.4280    2.8300 N.pl3     1 FAD1206     0.0000 
     40 C10        -4.6860    1.9900    4.0710 C.2       1 FAD1206     0.0000 
     41 C1'        -5.1910    2.6510    1.7150 C.3       1 FAD1206     0.0000 
     42 C2'        -5.5000    4.1540    1.5680 C.3       1 FAD1206     0.0000 
     43 O2'        -6.1130    4.5930    2.7840 O.3       1 FAD1206     0.0000 
     44 C3'        -6.3950    4.3980    0.3550 C.3       1 FAD1206     0.0000 
     45 O3'        -5.6570    3.9280   -0.7730 O.3       1 FAD1206     0.0000 
     46 C4'        -6.6800    5.9060    0.1660 C.3       1 FAD1206     0.0000 
     47 O4'        -7.4270    6.3700    1.2960 O.3       1 FAD1206     0.0000 
     48 C5'        -7.5020    6.1800   -1.0590 C.3       1 FAD1206     0.0000 
     49 O5'        -7.6270    7.5990   -1.1420 O.3       1 FAD1206     0.0000 
     50 P          -7.0010    8.3440   -2.3990 P.3       1 FAD1206     0.0000 
     51 O1P        -7.2590    9.7780   -2.2160 O.co2     1 FAD1206     0.0000 
     52 O2P        -5.5690    7.9110   -2.5690 O.co2     1 FAD1206     0.0000 
     53 O3P        -7.8330    7.7340   -3.6380 O.3       1 FAD1206     0.0000 
     54 H         -10.3889    6.8377   -4.4496 H         1 FAD1206     0.0000 
     55 H         -10.5023    5.5206   -3.2696 H         1 FAD1206     0.0000 
     56 H         -11.4283    4.1360   -4.7808 H         1 FAD1206     0.0000 
     57 H          -9.2103    4.5286   -6.3633 H         1 FAD1206     0.0000 
     58 H          -9.8700    6.3989   -7.3630 H         1 FAD1206     0.0000 
     59 H         -12.7247    5.5631   -7.5660 H         1 FAD1206     0.0000 
     60 H         -10.5072    8.3686   -6.2348 H         1 FAD1206     0.0000 
     61 H         -13.0208   12.0774   -7.7867 H         1 FAD1206     0.0000 
     62 H         -14.5269   12.2524   -8.7492 H         1 FAD1206     0.0000 
     63 H         -15.9426    8.0767   -9.6147 H         1 FAD1206     0.0000 
     64 H          -6.0218    0.9063    7.4275 H         1 FAD1206     0.0000 
     65 H           0.1297    2.6101    4.3495 H         1 FAD1206     0.0000 
     66 H          -2.9064    3.2904    0.6005 H         1 FAD1206     0.0000 
     67 H          -6.1273    2.1258    1.9030 H         1 FAD1206     0.0000 
     68 H          -4.7717    2.2941    0.7744 H         1 FAD1206     0.0000 
     69 H          -4.5548    4.6581    1.4070 H         1 FAD1206     0.0000 
     70 H          -7.3045    3.8782    0.4786 H         1 FAD1206     0.0000 
     71 H          -5.7430    6.4207    0.0929 H         1 FAD1206     0.0000 
     72 H          -8.4665    5.6974   -0.9467 H         1 FAD1206     0.0000 
     73 H          -6.9888    5.7705   -1.9219 H         1 FAD1206     0.0000 
     74 H           2.0345    2.6560    2.4094 H         1 FAD1206     0.0000 
     75 H           1.7527    3.7969    1.3117 H         1 FAD1206     0.0000 
     76 H           1.7949    4.1770    2.8737 H         1 FAD1206     0.0000 
     77 H           0.0317    4.7928   -0.0676 H         1 FAD1206     0.0000 
     78 H           0.2655    3.2705   -0.5304 H         1 FAD1206     0.0000 
     79 H          -1.1594    3.9751   -0.7741 H         1 FAD1206     0.0000 
     80 H         -10.9395    3.3104   -7.9405 H         1 FAD1206     0.0000 
     81 H         -11.3271    5.6990   -9.3552 H         1 FAD1206     0.0000 
     82 H          -5.3637    4.6564    3.4432 H         1 FAD1206     0.0000 
     83 H          -4.9835    4.6437   -0.9580 H         1 FAD1206     0.0000 
     84 H          -7.0966    5.8244    2.0662 H         1 FAD1206     0.0000 
@<TRIPOS>BOND
     1    2    1 ar   
     2    3    1 ar   
     3    4    1 1    
     4   53    1 1    
     5    5    4 1    
     6    6    5 1    
     7   54    5 1    
     8   55    5 1    
     9    7    6 1    
    10    8    6 1    
    11   56    6 1    
    12   12    7 1    
    13    9    8 1    
    14   10    8 1    
    15   57    8 1    
    16   80    9 1    
    17   11   10 1    
    18   12   10 1    
    19   58   10 1    
    20   81   11 1    
    21   13   12 1    
    22   59   12 1    
    23   14   13 1    
    24   22   13 1    
    25   15   14 2    
    26   60   14 1    
    27   16   15 1    
    28   17   16 ar   
    29   22   16 ar   
    30   18   17 1    
    31   19   17 ar   
    32   61   18 1    
    33   62   18 1    
    34   20   19 ar   
    35   21   20 ar   
    36   63   20 1    
    37   22   21 ar   
    38   24   23 1    
    39   40   23 2    
    40   25   24 2    
    41   26   24 am   
    42   27   26 am   
    43   64   26 1    
    44   28   27 2    
    45   29   27 1    
    46   30   29 2    
    47   40   29 1    
    48   31   30 1    
    49   32   31 ar   
    50   38   31 ar   
    51   33   32 ar   
    52   65   32 1    
    53   34   33 1    
    54   35   33 ar   
    55   74   34 1    
    56   75   34 1    
    57   76   34 1    
    58   36   35 1    
    59   37   35 ar   
    60   77   36 1    
    61   78   36 1    
    62   79   36 1    
    63   38   37 ar   
    64   66   37 1    
    65   39   38 1    
    66   40   39 1    
    67   41   39 1    
    68   42   41 1    
    69   67   41 1    
    70   68   41 1    
    71   43   42 1    
    72   44   42 1    
    73   69   42 1    
    74   82   43 1    
    75   45   44 1    
    76   46   44 1    
    77   70   44 1    
    78   83   45 1    
    79   47   46 1    
    80   48   46 1    
    81   71   46 1    
    82   84   47 1    
    83   49   48 1    
    84   72   48 1    
    85   73   48 1    
    86   50   49 1    
    87   51   50 ar   
    88   52   50 ar   
    89   53   50 1    
@<TRIPOS>SUBSTRUCTURE
     1 FAD1206     1 GROUP   
@<TRIPOS>SET

