#    Name: 3vjc_ZGA_2_INTS_M
#    Modification time : Tue Mar 25 00:57:06 2014

@<TRIPOS>MOLECULE
3vjc_ZGA_2_INTS_M
  121     0    12     0     0
SMALL
NO_CHARGES


@<TRIPOS>ATOM
      1 CA         55.5315   34.7730   43.7840 C.3       4 GLC5        0.0000 
      2 CA         54.8270   36.3370   44.9970 C.3      12 GLL5        0.0000 
      3 CA         56.2360   33.2090   42.5710 C.3       8 GLP5        0.0000 
      4 CA         56.5845   36.2415   44.9545 C.3       4 GLC5        0.0000 
      5 CA         58.3420   36.1460   44.9120 C.3       8 GLP5        0.0000 
      6 CA         45.5145   45.7410   51.4570 C.3       4 GLC5        0.0000 
      7 CA         45.1280   43.8670   51.1160 C.3      12 GLL5        0.0000 
      8 CA         45.9010   47.6150   51.7980 C.3       8 GLP5        0.0000 
      9 CA         44.0055   45.0500   52.4975 C.3       4 GLC5        0.0000 
     10 CA         42.8830   46.2330   53.8790 C.3       8 GLP5        0.0000 
     11 CA         57.5120   37.8025   43.8715 C.3       4 GLC5        0.0000 
     12 CA         56.6820   39.4590   42.8310 C.3      12 GLL5        0.0000 
     13 CA         57.7340   39.9850   41.4615 C.3       4 GLC5        0.0000 
     14 CA         58.7860   40.5110   40.0920 C.3       8 GLP5        0.0000 
     15 CA         58.6810   39.6860   43.0070 C.3       4 GLC5        0.0000 
     16 CA         60.6800   39.9130   43.1830 C.3       8 GLP5        0.0000 
     17 CA         55.3350   40.5185   41.4220 C.3       4 GLC5        0.0000 
     18 CA         53.9880   41.5780   40.0130 C.3       8 GLP5        0.0000 
     19 CA         41.6180   39.8680   47.6535 C.3       4 GLC5        0.0000 
     20 CA         43.5550   39.5640   46.7590 C.3      12 GLL5        0.0000 
     21 CA         39.6810   40.1720   48.5480 C.3       8 GLP5        0.0000 
     22 CA         41.9280   38.2920   46.7515 C.3       4 GLC5        0.0000 
     23 CA         40.3010   37.0200   46.7440 C.3       8 GLP5        0.0000 
     24 CA         45.6465   44.2705   46.9560 C.3       4 GLC5        0.0000 
     25 CA         46.0040   43.0020   48.3880 C.3      12 GLL5        0.0000 
     26 CA         45.2890   45.5390   45.5240 C.3       8 GLP5        0.0000 
     27 CA         54.4210   36.1495   40.7230 C.3       4 GLC5        0.0000 
     28 CA         52.9800   35.8430   42.0900 C.3      12 GLL5        0.0000 
     29 CA         55.8620   36.4560   39.3560 C.3       8 GLP5        0.0000 
     30 CA         54.6080   34.5260   42.3305 C.3       4 GLC5        0.0000 
     31 NZ         53.0115   32.0905   49.5575 N.4       3 LYC4        0.0000 
     32 NZ         52.6130   32.9040   50.6790 N.4      11 LYL4        0.0000 
     33 NZ         53.3500   31.7930   47.2210 N.4       7 LYP4        0.0000 
     34 NZ         53.3275   31.8630   51.3445 N.4       3 LYC4        0.0000 
     35 NZ         54.0420   30.8220   52.0100 N.4       7 LYP4        0.0000 
     36 N          53.0115   32.0905   49.5575 N.am      2 SEC2        0.0000 
     37 N          52.6130   32.9040   50.6790 N.am     10 SEL2        0.0000 
     38 N          53.4100   31.2770   48.4360 N.am      6 SEP2        0.0000 
     39 N          53.3275   31.8630   51.3445 N.am      2 SEC2        0.0000 
     40 N          54.0420   30.8220   52.0100 N.am      6 SEP2        0.0000 
     41 NZ         47.4600   33.1390   51.4885 N.4       3 LYC4        0.0000 
     42 NZ         48.2210   34.5240   50.7680 N.4      11 LYL4        0.0000 
     43 NZ         47.0790   32.3160   53.3490 N.4       7 LYP4        0.0000 
     44 N          47.4600   33.1390   51.4885 N.am      2 SEC2        0.0000 
     45 N          48.2210   34.5240   50.7680 N.am     10 SEL2        0.0000 
     46 N          46.6990   31.7540   52.2090 N.am      6 SEP2        0.0000 
     47 N          48.1120   33.8970   52.0520 N.am      2 SEC2        0.0000 
     48 N          48.0030   33.2700   53.3360 N.am      6 SEP2        0.0000 
     49 N          45.8695   34.0510   47.4900 N.am      2 SEC2        0.0000 
     50 N          47.1580   34.5250   47.6830 N.am     10 SEL2        0.0000 
     51 N          44.5810   33.5770   47.2970 N.am      6 SEP2        0.0000 
     52 N          49.3360   33.1345   52.5080 N.am      2 SEC2        0.0000 
     53 N          50.6690   32.9990   51.6800 N.am     10 SEL2        0.0000 
     54 NZ         47.3845   32.1475   51.0270 N.4       3 LYC4        0.0000 
     55 NZ         48.0700   32.5410   49.8450 N.4      11 LYL4        0.0000 
     56 N          47.1560   31.9665   48.7945 N.am      2 SEC2        0.0000 
     57 N          48.0700   32.5410   49.8450 N.am     10 SEL2        0.0000 
     58 N          46.2420   31.3920   47.7440 N.am      6 SEP2        0.0000 
     59 N          47.3845   32.1475   51.0270 N.am      2 SEC2        0.0000 
     60 N          47.7230   33.6520   45.1780 N.am      2 SEC2        0.0000 
     61 N          48.4830   34.4710   45.9230 N.am     10 SEL2        0.0000 
     62 N          46.9630   32.8330   44.4330 N.am      6 SEP2        0.0000 
     63 N          49.4890   33.8465   45.3000 N.am      2 SEC2        0.0000 
     64 N          50.4950   33.2220   44.6770 N.am      6 SEP2        0.0000 
     65 N          51.2410   32.6975   47.5830 N.am      2 SEC2        0.0000 
     66 N          50.1290   32.8040   48.2980 N.am     10 SEL2        0.0000 
     67 N          52.3530   32.5910   46.8680 N.am      6 SEP2        0.0000 
     68 O          49.8055   31.4675   48.0860 O.2       1 ALC1        0.0000 
     69 O          50.1290   32.8040   48.2980 O.2       9 ALL1        0.0000 
     70 O          49.4820   30.1310   47.8740 O.2       5 ALP1        0.0000 
     71 CA         46.8895   38.4840   45.9940 C.3       4 GLC5        0.0000 
     72 CA         46.5930   38.8610   47.8120 C.3      12 GLL5        0.0000 
     73 CA         47.1860   38.1070   44.1760 C.3       8 GLP5        0.0000 
     74 CA         47.6770   35.4385   39.0150 C.3       4 GLC5        0.0000 
     75 CA         48.8320   37.1310   38.9500 C.3      12 GLL5        0.0000 
     76 CA         46.5220   33.7460   39.0800 C.3       8 GLP5        0.0000 
     77 CA         47.9275   36.3140   37.2300 C.3       4 GLC5        0.0000 
     78 CA         47.0230   35.4970   35.5100 C.3       8 GLP5        0.0000 
     79 CA         49.6905   35.1945   38.9725 C.3       4 GLC5        0.0000 
     80 CA         50.5490   33.2580   38.9950 C.3       8 GLP5        0.0000 
     81 CA         48.4330   39.1975   38.7080 C.3       4 GLC5        0.0000 
     82 CA         48.5920   37.6400   40.2290 C.3      12 GLL5        0.0000 
     83 CA         48.2740   40.7550   37.1870 C.3       8 GLP5        0.0000 
     84 CA         53.0890   37.8635   38.7500 C.3       4 GLC5        0.0000 
     85 CA         51.2060   37.2870   39.3610 C.3      12 GLL5        0.0000 
     86 CA         54.9720   38.4400   38.1390 C.3       8 GLP5        0.0000 
     87 CA         42.2685   42.8920   49.7575 C.3       4 GLC5        0.0000 
     88 CA         44.2830   42.9850   50.2230 C.3      12 GLL5        0.0000 
     89 CA         40.2540   42.7990   49.2920 C.3       8 GLP5        0.0000 
     90 CA         51.0365   36.2350   41.3925 C.3       4 GLC5        0.0000 
     91 CA         52.1130   38.1650   41.5530 C.3      12 GLL5        0.0000 
     92 CA         49.9600   34.3050   41.2320 C.3       8 GLP5        0.0000 
     93 CA         53.5425   38.3025   39.8460 C.3       4 GLC5        0.0000 
     94 CA         42.9190   41.9965   46.7365 C.3       4 GLC5        0.0000 
     95 CA         44.0940   41.3820   48.4000 C.3      12 GLL5        0.0000 
     96 CA         41.7440   42.6110   45.0730 C.3       8 GLP5        0.0000 
     97 CA         42.1740   42.0905   48.8460 C.3       4 GLC5        0.0000 
     98 N          50.5440   34.2090   45.9210 N.am      2 SEC2        0.0000 
     99 N          50.5930   35.1960   47.1650 N.am     10 SEL2        0.0000 
    100 CA         43.7233   45.0015   50.1352 C.3       4 GLC5        0.0000 
    101 CA         42.7410   46.5770   49.6010 C.3       8 GLP5        0.0000 
    102 CA         44.1905   37.9785   47.2692 C.3       4 GLC5        0.0000 
    103 CA         44.6710   40.3200   47.4740 C.3      12 GLL5        0.0000 
    104 CA         44.2680   36.0150   47.4220 C.3       8 GLP5        0.0000 
    105 CA         45.2665   39.5355   45.3642 C.3       4 GLC5        0.0000 
    106 CA         46.4200   39.1290   43.6120 C.3       8 GLP5        0.0000 
    107 CA         43.5315   41.0835   45.6583 C.3       4 GLC5        0.0000 
    108 CA         42.9500   42.2250   44.2000 C.3       8 GLP5        0.0000 
    109 CA         51.3122   35.3930   42.4965 C.3       4 GLC5        0.0000 
    110 CA         52.3850   37.1390   42.6500 C.3      12 GLL5        0.0000 
    111 CA         49.9420   34.2950   42.6230 C.3       8 GLP5        0.0000 
    112 CA         45.1400   37.5480   47.7345 C.3       4 GLC5        0.0000 
    113 CA         48.9190   38.0312   37.0538 C.3       4 GLC5        0.0000 
    114 CA         48.3490   39.0140   35.3770 C.3       8 GLP5        0.0000 
    115 CA         51.3060   35.4203   38.7230 C.3       4 GLC5        0.0000 
    116 CA         50.1460   36.9660   38.5110 C.3      12 GLL5        0.0000 
    117 CA         51.9360   33.7140   38.5100 C.3       8 GLP5        0.0000 
    118 CA         51.2045   38.9958   38.9990 C.3       4 GLC5        0.0000 
    119 CA         51.7330   40.8650   39.0620 C.3       8 GLP5        0.0000 
    120 CA         51.4728   39.4399   40.1347 C.3       4 GLC5        0.0000 
    121 CA         50.9690   37.7710   40.6460 C.3      12 GLL5        0.0000 
@<TRIPOS>BOND
@<TRIPOS>SUBSTRUCTURE
     1 ALC1       68 GROUP        1 X    ALC  0     ROOT ALC X 1
     2 SEC2       36 GROUP        1 X    SEC  0     **** SEC X 2
     3 LYC4       31 GROUP        1 X    LYC  0     **** LYC X 4
     4 GLC5        1 GROUP        1 X    GLC  0     **** GLC X 6
     5 ALP1       70 GROUP        1 Y    ALP  0     ROOT ALP Y 8
     6 SEP2       38 GROUP        1 Y    SEP  0     **** SEP Y 9
     7 LYP4       33 GROUP        1 Y    LYP  0     **** LYP Y 11
     8 GLP5        3 GROUP        1 Y    GLP  0     **** GLP Y 13
     9 ALL1       69 GROUP        1 Z    ALL  0     ROOT ALL Z 15
    10 SEL2       37 GROUP        1 Z    SEL  0     **** SEL Z 16
    11 LYL4       32 GROUP        1 Z    LYL  0     **** LYL Z 18
    12 GLL5        2 GROUP        1 Z    GLL  0     **** GLL Z 20
@<TRIPOS>SET

