#    Name: 3vjc_ZGA_2_ligand
#    Modification time : Tue Mar 25 00:57:06 2014

@<TRIPOS>MOLECULE
3vjc_ZGA_2_ligand
   90    92     1     0     0
SMALL
NO_CHARGES


@<TRIPOS>ATOM
      1 CAA        54.8270   36.3370   44.9970 C.2       1 ZGA400      0.0000 
      2 CAB        45.1280   43.8670   51.1160 C.3       1 ZGA400      0.0000 
      3 CAC        56.6820   39.4590   42.8310 C.3       1 ZGA400      0.0000 
      4 CAD        43.5550   39.5640   46.7590 C.3       1 ZGA400      0.0000 
      5 CAE        46.0040   43.0020   48.3880 C.3       1 ZGA400      0.0000 
      6 CAF        52.9800   35.8430   42.0900 C.3       1 ZGA400      0.0000 
      7 OAG        55.0290   39.6320   44.5830 O.2       1 ZGA400      0.0000 
      8 OAH        47.0310   37.5310   49.7190 O.2       1 ZGA400      0.0000 
      9 OAI        52.6130   32.9040   50.6790 O.co2     1 ZGA400      0.0000 
     10 OAJ        48.2210   34.5240   50.7680 O.co2     1 ZGA400      0.0000 
     11 OAK        47.1580   34.5250   47.6830 O.co2     1 ZGA400      0.0000 
     12 OAL        50.6690   32.9990   51.6800 O.co2     1 ZGA400      0.0000 
     13 OAM        48.0700   32.5410   49.8450 O.co2     1 ZGA400      0.0000 
     14 OAN        48.4830   34.4710   45.9230 O.co2     1 ZGA400      0.0000 
     15 OAO        51.3280   37.6260   49.5440 O.3       1 ZGA400      0.0000 
     16 OAP        50.1290   32.8040   48.2980 O.3       1 ZGA400      0.0000 
     17 CAQ        46.5930   38.8610   47.8120 C.2       1 ZGA400      0.0000 
     18 CAR        45.4310   39.3010   48.2820 C.2       1 ZGA400      0.0000 
     19 CAS        48.8320   37.1310   38.9500 C.ar      1 ZGA400      0.0000 
     20 CAT        50.1460   36.9660   38.5110 C.ar      1 ZGA400      0.0000 
     21 CAU        48.5920   37.6400   40.2290 C.ar      1 ZGA400      0.0000 
     22 CAV        51.2060   37.2870   39.3610 C.ar      1 ZGA400      0.0000 
     23 CAW        49.6550   37.9580   41.0780 C.ar      1 ZGA400      0.0000 
     24 CAX        44.2830   42.9850   50.2230 C.3       1 ZGA400      0.0000 
     25 CAY        52.4310   36.6910   45.7440 C.3       1 ZGA400      0.0000 
     26 CAZ        52.8430   36.1740   47.1210 C.3       1 ZGA400      0.0000 
     27 CBA        52.1130   38.1650   41.5530 C.3       1 ZGA400      0.0000 
     28 CBB        44.0940   41.3820   48.4000 C.3       1 ZGA400      0.0000 
     29 OBC        54.5430   38.1320   42.9090 O.3       1 ZGA400      0.0000 
     30 OBD        48.4510   37.2410   47.8470 O.3       1 ZGA400      0.0000 
     31 OBE        51.9930   34.9830   49.0290 O.3       1 ZGA400      0.0000 
     32 OBF        50.5930   35.1960   47.1650 O.3       1 ZGA400      0.0000 
     33 CBG        55.3910   39.1330   43.5290 C.2       1 ZGA400      0.0000 
     34 CBH        47.3470   37.8490   48.5740 C.2       1 ZGA400      0.0000 
     35 CBI        53.6150   36.9050   44.8000 C.2       1 ZGA400      0.0000 
     36 CBJ        51.4620   33.3820   50.7970 C.2       1 ZGA400      0.0000 
     37 CBK        48.6130   33.6630   49.9450 C.2       1 ZGA400      0.0000 
     38 CBL        48.2770   34.6500   47.1430 C.2       1 ZGA400      0.0000 
     39 CBM        50.9690   37.7710   40.6460 C.ar      1 ZGA400      0.0000 
     40 CBN        44.6710   40.3200   47.4740 C.3       1 ZGA400      0.0000 
     41 CBO        45.1030   42.1350   49.2570 C.3       1 ZGA400      0.0000 
     42 CBP        52.3850   37.1390   42.6500 C.3       1 ZGA400      0.0000 
     43 CBQ        50.7660   37.0230   48.3820 C.3       1 ZGA400      0.0000 
     44 CBR        53.3500   37.8000   43.6280 C.3       1 ZGA400      0.0000 
     45 CBS        50.9660   34.4640   49.8770 C.3       1 ZGA400      0.0000 
     46 CBT        49.3690   36.4570   48.6030 C.3       1 ZGA400      0.0000 
     47 CBU        49.7800   33.9820   49.0360 C.3       1 ZGA400      0.0000 
     48 CBV        51.6060   35.8270   47.9400 C.3       1 ZGA400      0.0000 
     49 CBW        49.4500   35.0540   47.9990 C.3       1 ZGA400      0.0000 
     50 H          47.0164   39.1799   46.9370 H         1 ZGA400      0.0000 
     51 H          44.9987   39.0110   49.1489 H         1 ZGA400      0.0000 
     52 H          48.0491   36.8814   38.3406 H         1 ZGA400      0.0000 
     53 H          50.3329   36.6105   37.5681 H         1 ZGA400      0.0000 
     54 H          47.6231   37.7819   40.5485 H         1 ZGA400      0.0000 
     55 H          52.1771   37.1638   39.0323 H         1 ZGA400      0.0000 
     56 H          49.4697   38.3278   42.0161 H         1 ZGA400      0.0000 
     57 H          43.5894   43.6137   49.6415 H         1 ZGA400      0.0000 
     58 H          43.6672   42.3179   50.8477 H         1 ZGA400      0.0000 
     59 H          51.8937   37.6423   45.8643 H         1 ZGA400      0.0000 
     60 H          51.7341   35.9750   45.2861 H         1 ZGA400      0.0000 
     61 H          53.4138   36.9410   47.6359 H         1 ZGA400      0.0000 
     62 H          53.4579   35.2869   47.0017 H         1 ZGA400      0.0000 
     63 H          51.8897   39.1347   42.0218 H         1 ZGA400      0.0000 
     64 H          53.0263   38.2938   40.9536 H         1 ZGA400      0.0000 
     65 H          43.3449   40.9040   49.0683 H         1 ZGA400      0.0000 
     66 H          43.5256   42.1172   47.7895 H         1 ZGA400      0.0000 
     67 H          45.3128   40.7618   46.7582 H         1 ZGA400      0.0000 
     68 H          45.6790   41.4350   49.8111 H         1 ZGA400      0.0000 
     69 H          51.4694   36.9292   43.1629 H         1 ZGA400      0.0000 
     70 H          50.7183   37.7002   47.5427 H         1 ZGA400      0.0000 
     71 H          52.8618   38.7107   43.9846 H         1 ZGA400      0.0000 
     72 H          50.5704   35.2846   50.5163 H         1 ZGA400      0.0000 
     73 H          49.1694   36.3966   49.6129 H         1 ZGA400      0.0000 
     74 H          45.7575   43.3312   51.6788 H         1 ZGA400      0.0000 
     75 H          45.6823   44.5092   50.5865 H         1 ZGA400      0.0000 
     76 H          44.5664   44.4100   51.7403 H         1 ZGA400      0.0000 
     77 H          57.4758   39.2539   43.4035 H         1 ZGA400      0.0000 
     78 H          56.7885   38.9374   41.9845 H         1 ZGA400      0.0000 
     79 H          56.7384   40.4273   42.5877 H         1 ZGA400      0.0000 
     80 H          43.9158   38.8558   46.1521 H         1 ZGA400      0.0000 
     81 H          42.9402   39.1112   47.4048 H         1 ZGA400      0.0000 
     82 H          42.9941   40.1729   46.1980 H         1 ZGA400      0.0000 
     83 H          46.6464   43.5368   48.9369 H         1 ZGA400      0.0000 
     84 H          46.5474   42.4530   47.7529 H         1 ZGA400      0.0000 
     85 H          45.4774   43.6505   47.8383 H         1 ZGA400      0.0000 
     86 H          53.8488   36.0050   41.6221 H         1 ZGA400      0.0000 
     87 H          53.1561   35.1731   42.8113 H         1 ZGA400      0.0000 
     88 H          52.3679   35.4084   41.4294 H         1 ZGA400      0.0000 
     89 H          50.5480   38.0061   50.0412 H         1 ZGA400      0.0000 
     90 H          49.6911   32.0514   48.7899 H         1 ZGA400      0.0000 
@<TRIPOS>BOND
     1   35    1 2    
     2   24    2 1    
     3   74    2 1    
     4   75    2 1    
     5   76    2 1    
     6   33    3 1    
     7   77    3 1    
     8   78    3 1    
     9   79    3 1    
    10   40    4 1    
    11   80    4 1    
    12   81    4 1    
    13   82    4 1    
    14   41    5 1    
    15   83    5 1    
    16   84    5 1    
    17   85    5 1    
    18   42    6 1    
    19   86    6 1    
    20   87    6 1    
    21   88    6 1    
    22   33    7 2    
    23   34    8 2    
    24   36    9 ar   
    25   37   10 ar   
    26   38   11 ar   
    27   36   12 ar   
    28   37   13 ar   
    29   38   14 ar   
    30   43   15 1    
    31   89   15 1    
    32   47   16 1    
    33   90   16 1    
    34   18   17 2    
    35   34   17 1    
    36   50   17 1    
    37   40   18 1    
    38   51   18 1    
    39   20   19 ar   
    40   21   19 ar   
    41   52   19 1    
    42   22   20 ar   
    43   53   20 1    
    44   23   21 ar   
    45   54   21 1    
    46   39   22 ar   
    47   55   22 1    
    48   39   23 ar   
    49   56   23 1    
    50   41   24 1    
    51   57   24 1    
    52   58   24 1    
    53   26   25 1    
    54   35   25 1    
    55   59   25 1    
    56   60   25 1    
    57   48   26 1    
    58   61   26 1    
    59   62   26 1    
    60   39   27 1    
    61   42   27 1    
    62   63   27 1    
    63   64   27 1    
    64   40   28 1    
    65   41   28 1    
    66   65   28 1    
    67   66   28 1    
    68   33   29 1    
    69   44   29 1    
    70   34   30 1    
    71   46   30 1    
    72   45   31 1    
    73   48   31 1    
    74   48   32 1    
    75   49   32 1    
    76   44   35 1    
    77   45   36 1    
    78   47   37 1    
    79   49   38 1    
    80   67   40 1    
    81   68   41 1    
    82   44   42 1    
    83   69   42 1    
    84   46   43 1    
    85   48   43 1    
    86   70   43 1    
    87   71   44 1    
    88   47   45 1    
    89   72   45 1    
    90   49   46 1    
    91   73   46 1    
    92   49   47 1    
@<TRIPOS>SUBSTRUCTURE
     1 ZGA400      1 GROUP   
@<TRIPOS>SET

