#    Name: 3lxk_MI1_1_INTS_M
#    Modification time : Mon Mar 24 22:25:15 2014

@<TRIPOS>MOLECULE
3lxk_MI1_1_INTS_M
   61     0     9     0     0
SMALL
NO_CHARGES


@<TRIPOS>ATOM
      1 CA          2.8995   18.1385    4.2945 C.3       3 GLC5        0.0000 
      2 CA          1.7900   16.8120    5.5120 C.3       9 GLL5        0.0000 
      3 CA          4.0090   19.4650    3.0770 C.3       6 GLP5        0.0000 
      4 CA          4.8425   13.9600    7.5680 C.3       3 GLC5        0.0000 
      5 CA          5.3220   15.5240    6.0770 C.3       9 GLL5        0.0000 
      6 CA          4.3630   12.3960    9.0590 C.3       6 GLP5        0.0000 
      7 CA          8.0720   16.4690    6.0455 C.3       3 GLC5        0.0000 
      8 CA          6.4300   15.3090    5.1680 C.3       9 GLL5        0.0000 
      9 CA          9.7140   17.6290    6.9230 C.3       6 GLP5        0.0000 
     10 CA          7.2745   13.3825    4.8305 C.3       3 GLC5        0.0000 
     11 CA          8.1190   11.4560    4.4930 C.3       6 GLP5        0.0000 
     12 CA         -0.9790   18.0230    8.0485 C.3       3 GLC5        0.0000 
     13 CA         -0.2050   16.2060    7.7500 C.3       9 GLL5        0.0000 
     14 CA         -1.7530   19.8400    8.3470 C.3       6 GLP5        0.0000 
     15 CA         -0.1635   17.6615    2.7065 C.3       3 GLC5        0.0000 
     16 CA         -0.7470   17.6270    4.6020 C.3       9 GLL5        0.0000 
     17 CA          0.4200   17.6960    0.8110 C.3       6 GLP5        0.0000 
     18 CA         -1.2500   18.7335    6.4745 C.3       3 GLC5        0.0000 
     19 CA         -1.1610   15.5870    1.9960 C.3       3 GLC5        0.0000 
     20 CA         -1.3940   15.3750    4.1710 C.3       9 GLL5        0.0000 
     21 CA         -0.9280   15.7990   -0.1790 C.3       6 GLP5        0.0000 
     22 CA         -2.8965   15.1440    5.2620 C.3       3 GLC5        0.0000 
     23 CA         -4.3990   14.9130    6.3530 C.3       6 GLP5        0.0000 
     24 CA         -0.6485   12.4340    6.5740 C.3       3 GLC5        0.0000 
     25 CA         -0.3750   12.9580    4.4740 C.3       9 GLL5        0.0000 
     26 CA         -0.9220   11.9100    8.6740 C.3       6 GLP5        0.0000 
     27 CA         -1.6820   10.2425    4.8925 C.3       3 GLC5        0.0000 
     28 CA         -0.8250   11.7580    3.9870 C.3       9 GLL5        0.0000 
     29 CA         -2.5390    8.7270    5.7980 C.3       6 GLP5        0.0000 
     30 O          -2.7655   11.0045    2.6640 O.2       1 ALC1        0.0000 
     31 O          -1.9660   12.0070    3.2910 O.2       7 ALL1        0.0000 
     32 O          -3.5650   10.0020    2.0370 O.2       4 ALP1        0.0000 
     33 CA         -1.5840   14.5685    1.5640 C.3       3 GLC5        0.0000 
     34 CA         -2.2400   13.3380    3.3070 C.3       9 GLL5        0.0000 
     35 CA         -3.7135   12.4955    1.8835 C.3       3 GLC5        0.0000 
     36 CA         -5.1870   11.6530    0.4600 C.3       6 GLP5        0.0000 
     37 N          -4.7930   13.3805    2.4520 N.am      2 SEC2        0.0000 
     38 N          -3.2950   13.8650    2.6890 N.am      8 SEL2        0.0000 
     39 N          -6.2910   12.8960    2.2150 N.am      5 SEP2        0.0000 
     40 CA         -2.1130   15.4910    1.3520 C.3       3 GLC5        0.0000 
     41 CA         -3.2980   15.1830    2.8830 C.3       9 GLL5        0.0000 
     42 CA         -5.3400   14.3020    2.9415 C.3       3 GLC5        0.0000 
     43 CA         -7.3820   13.4210    3.0000 C.3       6 GLP5        0.0000 
     44 CA         -3.8485   15.0480    4.6180 C.3       3 GLC5        0.0000 
     45 CA          2.0805   15.3675    9.5633 C.3       3 GLC5        0.0000 
     46 CA          1.7000   14.6620    7.4460 C.3       9 GLL5        0.0000 
     47 CA          1.9070   15.5570   11.6890 C.3       6 GLP5        0.0000 
     48 CA          3.3085   13.7870    8.2482 C.3       3 GLC5        0.0000 
     49 CA          6.7365   17.0557    4.7873 C.3       3 GLC5        0.0000 
     50 CA          7.5970   18.6950    3.9520 C.3       6 GLP5        0.0000 
     51 CA          4.9885   14.5757    4.2097 C.3       3 GLC5        0.0000 
     52 CA          4.1010   13.7350    2.7970 C.3       6 GLP5        0.0000 
     53 CA         -0.2469   13.7366    8.0562 C.3       3 GLC5        0.0000 
     54 CA          0.6760   13.6675    2.7193 C.3       3 GLC5        0.0000 
     55 CA          2.1740   13.8620    1.1810 C.3       6 GLP5        0.0000 
     56 CA          0.8485   11.1030    3.5348 C.3       3 GLC5        0.0000 
     57 CA          2.2970    9.8480    2.8390 C.3       6 GLP5        0.0000 
     58 CA         -1.2704   12.4294    2.0233 C.3       3 GLC5        0.0000 
     59 CA         -1.0090   11.8820    0.3320 C.3       6 GLP5        0.0000 
     60 CA         -2.6984   12.6989    4.9753 C.3       3 GLC5        0.0000 
     61 CA         -3.8650   12.4210    6.2360 C.3       6 GLP5        0.0000 
@<TRIPOS>BOND
@<TRIPOS>SUBSTRUCTURE
     1 ALC1       30 GROUP        1 X    ALC  0     ROOT ALC X 1
     2 SEC2       37 GROUP        1 X    SEC  0     **** SEC X 2
     3 GLC5        1 GROUP        1 X    GLC  0     **** GLC X 6
     4 ALP1       32 GROUP        1 Y    ALP  0     ROOT ALP Y 8
     5 SEP2       39 GROUP        1 Y    SEP  0     **** SEP Y 9
     6 GLP5        3 GROUP        1 Y    GLP  0     **** GLP Y 13
     7 ALL1       31 GROUP        1 Z    ALL  0     ROOT ALL Z 15
     8 SEL2       38 GROUP        1 Z    SEL  0     **** SEL Z 16
     9 GLL5        2 GROUP        1 Z    GLL  0     **** GLL Z 20
@<TRIPOS>SET

