#    Name: 3lxk_MI1_1_ligand
#    Modification time : Mon Mar 24 22:25:15 2014

@<TRIPOS>MOLECULE
3lxk_MI1_1_ligand
   43    45     1     0     0
SMALL
NO_CHARGES


@<TRIPOS>ATOM
      1 C1          0.7260   15.7350    5.4100 C.3       1 MI11125     0.0000 
      2 C2          1.7900   16.8120    5.5120 C.3       1 MI11125     0.0000 
      3 C4          2.8080   15.6940    7.4290 C.3       1 MI11125     0.0000 
      4 C5          1.7000   14.6620    7.4460 C.3       1 MI11125     0.0000 
      5 C6          0.4230   15.1790    6.8080 C.3       1 MI11125     0.0000 
      6 N3          2.9870   16.2430    6.1130 N.am      1 MI11125     0.0000 
      7 O21         4.2210   16.5720    4.2380 O.2       1 MI11125     0.0000 
      8 C20         4.1440   16.1520    5.3790 C.2       1 MI11125     0.0000 
      9 C22         5.3220   15.5240    6.0770 C.3       1 MI11125     0.0000 
     10 C23         6.4300   15.3090    5.1680 C.1       1 MI11125     0.0000 
     11 N24         7.2990   15.0780    4.4380 N.1       1 MI11125     0.0000 
     12 C7         -0.2050   16.2060    7.7500 C.3       1 MI11125     0.0000 
     13 N8         -0.5650   16.2350    4.9240 N.3       1 MI11125     0.0000 
     14 C9         -0.7470   17.6270    4.6020 C.3       1 MI11125     0.0000 
     15 C10        -1.3940   15.3750    4.1710 C.ar      1 MI11125     0.0000 
     16 C15        -1.2690   13.9880    4.0410 C.ar      1 MI11125     0.0000 
     17 C16        -0.3750   12.9580    4.4740 C.2       1 MI11125     0.0000 
     18 C11        -0.8250   11.7580    3.9870 C.2       1 MI11125     0.0000 
     19 N12        -1.9660   12.0070    3.2910 N.pl3     1 MI11125     0.0000 
     20 C14        -2.2400   13.3380    3.3070 C.ar      1 MI11125     0.0000 
     21 N17        -3.2950   13.8650    2.6890 N.ar      1 MI11125     0.0000 
     22 C18        -3.2980   15.1830    2.8830 C.ar      1 MI11125     0.0000 
     23 N19        -2.4480   15.9530    3.5690 N.ar      1 MI11125     0.0000 
     24 H           1.0691   14.9250    4.8084 H         1 MI11125     0.0000 
     25 H           1.3982   17.6298    6.1187 H         1 MI11125     0.0000 
     26 H           1.9971   17.1905    4.5099 H         1 MI11125     0.0000 
     27 H           3.7315   15.2103    7.7875 H         1 MI11125     0.0000 
     28 H           2.5534   16.4813    8.1575 H         1 MI11125     0.0000 
     29 H           1.4914   14.3714    8.4834 H         1 MI11125     0.0000 
     30 H           2.0324   13.7646    6.9089 H         1 MI11125     0.0000 
     31 H          -0.2609   14.3404    6.7083 H         1 MI11125     0.0000 
     32 H           4.9939   14.5701    6.5246 H         1 MI11125     0.0000 
     33 H           5.6236   16.1807    6.9111 H         1 MI11125     0.0000 
     34 H           0.3910   13.1143    5.0077 H         1 MI11125     0.0000 
     35 H          -0.4102   10.9107    4.1161 H         1 MI11125     0.0000 
     36 H          -2.5065   11.3317    2.8470 H         1 MI11125     0.0000 
     37 H          -4.1409   15.7307    2.3978 H         1 MI11125     0.0000 
     38 H           0.3936   16.9944    7.8922 H         1 MI11125     0.0000 
     39 H          -1.0712   16.5562    7.3934 H         1 MI11125     0.0000 
     40 H          -0.3952   15.8161    8.6510 H         1 MI11125     0.0000 
     41 H          -0.5840   18.2157    5.3937 H         1 MI11125     0.0000 
     42 H          -0.1223   17.9261    3.8807 H         1 MI11125     0.0000 
     43 H          -1.6756   17.8160    4.2825 H         1 MI11125     0.0000 
@<TRIPOS>BOND
     1    2    1 1    
     2    5    1 1    
     3   13    1 1    
     4   24    1 1    
     5    6    2 1    
     6   25    2 1    
     7   26    2 1    
     8    4    3 1    
     9    6    3 1    
    10   27    3 1    
    11   28    3 1    
    12    5    4 1    
    13   29    4 1    
    14   30    4 1    
    15   12    5 1    
    16   31    5 1    
    17    8    6 am   
    18    8    7 2    
    19    9    8 1    
    20   10    9 1    
    21   32    9 1    
    22   33    9 1    
    23   11   10 3    
    24   38   12 1    
    25   39   12 1    
    26   40   12 1    
    27   14   13 1    
    28   15   13 1    
    29   41   14 1    
    30   42   14 1    
    31   43   14 1    
    32   16   15 ar   
    33   23   15 ar   
    34   17   16 1    
    35   20   16 ar   
    36   18   17 2    
    37   34   17 1    
    38   19   18 1    
    39   35   18 1    
    40   20   19 1    
    41   36   19 1    
    42   21   20 ar   
    43   22   21 ar   
    44   23   22 ar   
    45   37   22 1    
@<TRIPOS>SUBSTRUCTURE
     1 MI11125     1 GROUP   
@<TRIPOS>SET

