#    Name: 2l98_STL_1_INTS_M
#    Modification time : Tue Mar 25 21:16:54 2014

@<TRIPOS>MOLECULE
2l98_STL_1_INTS_M
   18     0     3     0     0
SMALL
NO_CHARGES


@<TRIPOS>ATOM
      1 CA          9.2390   11.5175   -5.8105 C.3       1 GLC5        0.0000 
      2 CA         10.0860   12.6830   -4.2500 C.3       3 GLL5        0.0000 
      3 CA          8.3920   10.3520   -7.3710 C.3       2 GLP5        0.0000 
      4 CA          7.4295   12.5945   -4.7875 C.3       1 GLC5        0.0000 
      5 CA          8.9780   13.1850   -3.5440 C.3       3 GLL5        0.0000 
      6 CA          5.8810   12.0040   -6.0310 C.3       2 GLP5        0.0000 
      7 CA          7.1645   12.8215   -1.3520 C.3       1 GLC5        0.0000 
      8 CA          6.6960   13.7790   -3.2560 C.3       3 GLL5        0.0000 
      9 CA          7.6330   11.8640    0.5520 C.3       2 GLP5        0.0000 
     10 CA         11.9591   13.6671   -4.4320 C.3       1 GLC5        0.0000 
     11 CA         11.1720   12.0350   -3.6750 C.3       3 GLL5        0.0000 
     12 CA         13.0930   14.9950   -5.1350 C.3       2 GLP5        0.0000 
     13 CA          8.2067   14.4910   -7.0385 C.3       1 GLC5        0.0000 
     14 CA          7.8860   14.5780   -5.2630 C.3       3 GLL5        0.0000 
     15 CA          9.1110   14.0660   -8.5980 C.3       2 GLP5        0.0000 
     16 CA          5.8456   16.7171   -4.6831 C.3       1 GLC5        0.0000 
     17 CA          6.7190   15.2540   -5.6950 C.3       3 GLL5        0.0000 
     18 CA          5.8550   18.6050   -4.8820 C.3       2 GLP5        0.0000 
@<TRIPOS>BOND
@<TRIPOS>SUBSTRUCTURE
     1 GLC5        1 GROUP        1 X    GLC  0     ROOT GLC X 6
     2 GLP5        3 GROUP        1 Y    GLP  0     ROOT GLP Y 13
     3 GLL5        2 GROUP        1 Z    GLL  0     ROOT GLL Z 20
@<TRIPOS>SET

