#    Name: 2l98_STL_1_ligand
#    Modification time : Tue Mar 25 21:16:54 2014

@<TRIPOS>MOLECULE
2l98_STL_1_ligand
   29    30     1     0     0
SMALL
NO_CHARGES


@<TRIPOS>ATOM
      1 C1         12.7300   11.8610   -1.7970 C.ar      1 STL162      0.0000 
      2 C2         13.3170   10.7280   -2.3930 C.ar      1 STL162      0.0000 
      3 C3         12.8400   10.2530   -3.6240 C.ar      1 STL162      0.0000 
      4 C4         11.7720   10.9100   -4.2650 C.ar      1 STL162      0.0000 
      5 C5         11.1720   12.0350   -3.6750 C.ar      1 STL162      0.0000 
      6 C6         11.6570   12.5180   -2.4460 C.ar      1 STL162      0.0000 
      7 C7         10.0860   12.6830   -4.2500 C.2       1 STL162      0.0000 
      8 C8          8.9780   13.1850   -3.5440 C.2       1 STL162      0.0000 
      9 C9          7.8680   13.8500   -4.0490 C.ar      1 STL162      0.0000 
     10 C10         7.8860   14.5780   -5.2630 C.ar      1 STL162      0.0000 
     11 C11         6.7190   15.2540   -5.6950 C.ar      1 STL162      0.0000 
     12 C12         5.5600   15.1730   -4.8880 C.ar      1 STL162      0.0000 
     13 C13         5.5330   14.4450   -3.6770 C.ar      1 STL162      0.0000 
     14 C14         6.6960   13.7790   -3.2560 C.ar      1 STL162      0.0000 
     15 O1          4.4330   15.8130   -5.2900 O.3       1 STL162      0.0000 
     16 O2         13.4000    9.1600   -4.2060 O.3       1 STL162      0.0000 
     17 O3         13.1880   12.3230   -0.6100 O.3       1 STL162      0.0000 
     18 H          14.0935   10.2515   -1.9251 H         1 STL162      0.0000 
     19 H          11.4310   10.5638   -5.1685 H         1 STL162      0.0000 
     20 H          11.2361   13.3454   -2.0172 H         1 STL162      0.0000 
     21 H          10.0860   12.8127   -5.3041 H         1 STL162      0.0000 
     22 H           8.9989   13.0303   -2.4707 H         1 STL162      0.0000 
     23 H           8.7350   14.6156   -5.8238 H         1 STL162      0.0000 
     24 H           6.7150   15.7790   -6.5552 H         1 STL162      0.0000 
     25 H           4.6837   14.4062   -3.1222 H         1 STL162      0.0000 
     26 H           6.7022   13.2473   -2.3874 H         1 STL162      0.0000 
     27 H           5.0104   16.3904   -4.7126 H         1 STL162      0.0000 
     28 H          12.9877    9.0558   -3.3008 H         1 STL162      0.0000 
     29 H          13.7654   12.9004   -0.0326 H         1 STL162      0.0000 
@<TRIPOS>BOND
     1    2    1 ar   
     2    6    1 ar   
     3   17    1 1    
     4    3    2 ar   
     5   18    2 1    
     6    4    3 ar   
     7   16    3 1    
     8    5    4 ar   
     9   19    4 1    
    10    6    5 ar   
    11    7    5 1    
    12   20    6 1    
    13    8    7 2    
    14   21    7 1    
    15    9    8 1    
    16   22    8 1    
    17   10    9 ar   
    18   14    9 ar   
    19   11   10 ar   
    20   23   10 1    
    21   12   11 ar   
    22   24   11 1    
    23   13   12 ar   
    24   15   12 1    
    25   14   13 ar   
    26   25   13 1    
    27   26   14 1    
    28   27   15 1    
    29   28   16 1    
    30   29   17 1    
@<TRIPOS>SUBSTRUCTURE
     1 STL162      1 GROUP   
@<TRIPOS>SET

