#    Name: 1umk_FAD_1_INTS_M
#    Modification time : Tue Mar 25 06:44:18 2014

@<TRIPOS>MOLECULE
1umk_FAD_1_INTS_M
   98     0    12     0     0
SMALL
NO_CHARGES


@<TRIPOS>ATOM
      1 N          65.6755   47.5210  -11.9800 N.am      2 SEC2        0.0000 
      2 N          66.0760   48.8970  -11.1380 N.am     10 SEL2        0.0000 
      3 N          65.2750   46.1450  -12.8220 N.am      6 SEP2        0.0000 
      4 N          65.2245   50.0655  -11.5055 N.am      2 SEC2        0.0000 
      5 N          64.3730   51.2340  -11.8730 N.am      6 SEP2        0.0000 
      6 NZ         65.5845   46.4770  -11.2745 N.4       3 LYC4        0.0000 
      7 NZ         65.8940   46.8090   -9.7270 N.4      11 LYL4        0.0000 
      8 NZ         64.3320   45.2570  -12.5320 N.4       7 LYP4        0.0000 
      9 N          64.7175   46.1355  -10.6060 N.am      2 SEC2        0.0000 
     10 N          65.8940   46.8090   -9.7270 N.am     10 SEL2        0.0000 
     11 N          63.5410   45.4620  -11.4850 N.am      6 SEP2        0.0000 
     12 N          65.5845   46.4770  -11.2745 N.am      2 SEC2        0.0000 
     13 CA         65.9800   50.5955   -8.6060 C.3       4 GLC5        0.0000 
     14 CA         66.8890   49.0930   -7.4900 C.3      12 GLL5        0.0000 
     15 CA         65.0710   52.0980   -9.7220 C.3       8 GLP5        0.0000 
     16 CA         66.3845   49.7415   -4.0160 C.3       4 GLC5        0.0000 
     17 CA         67.8450   48.6250   -5.2440 C.3      12 GLL5        0.0000 
     18 CA         64.9240   50.8580   -2.7880 C.3       8 GLP5        0.0000 
     19 CA         70.9260   51.2760   -6.4025 C.3       4 GLC5        0.0000 
     20 CA         69.5350   50.2340   -5.7980 C.3      12 GLL5        0.0000 
     21 CA         72.3170   52.3180   -7.0070 C.3       8 GLP5        0.0000 
     22 O          66.8495   56.6645   -5.6415 O.2       1 ALC1        0.0000 
     23 O          67.1000   55.6610   -4.7020 O.2       9 ALL1        0.0000 
     24 O          66.5990   57.6680   -6.5810 O.2       5 ALP1        0.0000 
     25 CA         69.9740   54.6625   -3.2260 C.3       4 GLC5        0.0000 
     26 CA         68.5560   53.2300   -2.4810 C.3      12 GLL5        0.0000 
     27 CA         71.3920   56.0950   -3.9710 C.3       8 GLP5        0.0000 
     28 N          57.3795   49.3940   -3.6235 N.am      2 SEC2        0.0000 
     29 N          57.4910   47.9620   -4.0330 N.am     10 SEL2        0.0000 
     30 N          57.2680   50.8260   -3.2140 N.am      6 SEP2        0.0000 
     31 O          55.0285   47.0900   -3.3155 O.2       1 ALC1        0.0000 
     32 O          56.0470   46.2840   -3.5780 O.2       9 ALL1        0.0000 
     33 O          54.0100   47.8960   -3.0530 O.2       5 ALP1        0.0000 
     34 N          54.6650   43.5175   -2.1505 N.am      2 SEC2        0.0000 
     35 N          54.6910   44.5230   -3.1360 N.am     10 SEL2        0.0000 
     36 N          54.6390   42.5120   -1.1650 N.am      6 SEP2        0.0000 
     37 N          55.1560   42.0800   -4.3910 N.am      2 SEC2        0.0000 
     38 N          56.5930   42.6780   -3.7500 N.am     10 SEL2        0.0000 
     39 N          53.7190   41.4820   -5.0320 N.am      6 SEP2        0.0000 
     40 CA         55.2135   40.2355   -3.5675 C.3       4 GLC5        0.0000 
     41 CA         57.3510   40.4230   -3.9830 C.3      12 GLL5        0.0000 
     42 CA         53.0760   40.0480   -3.1520 C.3       8 GLP5        0.0000 
     43 CA         56.7630   37.4090   -5.8065 C.3       4 GLC5        0.0000 
     44 CA         58.0220   38.0440   -4.2880 C.3      12 GLL5        0.0000 
     45 CA         55.5040   36.7740   -7.3250 C.3       8 GLP5        0.0000 
     46 CA         58.6400   36.7895   -2.8410 C.3       4 GLC5        0.0000 
     47 CA         59.2580   35.5350   -1.3940 C.3       8 GLP5        0.0000 
     48 CA         60.1425   44.3530   -8.7775 C.3       4 GLC5        0.0000 
     49 CA         60.3440   44.4580   -6.5490 C.3      12 GLL5        0.0000 
     50 CA         59.9410   44.2480  -11.0060 C.3       8 GLP5        0.0000 
     51 CA         58.7700   45.3130   -7.0170 C.3       4 GLC5        0.0000 
     52 CA         57.1960   46.1680   -7.4850 C.3       8 GLP5        0.0000 
     53 O          59.0535   42.8210   -7.3355 O.2       1 ALC1        0.0000 
     54 O          60.3330   43.2390   -7.2460 O.2       9 ALL1        0.0000 
     55 O          57.7740   42.4030   -7.4250 O.2       5 ALP1        0.0000 
     56 CA         61.9925   44.9300   -9.0630 C.3       4 GLC5        0.0000 
     57 CA         61.5150   45.2940   -7.0690 C.3      12 GLL5        0.0000 
     58 CA         62.4700   44.5660  -11.0570 C.3       8 GLP5        0.0000 
     59 CA         59.5320   45.7265   -7.9450 C.3       4 GLC5        0.0000 
     60 CA         57.5490   46.1590   -8.8210 C.3       8 GLP5        0.0000 
     61 CA         59.3265   46.4650   -7.0580 C.3       4 GLC5        0.0000 
     62 CA         61.4570   46.7620   -6.6310 C.3      12 GLL5        0.0000 
     63 N          59.4185   47.1720   -8.1850 N.am      2 SEC2        0.0000 
     64 N          60.2750   47.3660   -7.1150 N.am     10 SEL2        0.0000 
     65 N          58.5620   46.9780   -9.2550 N.am      6 SEP2        0.0000 
     66 NZ         63.3285   46.8570  -11.1990 N.4       3 LYC4        0.0000 
     67 NZ         63.1160   48.2520  -10.9130 N.4      11 LYL4        0.0000 
     68 N          63.3285   46.8570  -11.1990 N.am      2 SEC2        0.0000 
     69 N          63.1160   48.2520  -10.9130 N.am     10 SEL2        0.0000 
     70 N          62.3885   49.1480  -11.7560 N.am      2 SEC2        0.0000 
     71 N          61.6610   50.0440  -12.5990 N.am      6 SEP2        0.0000 
     72 N          61.1825   50.4175   -9.7910 N.am      2 SEC2        0.0000 
     73 N          62.3050   49.8830   -9.1930 N.am     10 SEL2        0.0000 
     74 N          60.0600   50.9520  -10.3890 N.am      6 SEP2        0.0000 
     75 N          61.8810   51.0125   -8.6545 N.am      2 SEC2        0.0000 
     76 N          61.4570   52.1420   -8.1160 N.am      6 SEP2        0.0000 
     77 CA         69.6732   55.0915   -4.3548 C.3       4 GLC5        0.0000 
     78 CA         68.1300   53.5830   -5.1870 C.3      12 GLL5        0.0000 
     79 CA         70.0488   53.2982   -6.2065 C.3       4 GLC5        0.0000 
     80 CA         71.6860   53.6050   -7.4640 C.3       8 GLP5        0.0000 
     81 CA         66.4419   53.1185   -5.3254 C.3       4 GLC5        0.0000 
     82 CA         64.5600   52.9930   -5.9260 C.3       8 GLP5        0.0000 
     83 CA         56.2428   41.6887   -5.4655 C.3       4 GLC5        0.0000 
     84 CA         57.6040   41.7900   -4.0630 C.3      12 GLL5        0.0000 
     85 CA         55.0080   42.2710   -6.9080 C.3       8 GLP5        0.0000 
     86 CA         58.2835   39.1707   -6.3885 C.3       4 GLC5        0.0000 
     87 CA         58.3560   39.5090   -4.2960 C.3      12 GLL5        0.0000 
     88 CA         58.3780   39.5650   -8.4850 C.3       8 GLP5        0.0000 
     89 CA         59.1310   39.0527   -2.4025 C.3       4 GLC5        0.0000 
     90 CA         60.0730   39.3290   -0.5130 C.3       8 GLP5        0.0000 
     91 CA         57.1139   38.8775   -2.4739 C.3       4 GLC5        0.0000 
     92 CA         56.2900   38.7500   -0.7340 C.3       8 GLP5        0.0000 
     93 CA         60.1330   39.4080   -2.6630 C.3       4 GLC5        0.0000 
     94 CA         59.6240   39.9640   -4.6830 C.3      12 GLL5        0.0000 
     95 CA         59.9155   40.2122   -6.5408 C.3       4 GLC5        0.0000 
     96 CA         59.8000   40.0160   -8.2950 C.3       8 GLP5        0.0000 
     97 CA         62.6548   48.5077   -5.5468 C.3       4 GLC5        0.0000 
     98 CA         63.2550   49.8550   -4.2030 C.3       8 GLP5        0.0000 
@<TRIPOS>BOND
@<TRIPOS>SUBSTRUCTURE
     1 ALC1       22 GROUP        1 X    ALC  0     ROOT ALC X 1
     2 SEC2        1 GROUP        1 X    SEC  0     **** SEC X 2
     3 LYC4        6 GROUP        1 X    LYC  0     **** LYC X 4
     4 GLC5       13 GROUP        1 X    GLC  0     **** GLC X 6
     5 ALP1       24 GROUP        1 Y    ALP  0     ROOT ALP Y 8
     6 SEP2        3 GROUP        1 Y    SEP  0     **** SEP Y 9
     7 LYP4        8 GROUP        1 Y    LYP  0     **** LYP Y 11
     8 GLP5       15 GROUP        1 Y    GLP  0     **** GLP Y 13
     9 ALL1       23 GROUP        1 Z    ALL  0     ROOT ALL Z 15
    10 SEL2        2 GROUP        1 Z    SEL  0     **** SEL Z 16
    11 LYL4        7 GROUP        1 Z    LYL  0     **** LYL Z 18
    12 GLL5       14 GROUP        1 Z    GLL  0     **** GLL Z 20
@<TRIPOS>SET

