#    Name: 1umk_FAD_1_ligand
#    Modification time : Tue Mar 25 06:44:18 2014

@<TRIPOS>MOLECULE
1umk_FAD_1_ligand
   84    89     1     0     0
SMALL
NO_CHARGES


@<TRIPOS>ATOM
      1 PA         65.9230   48.3480   -9.7680 P.3       1 FAD1301     0.0000 
      2 O1A        66.0760   48.8970  -11.1380 O.co2     1 FAD1301     0.0000 
      3 O2A        65.8940   46.8090   -9.7270 O.co2     1 FAD1301     0.0000 
      4 O5B        67.1210   48.8970   -8.8590 O.3       1 FAD1301     0.0000 
      5 C5B        66.8890   49.0930   -7.4900 C.3       1 FAD1301     0.0000 
      6 C4B        68.1180   48.6320   -6.7370 C.3       1 FAD1301     0.0000 
      7 O4B        69.1650   49.5560   -6.9850 O.3       1 FAD1301     0.0000 
      8 C3B        67.8450   48.6250   -5.2440 C.3       1 FAD1301     0.0000 
      9 O3B        67.7510   47.3090   -4.7420 O.3       1 FAD1301     0.0000 
     10 C2B        69.0300   49.3590   -4.6590 C.3       1 FAD1301     0.0000 
     11 O2B        70.0260   48.4230   -4.3230 O.3       1 FAD1301     0.0000 
     12 C1B        69.5350   50.2340   -5.7980 C.3       1 FAD1301     0.0000 
     13 N9A        68.9340   51.5890   -5.7980 N.pl3     1 FAD1301     0.0000 
     14 C8A        68.5230   52.2810   -6.9120 C.2       1 FAD1301     0.0000 
     15 N7A        68.0380   53.4850   -6.5310 N.2       1 FAD1301     0.0000 
     16 C5A        68.1300   53.5830   -5.1870 C.ar      1 FAD1301     0.0000 
     17 C6A        67.7790   54.5930   -4.2900 C.ar      1 FAD1301     0.0000 
     18 N6A        67.1000   55.6610   -4.7020 N.pl3     1 FAD1301     0.0000 
     19 N1A        67.9950   54.4070   -2.9370 N.ar      1 FAD1301     0.0000 
     20 C2A        68.5560   53.2300   -2.4810 C.ar      1 FAD1301     0.0000 
     21 N3A        68.9010   52.2340   -3.3770 N.ar      1 FAD1301     0.0000 
     22 C4A        68.6930   52.4000   -4.7110 C.ar      1 FAD1301     0.0000 
     23 N1         58.2960   45.8730   -4.2800 N.2       1 FAD1301     0.0000 
     24 C2         57.2850   46.7540   -3.9650 C.2       1 FAD1301     0.0000 
     25 O2         57.4910   47.9620   -4.0330 O.2       1 FAD1301     0.0000 
     26 N3         56.0470   46.2840   -3.5780 N.am      1 FAD1301     0.0000 
     27 C4         55.8030   44.9280   -3.5010 C.2       1 FAD1301     0.0000 
     28 O4         54.6910   44.5230   -3.1360 O.2       1 FAD1301     0.0000 
     29 C4X        56.8250   44.0320   -3.8220 C.2       1 FAD1301     0.0000 
     30 N5         56.5930   42.6780   -3.7500 N.2       1 FAD1301     0.0000 
     31 C5X        57.6040   41.7900   -4.0630 C.ar      1 FAD1301     0.0000 
     32 C6         57.3510   40.4230   -3.9830 C.ar      1 FAD1301     0.0000 
     33 C7         58.3560   39.5090   -4.2960 C.ar      1 FAD1301     0.0000 
     34 C7M        58.0220   38.0440   -4.2880 C.3       1 FAD1301     0.0000 
     35 C8         59.6240   39.9640   -4.6830 C.ar      1 FAD1301     0.0000 
     36 C8M        60.7620   39.0100   -4.9430 C.3       1 FAD1301     0.0000 
     37 C9         59.8690   41.3300   -4.7600 C.ar      1 FAD1301     0.0000 
     38 C9A        58.8670   42.2550   -4.4540 C.ar      1 FAD1301     0.0000 
     39 N10        59.1050   43.6240   -4.5380 N.pl3     1 FAD1301     0.0000 
     40 C10        58.0820   44.5080   -4.2140 C.2       1 FAD1301     0.0000 
     41 C1'        60.4200   44.1520   -5.0500 C.3       1 FAD1301     0.0000 
     42 C2'        60.3440   44.4580   -6.5490 C.3       1 FAD1301     0.0000 
     43 O2'        60.3330   43.2390   -7.2460 O.3       1 FAD1301     0.0000 
     44 C3'        61.5150   45.2940   -7.0690 C.3       1 FAD1301     0.0000 
     45 O3'        62.7240   44.7050   -6.6420 O.3       1 FAD1301     0.0000 
     46 C4'        61.4570   46.7620   -6.6310 C.3       1 FAD1301     0.0000 
     47 O4'        60.2750   47.3660   -7.1150 O.3       1 FAD1301     0.0000 
     48 C5'        62.6520   47.5590   -7.1500 C.3       1 FAD1301     0.0000 
     49 O5'        62.7360   47.3990   -8.5500 O.3       1 FAD1301     0.0000 
     50 P          63.1450   48.6380   -9.4910 P.3       1 FAD1301     0.0000 
     51 O1P        63.1160   48.2520  -10.9130 O.co2     1 FAD1301     0.0000 
     52 O2P        62.3050   49.8830   -9.1930 O.co2     1 FAD1301     0.0000 
     53 O3P        64.6400   48.9740   -9.0270 O.3       1 FAD1301     0.0000 
     54 H          66.0355   48.5143   -7.1253 H         1 FAD1301     0.0000 
     55 H          66.7191   50.1449   -7.2429 H         1 FAD1301     0.0000 
     56 H          68.3746   47.6477   -7.0491 H         1 FAD1301     0.0000 
     57 H          66.9707   49.2149   -5.0684 H         1 FAD1301     0.0000 
     58 H          68.7144   49.9649   -3.8707 H         1 FAD1301     0.0000 
     59 H          70.6051   50.2981   -5.7196 H         1 FAD1301     0.0000 
     60 H          68.5770   51.9501   -7.8164 H         1 FAD1301     0.0000 
     61 H          66.2066   55.8055   -4.2765 H         1 FAD1301     0.0000 
     62 H          67.5444   56.2226   -5.3999 H         1 FAD1301     0.0000 
     63 H          68.7182   53.0926   -1.4717 H         1 FAD1301     0.0000 
     64 H          55.2935   46.9551   -3.3430 H         1 FAD1301     0.0000 
     65 H          56.4243   40.0875   -3.6935 H         1 FAD1301     0.0000 
     66 H          60.8016   41.6689   -5.0465 H         1 FAD1301     0.0000 
     67 H          61.2061   43.4137   -4.8810 H         1 FAD1301     0.0000 
     68 H          60.6839   45.0674   -4.5169 H         1 FAD1301     0.0000 
     69 H          59.4273   45.0102   -6.7335 H         1 FAD1301     0.0000 
     70 H          61.4600   45.2783   -8.1680 H         1 FAD1301     0.0000 
     71 H          61.4879   46.7893   -5.5456 H         1 FAD1301     0.0000 
     72 H          63.5450   47.1886   -6.6358 H         1 FAD1301     0.0000 
     73 H          62.5033   48.6044   -6.8602 H         1 FAD1301     0.0000 
     74 H          58.8141   37.4812   -4.5243 H         1 FAD1301     0.0000 
     75 H          57.7043   37.7404   -3.3897 H         1 FAD1301     0.0000 
     76 H          57.3000   37.8241   -4.9440 H         1 FAD1301     0.0000 
     77 H          61.5957   39.4914   -5.2137 H         1 FAD1301     0.0000 
     78 H          60.9859   38.4692   -4.1322 H         1 FAD1301     0.0000 
     79 H          60.5454   38.3644   -5.6753 H         1 FAD1301     0.0000 
     80 H          68.6513   47.1161   -4.3518 H         1 FAD1301     0.0000 
     81 H          70.6138   48.3697   -5.1302 H         1 FAD1301     0.0000 
     82 H          59.3711   42.9672   -7.2766 H         1 FAD1301     0.0000 
     83 H          63.3647   44.8546   -7.3951 H         1 FAD1301     0.0000 
     84 H          60.4610   48.3484   -7.0984 H         1 FAD1301     0.0000 
@<TRIPOS>BOND
     1    2    1 ar   
     2    3    1 ar   
     3    4    1 1    
     4   53    1 1    
     5    5    4 1    
     6    6    5 1    
     7   54    5 1    
     8   55    5 1    
     9    7    6 1    
    10    8    6 1    
    11   56    6 1    
    12   12    7 1    
    13    9    8 1    
    14   10    8 1    
    15   57    8 1    
    16   80    9 1    
    17   11   10 1    
    18   12   10 1    
    19   58   10 1    
    20   81   11 1    
    21   13   12 1    
    22   59   12 1    
    23   14   13 1    
    24   22   13 1    
    25   15   14 2    
    26   60   14 1    
    27   16   15 1    
    28   17   16 ar   
    29   22   16 ar   
    30   18   17 1    
    31   19   17 ar   
    32   61   18 1    
    33   62   18 1    
    34   20   19 ar   
    35   21   20 ar   
    36   63   20 1    
    37   22   21 ar   
    38   24   23 1    
    39   40   23 2    
    40   25   24 2    
    41   26   24 am   
    42   27   26 am   
    43   64   26 1    
    44   28   27 2    
    45   29   27 1    
    46   30   29 2    
    47   40   29 1    
    48   31   30 1    
    49   32   31 ar   
    50   38   31 ar   
    51   33   32 ar   
    52   65   32 1    
    53   34   33 1    
    54   35   33 ar   
    55   74   34 1    
    56   75   34 1    
    57   76   34 1    
    58   36   35 1    
    59   37   35 ar   
    60   77   36 1    
    61   78   36 1    
    62   79   36 1    
    63   38   37 ar   
    64   66   37 1    
    65   39   38 1    
    66   40   39 1    
    67   41   39 1    
    68   42   41 1    
    69   67   41 1    
    70   68   41 1    
    71   43   42 1    
    72   44   42 1    
    73   69   42 1    
    74   82   43 1    
    75   45   44 1    
    76   46   44 1    
    77   70   44 1    
    78   83   45 1    
    79   47   46 1    
    80   48   46 1    
    81   71   46 1    
    82   84   47 1    
    83   49   48 1    
    84   72   48 1    
    85   73   48 1    
    86   50   49 1    
    87   51   50 ar   
    88   52   50 ar   
    89   53   50 1    
@<TRIPOS>SUBSTRUCTURE
     1 FAD1301     1 GROUP   
@<TRIPOS>SET

