#    Name: 1o8c_NDP_3_INTS_M
#    Modification time : Mon Mar 24 19:48:14 2014

@<TRIPOS>MOLECULE
1o8c_NDP_3_INTS_M
   98     0    12     0     0
SMALL
NO_CHARGES


@<TRIPOS>ATOM
      1 N          22.6010  131.0915   38.8985 N.am      2 SEC2        0.0000 
      2 N          24.0270  130.8950   39.0300 N.am     10 SEL2        0.0000 
      3 N          21.1750  131.2880   38.7670 N.am      6 SEP2        0.0000 
      4 CA         26.8705  135.2405   36.9085 C.3       4 GLC5        0.0000 
      5 CA         25.3520  133.7970   36.9850 C.3      12 GLL5        0.0000 
      6 CA         28.3890  136.6840   36.8320 C.3       8 GLP5        0.0000 
      7 CA         24.1850  134.8570   34.3795 C.3       4 GLC5        0.0000 
      8 CA         25.1830  133.7630   35.4870 C.3      12 GLL5        0.0000 
      9 CA         23.1870  135.9510   33.2720 C.3       8 GLP5        0.0000 
     10 O          23.6500  130.9810   33.4375 O.2       1 ALC1        0.0000 
     11 O          24.5530  131.4970   34.7100 O.2       9 ALL1        0.0000 
     12 O          22.7470  130.4650   32.1650 O.2       5 ALP1        0.0000 
     13 CA         27.4625  135.5145   35.2720 C.3       4 GLC5        0.0000 
     14 CA         26.5360  134.3450   33.7120 C.3      12 GLL5        0.0000 
     15 CA         31.2510  137.4275   33.5725 C.3       4 GLC5        0.0000 
     16 CA         31.1540  135.6550   32.7920 C.3      12 GLL5        0.0000 
     17 CA         31.3480  139.2000   34.3530 C.3       8 GLP5        0.0000 
     18 CA         29.1735  137.1150   29.9895 C.3       4 GLC5        0.0000 
     19 CA         29.5360  137.0630   31.7870 C.3      12 GLL5        0.0000 
     20 CA         28.8110  137.1670   28.1920 C.3       8 GLP5        0.0000 
     21 CA         28.7650  138.6070   32.4120 C.3       4 GLC5        0.0000 
     22 CA         27.9940  140.1510   33.0370 C.3       8 GLP5        0.0000 
     23 CA         30.4420  138.1315   33.0700 C.3       4 GLC5        0.0000 
     24 N          21.3310  133.5390   40.0520 N.am      2 SEC2        0.0000 
     25 N          22.7600  133.5080   40.0010 N.am     10 SEL2        0.0000 
     26 N          19.9020  133.5700   40.1030 N.am      6 SEP2        0.0000 
     27 N          25.2150  132.4050   42.9370 N.am      2 SEC2        0.0000 
     28 N          23.9090  132.7960   42.1410 N.am     10 SEL2        0.0000 
     29 N          26.5210  132.0140   43.7330 N.am      6 SEP2        0.0000 
     30 CA         26.0950  134.8520   41.2620 C.3       4 GLC5        0.0000 
     31 CA         24.5570  135.9840   40.1640 C.3      12 GLL5        0.0000 
     32 CA         27.6330  133.7200   42.3600 C.3       8 GLP5        0.0000 
     33 N          27.6935  139.2990   40.5615 N.am      2 SEC2        0.0000 
     34 N          27.2710  138.0740   41.3610 N.am     10 SEL2        0.0000 
     35 N          28.1160  140.5240   39.7620 N.am      6 SEP2        0.0000 
     36 CA         23.0845  139.2020   42.0265 C.3       4 GLC5        0.0000 
     37 CA         24.7450  138.0690   42.9260 C.3      12 GLL5        0.0000 
     38 CA         21.4240  140.3350   41.1270 C.3       8 GLP5        0.0000 
     39 CA         25.3105  139.4925   41.7150 C.3       4 GLC5        0.0000 
     40 CA         25.8760  140.9160   40.5040 C.3       8 GLP5        0.0000 
     41 CA         21.8440  139.1710   45.3415 C.3       4 GLC5        0.0000 
     42 CA         23.7590  139.0420   46.3470 C.3      12 GLL5        0.0000 
     43 CA         19.9290  139.3000   44.3360 C.3       8 GLP5        0.0000 
     44 N          22.4925  140.8340   49.0110 N.am      2 SEC2        0.0000 
     45 N          23.4910  140.0820   48.6000 N.am     10 SEL2        0.0000 
     46 N          21.4940  141.5860   49.4220 N.am      6 SEP2        0.0000 
     47 N          22.6735  139.3550   48.9770 N.am      2 SEC2        0.0000 
     48 N          21.8560  138.6280   49.3540 N.am      6 SEP2        0.0000 
     49 CA         21.0675  135.5055   45.0735 C.3       4 GLC5        0.0000 
     50 CA         22.4020  137.0930   45.5720 C.3      12 GLL5        0.0000 
     51 CA         19.7330  133.9180   44.5750 C.3       8 GLP5        0.0000 
     52 CA         21.4990  138.2075   44.3550 C.3       4 GLC5        0.0000 
     53 CA         23.0690  137.1150   44.3740 C.3      12 GLL5        0.0000 
     54 N          23.1300  131.4730   31.3680 N.am      2 SEC2        0.0000 
     55 N          23.5130  132.4810   30.5710 N.am     10 SEL2        0.0000 
     56 N          22.7470  130.4650   32.1650 N.am      6 SEP2        0.0000 
     57 N          23.1950  132.1670   29.3660 N.am      2 SEC2        0.0000 
     58 N          22.8770  131.8530   28.1610 N.am      6 SEP2        0.0000 
     59 NZ         27.1070  133.8235   30.0045 N.4       3 LYC4        0.0000 
     60 NZ         25.5610  133.8160   30.3090 N.4      11 LYL4        0.0000 
     61 NZ         29.1750  134.9040   29.1320 N.4       7 LYP4        0.0000 
     62 N          25.3855  133.7590   28.8660 N.am      2 SEC2        0.0000 
     63 N          25.5610  133.8160   30.3090 N.am     10 SEL2        0.0000 
     64 N          25.2100  133.7020   27.4230 N.am      6 SEP2        0.0000 
     65 N          27.1070  133.8235   30.0045 N.am      2 SEC2        0.0000 
     66 N          28.6530  133.8310   29.7000 N.am      6 SEP2        0.0000 
     67 NZ         25.1370  129.8740   31.3555 N.4       3 LYC4        0.0000 
     68 NZ         25.6810  131.3530   30.8520 N.4      11 LYL4        0.0000 
     69 NZ         25.5520  127.8840   31.0970 N.4       7 LYP4        0.0000 
     70 N          24.2140  130.9090   31.5085 N.am      2 SEC2        0.0000 
     71 N          25.6810  131.3530   30.8520 N.am     10 SEL2        0.0000 
     72 N          25.8380  129.9710   30.4575 N.am      2 SEC2        0.0000 
     73 N          25.9950  128.5890   30.0630 N.am      6 SEP2        0.0000 
     74 N          25.1370  129.8740   31.3555 N.am      2 SEC2        0.0000 
     75 N          24.5930  128.3950   31.8590 N.am      6 SEP2        0.0000 
     76 N          26.9030  130.8920   31.5470 N.am      2 SEC2        0.0000 
     77 N          28.1250  130.4310   32.2420 N.am      6 SEP2        0.0000 
     78 CA         23.6674  132.1523   36.0010 C.3       4 GLC5        0.0000 
     79 CA         21.9130  131.1860   36.4780 C.3       8 GLP5        0.0000 
     80 CA         24.7252  134.7990   33.4265 C.3       4 GLC5        0.0000 
     81 CA         25.9910  132.9490   33.4500 C.3      12 GLL5        0.0000 
     82 CA         28.9303  135.8800   35.0208 C.3       4 GLC5        0.0000 
     83 CA         28.8130  135.2500   33.0880 C.3      12 GLL5        0.0000 
     84 CA         22.8400  136.2585   41.1000 C.3       4 GLC5        0.0000 
     85 CA         20.8900  135.8910   41.7130 C.3       8 GLP5        0.0000 
     86 CA         23.9315  137.4725   38.9620 C.3       4 GLC5        0.0000 
     87 CA         23.0730  138.3190   37.4370 C.3       8 GLP5        0.0000 
     88 CA         25.7763  139.0377   40.8470 C.3       4 GLC5        0.0000 
     89 CA         25.0230  137.2680   40.8100 C.3      12 GLL5        0.0000 
     90 CA         26.8720  135.3960   42.3272 C.3       4 GLC5        0.0000 
     91 CA         26.3300  137.0510   41.5700 C.3      12 GLL5        0.0000 
     92 CA         21.9357  138.9420   47.9162 C.3       4 GLC5        0.0000 
     93 CA         20.6090  139.3090   49.3540 C.3       8 GLP5        0.0000 
     94 CA         20.9255  137.8862   45.6090 C.3       4 GLC5        0.0000 
     95 CA         19.2670  138.1720   45.1270 C.3       8 GLP5        0.0000 
     96 CA         21.8128  136.4975   43.3430 C.3       4 GLC5        0.0000 
     97 CA         22.4432  136.2994   46.7338 C.3       4 GLC5        0.0000 
     98 CA         22.0600  135.2410   48.2350 C.3       8 GLP5        0.0000 
@<TRIPOS>BOND
@<TRIPOS>SUBSTRUCTURE
     1 ALC1       10 GROUP        1 X    ALC  0     ROOT ALC X 1
     2 SEC2        1 GROUP        1 X    SEC  0     **** SEC X 2
     3 LYC4       59 GROUP        1 X    LYC  0     **** LYC X 4
     4 GLC5        4 GROUP        1 X    GLC  0     **** GLC X 6
     5 ALP1       12 GROUP        1 Y    ALP  0     ROOT ALP Y 8
     6 SEP2        3 GROUP        1 Y    SEP  0     **** SEP Y 9
     7 LYP4       61 GROUP        1 Y    LYP  0     **** LYP Y 11
     8 GLP5        6 GROUP        1 Y    GLP  0     **** GLP Y 13
     9 ALL1       11 GROUP        1 Z    ALL  0     ROOT ALL Z 15
    10 SEL2        2 GROUP        1 Z    SEL  0     **** SEL Z 16
    11 LYL4       60 GROUP        1 Z    LYL  0     **** LYL Z 18
    12 GLL5        5 GROUP        1 Z    GLL  0     **** GLL Z 20
@<TRIPOS>SET

