#    Name: 1o8c_NDP_3_ligand
#    Modification time : Mon Mar 24 19:48:14 2014

@<TRIPOS>MOLECULE
1o8c_NDP_3_ligand
   74    78     1     0     0
SMALL
NO_CHARGES


@<TRIPOS>ATOM
      1 PA         25.0780  131.9790   38.7910 P.3       1 NDP1325     0.0000 
      2 O1A        26.4600  131.5270   38.5320 O.co2     1 NDP1325     0.0000 
      3 O2A        24.0270  130.8950   39.0300 O.co2     1 NDP1325     0.0000 
      4 O5B        24.5670  132.7640   37.5080 O.3       1 NDP1325     0.0000 
      5 C5B        25.3520  133.7970   36.9850 C.3       1 NDP1325     0.0000 
      6 C4B        25.1830  133.7630   35.4870 C.3       1 NDP1325     0.0000 
      7 O4B        26.0520  134.7390   34.9710 O.3       1 NDP1325     0.0000 
      8 C3B        25.5760  132.4570   34.8120 C.3       1 NDP1325     0.0000 
      9 O3B        24.5530  131.4970   34.7100 O.3       1 NDP1325     0.0000 
     10 C2B        25.9910  132.9490   33.4500 C.3       1 NDP1325     0.0000 
     11 O2B        24.8610  132.9810   32.6230 O.3       1 NDP1325     0.0000 
     12 C1B        26.5360  134.3450   33.7120 C.3       1 NDP1325     0.0000 
     13 N9A        28.0190  134.3470   33.7320 N.pl3     1 NDP1325     0.0000 
     14 C8A        28.8630  133.4570   34.3650 C.2       1 NDP1325     0.0000 
     15 N7A        30.1430  133.8090   34.1130 N.2       1 NDP1325     0.0000 
     16 C5A        30.1300  134.9020   33.3310 C.ar      1 NDP1325     0.0000 
     17 C6A        31.1540  135.6550   32.7920 C.ar      1 NDP1325     0.0000 
     18 N6A        32.4010  135.2720   32.9800 N.pl3     1 NDP1325     0.0000 
     19 N1A        30.8660  136.7450   32.0130 N.ar      1 NDP1325     0.0000 
     20 C2A        29.5360  137.0630   31.7870 C.ar      1 NDP1325     0.0000 
     21 N3A        28.5180  136.3120   32.3310 N.ar      1 NDP1325     0.0000 
     22 C4A        28.8130  135.2500   33.0880 C.ar      1 NDP1325     0.0000 
     23 O3         25.2010  133.0360   39.9940 O.3       1 NDP1325     0.0000 
     24 PN         23.9430  133.5200   40.8570 P.3       1 NDP1325     0.0000 
     25 O1N        22.7600  133.5080   40.0010 O.co2     1 NDP1325     0.0000 
     26 O2N        23.9090  132.7960   42.1410 O.co2     1 NDP1325     0.0000 
     27 O5D        24.3470  135.0330   41.1730 O.3       1 NDP1325     0.0000 
     28 C5D        24.5570  135.9840   40.1640 C.3       1 NDP1325     0.0000 
     29 C4D        25.0230  137.2680   40.8100 C.3       1 NDP1325     0.0000 
     30 O4D        24.0490  137.6810   41.7640 O.3       1 NDP1325     0.0000 
     31 C3D        26.3300  137.0510   41.5700 C.3       1 NDP1325     0.0000 
     32 O3D        27.2710  138.0740   41.3610 O.3       1 NDP1325     0.0000 
     33 C2D        25.8920  137.0930   43.0190 C.3       1 NDP1325     0.0000 
     34 O2D        26.8830  137.5650   43.9020 O.3       1 NDP1325     0.0000 
     35 C1D        24.7450  138.0690   42.9260 C.3       1 NDP1325     0.0000 
     36 N1N        24.0190  138.0580   44.1790 N.pl3     1 NDP1325     0.0000 
     37 C2N        24.3830  138.9830   45.1150 C.2       1 NDP1325     0.0000 
     38 C3N        23.7590  139.0420   46.3470 C.2       1 NDP1325     0.0000 
     39 C7N        24.1460  140.0820   47.3650 C.2       1 NDP1325     0.0000 
     40 O7N        23.4910  140.0820   48.6000 O.2       1 NDP1325     0.0000 
     41 N7N        25.0970  140.9900   47.1480 N.am      1 NDP1325     0.0000 
     42 C4N        22.7660  138.1080   46.6100 C.3       1 NDP1325     0.0000 
     43 C5N        22.4020  137.0930   45.5720 C.2       1 NDP1325     0.0000 
     44 C6N        23.0690  137.1150   44.3740 C.2       1 NDP1325     0.0000 
     45 P2B        24.8950  132.6540   31.0550 P.3       1 NDP1325     0.0000 
     46 O1X        23.5130  132.4810   30.5710 O.co2     1 NDP1325     0.0000 
     47 O2X        25.5610  133.8160   30.3090 O.co2     1 NDP1325     0.0000 
     48 O3X        25.6810  131.3530   30.8520 O.co2     1 NDP1325     0.0000 
     49 H          26.4120  133.6694   37.2081 H         1 NDP1325     0.0000 
     50 H          25.0372  134.7798   37.3380 H         1 NDP1325     0.0000 
     51 H          24.1668  133.9972   35.2332 H         1 NDP1325     0.0000 
     52 H          26.4682  132.1003   35.2976 H         1 NDP1325     0.0000 
     53 H          26.7753  132.3368   33.0959 H         1 NDP1325     0.0000 
     54 H          26.1783  134.9934   32.9353 H         1 NDP1325     0.0000 
     55 H          28.5700  132.7097   34.8975 H         1 NDP1325     0.0000 
     56 H          33.1073  135.8769   32.6123 H         1 NDP1325     0.0000 
     57 H          32.5274  134.4113   33.4732 H         1 NDP1325     0.0000 
     58 H          29.3062  137.8864   31.1939 H         1 NDP1325     0.0000 
     59 H          23.6424  136.2028   39.6022 H         1 NDP1325     0.0000 
     60 H          25.3251  135.6690   39.4493 H         1 NDP1325     0.0000 
     61 H          25.1798  138.0105   40.0637 H         1 NDP1325     0.0000 
     62 H          26.6846  136.0762   41.3653 H         1 NDP1325     0.0000 
     63 H          25.4847  136.1436   43.2684 H         1 NDP1325     0.0000 
     64 H          25.2190  139.0511   42.7728 H         1 NDP1325     0.0000 
     65 H          25.1461  139.6617   44.9033 H         1 NDP1325     0.0000 
     66 H          25.2352  141.6644   47.8733 H         1 NDP1325     0.0000 
     67 H          25.5868  140.9152   46.2794 H         1 NDP1325     0.0000 
     68 H          21.7886  138.6304   46.9114 H         1 NDP1325     0.0000 
     69 H          23.0051  137.5222   47.5685 H         1 NDP1325     0.0000 
     70 H          21.6786  136.4356   45.8027 H         1 NDP1325     0.0000 
     71 H          22.8453  136.4254   43.6448 H         1 NDP1325     0.0000 
     72 H          23.9868  131.8026   33.9445 H         1 NDP1325     0.0000 
     73 H          28.1389  137.6005   41.2111 H         1 NDP1325     0.0000 
     74 H          27.5548  138.0201   43.3175 H         1 NDP1325     0.0000 
@<TRIPOS>BOND
     1    2    1 ar   
     2    3    1 ar   
     3    4    1 1    
     4   23    1 1    
     5    5    4 1    
     6    6    5 1    
     7   49    5 1    
     8   50    5 1    
     9    7    6 1    
    10    8    6 1    
    11   51    6 1    
    12   12    7 1    
    13    9    8 1    
    14   10    8 1    
    15   52    8 1    
    16   72    9 1    
    17   11   10 1    
    18   12   10 1    
    19   53   10 1    
    20   45   11 1    
    21   13   12 1    
    22   54   12 1    
    23   14   13 1    
    24   22   13 1    
    25   15   14 2    
    26   55   14 1    
    27   16   15 1    
    28   17   16 ar   
    29   22   16 ar   
    30   18   17 1    
    31   19   17 ar   
    32   56   18 1    
    33   57   18 1    
    34   20   19 ar   
    35   21   20 ar   
    36   58   20 1    
    37   22   21 ar   
    38   24   23 1    
    39   25   24 ar   
    40   26   24 ar   
    41   27   24 1    
    42   28   27 1    
    43   29   28 1    
    44   59   28 1    
    45   60   28 1    
    46   30   29 1    
    47   31   29 1    
    48   61   29 1    
    49   35   30 1    
    50   32   31 1    
    51   33   31 1    
    52   62   31 1    
    53   73   32 1    
    54   34   33 1    
    55   35   33 1    
    56   63   33 1    
    57   74   34 1    
    58   36   35 1    
    59   64   35 1    
    60   37   36 1    
    61   44   36 1    
    62   38   37 2    
    63   65   37 1    
    64   39   38 1    
    65   42   38 1    
    66   40   39 2    
    67   41   39 am   
    68   66   41 1    
    69   67   41 1    
    70   43   42 1    
    71   68   42 1    
    72   69   42 1    
    73   44   43 2    
    74   70   43 1    
    75   71   44 1    
    76   46   45 ar   
    77   47   45 ar   
    78   48   45 ar   
@<TRIPOS>SUBSTRUCTURE
     1 NDP1325     1 GROUP   
@<TRIPOS>SET

