#    Name: 4b5b_BBE_1_INTS_M
#    Modification time : Tue Mar 25 06:42:31 2014

@<TRIPOS>MOLECULE
4b5b_BBE_1_INTS_M
   49     0     9     0     0
SMALL
NO_CHARGES


@<TRIPOS>ATOM
      1 CA         37.5280    3.9145   13.6480 C.3       3 GLC5        0.0000 
      2 CA         38.2360    5.5840   12.4420 C.3       9 GLL5        0.0000 
      3 CA         36.8200    2.2450   14.8540 C.3       6 GLP5        0.0000 
      4 CA         36.9325    5.4290   14.7540 C.3       3 GLC5        0.0000 
      5 CA         37.7550    6.6490   13.2080 C.3       9 GLL5        0.0000 
      6 CA         36.1100    4.2090   16.3000 C.3       6 GLP5        0.0000 
      7 CA         39.5430    6.5965   13.9860 C.3       3 GLC5        0.0000 
      8 CA         41.3310    6.5440   14.7640 C.3       6 GLP5        0.0000 
      9 O          38.1110    0.1955   11.8500 O.2       1 ALC1        0.0000 
     10 O          37.4810    1.3290   11.2700 O.2       7 ALL1        0.0000 
     11 O          38.7410   -0.9380   12.4300 O.2       4 ALP1        0.0000 
     12 N          35.7450   -1.2555   11.1935 N.am      2 SEC2        0.0000 
     13 N          35.8960   -0.0200   10.3810 N.am      8 SEL2        0.0000 
     14 N          35.5940   -2.4910   12.0060 N.am      5 SEP2        0.0000 
     15 CA         34.8275   -0.4050    6.0160 C.3       3 GLC5        0.0000 
     16 CA         35.9140    0.6690    7.3300 C.3       9 GLL5        0.0000 
     17 CA         33.7410   -1.4790    4.7020 C.3       6 GLP5        0.0000 
     18 N          32.3100    1.4715    5.7725 N.am      2 SEC2        0.0000 
     19 N          33.1340    1.5840    7.0990 N.am      8 SEL2        0.0000 
     20 N          31.4860    1.3590    4.4460 N.am      5 SEP2        0.0000 
     21 CA         31.2825   -3.4980   11.3270 C.3       3 GLC5        0.0000 
     22 CA         31.0900   -1.4930   10.8590 C.3       9 GLL5        0.0000 
     23 CA         31.4750   -5.5030   11.7950 C.3       6 GLP5        0.0000 
     24 CA         36.2308    5.8872   12.6935 C.3       3 GLC5        0.0000 
     25 CA         34.4660    5.6580   12.5620 C.3       6 GLP5        0.0000 
     26 CA         35.9530    6.7812   12.2410 C.3       3 GLC5        0.0000 
     27 CA         37.3830    7.8410   12.6120 C.3       9 GLL5        0.0000 
     28 CA         35.7160    8.8463   12.0475 C.3       3 GLC5        0.0000 
     29 CA         33.9920    9.7880   12.1750 C.3       6 GLP5        0.0000 
     30 CA         36.3145    5.9768   11.6567 C.3       3 GLC5        0.0000 
     31 CA         37.9830    6.9030   10.4490 C.3       9 GLL5        0.0000 
     32 CA         40.3186    5.2075   11.8562 C.3       3 GLC5        0.0000 
     33 CA         42.0750    5.2770   12.7100 C.3       6 GLP5        0.0000 
     34 CA         33.0323    3.5777   11.9277 C.3       3 GLC5        0.0000 
     35 CA         33.3350    2.0970   11.0700 C.3       9 GLL5        0.0000 
     36 CA         33.0110    5.3350   12.2090 C.3       6 GLP5        0.0000 
     37 CA         32.5733    0.2883   13.7760 C.3       3 GLC5        0.0000 
     38 CA         32.7720    1.5440   12.2230 C.3       9 GLL5        0.0000 
     39 CA         32.7480   -0.3750   15.3660 C.3       6 GLP5        0.0000 
     40 CA         30.7828    1.6233   13.2915 C.3       3 GLC5        0.0000 
     41 CA         32.0250    0.3590   12.1490 C.3       9 GLL5        0.0000 
     42 CA         29.1670    2.2950   14.3970 C.3       6 GLP5        0.0000 
     43 CA         33.9941    1.3934   13.2404 C.3       3 GLC5        0.0000 
     44 CA         35.4490    1.6970   14.5830 C.3       6 GLP5        0.0000 
     45 CA         32.8319   -2.0030    9.8332 C.3       3 GLC5        0.0000 
     46 CA         31.8430   -0.2890   10.9350 C.3       9 GLL5        0.0000 
     47 CA         34.0600   -3.2540    9.0560 C.3       6 GLP5        0.0000 
     48 CA         32.5415   -1.9685   12.2278 C.3       3 GLC5        0.0000 
     49 CA         33.5710   -3.2080   13.2550 C.3       6 GLP5        0.0000 
@<TRIPOS>BOND
@<TRIPOS>SUBSTRUCTURE
     1 ALC1        9 GROUP        1 X    ALC  0     ROOT ALC X 1
     2 SEC2       12 GROUP        1 X    SEC  0     **** SEC X 2
     3 GLC5        1 GROUP        1 X    GLC  0     **** GLC X 6
     4 ALP1       11 GROUP        1 Y    ALP  0     ROOT ALP Y 8
     5 SEP2       14 GROUP        1 Y    SEP  0     **** SEP Y 9
     6 GLP5        3 GROUP        1 Y    GLP  0     **** GLP Y 13
     7 ALL1       10 GROUP        1 Z    ALL  0     ROOT ALL Z 15
     8 SEL2       13 GROUP        1 Z    SEL  0     **** SEL Z 16
     9 GLL5        2 GROUP        1 Z    GLL  0     **** GLL Z 20
@<TRIPOS>SET

