#    Name: 4b5b_BBE_1_ligand
#    Modification time : Tue Mar 25 06:42:31 2014

@<TRIPOS>MOLECULE
4b5b_BBE_1_ligand
   48    50     1     0     0
SMALL
NO_CHARGES


@<TRIPOS>ATOM
      1 CAY        38.2360    5.5840   12.4420 C.ar      1 BBE400      0.0000 
      2 CAZ        37.7550    6.6490   13.2080 C.ar      1 BBE400      0.0000 
      3 CBA        37.3830    7.8410   12.6120 C.ar      1 BBE400      0.0000 
      4 CAX        37.4970    7.9680   11.2280 C.ar      1 BBE400      0.0000 
      5 CAW        37.9830    6.9030   10.4490 C.ar      1 BBE400      0.0000 
      6 CAV        38.3430    5.6880   11.0540 C.ar      1 BBE400      0.0000 
      7 CAU        38.8350    4.6400   10.2570 C.3       1 BBE400      0.0000 
      8 NAN        37.9910    3.4390   10.2540 N.am      1 BBE400      0.0000 
      9 CAO        37.1010    3.1630    9.2560 C.2       1 BBE400      0.0000 
     10 NAP        36.8610    4.0180    8.2660 N.pl3     1 BBE400      0.0000 
     11 CAM        38.1980    2.5170   11.2260 C.2       1 BBE400      0.0000 
     12 OAL        39.0380    2.7120   12.1070 O.2       1 BBE400      0.0000 
     13 NAD        37.4810    1.3290   11.2700 N.am      1 BBE400      0.0000 
     14 CAE        36.5090    1.0490   10.3220 C.2       1 BBE400      0.0000 
     15 OAA        35.8960   -0.0200   10.3810 O.2       1 BBE400      0.0000 
     16 CAF        36.3190    1.9820    9.2950 C.2       1 BBE400      0.0000 
     17 NAG        35.4390    1.6580    8.3180 N.pl3     1 BBE400      0.0000 
     18 CAB        35.9140    0.6690    7.3300 C.3       1 BBE400      0.0000 
     19 SAH        33.8650    2.1460    8.3400 S.o2      1 BBE400      0.0000 
     20 OAQ        33.8230    3.6770    8.3750 O.2       1 BBE400      0.0000 
     21 OAC        33.1340    1.5840    7.0990 O.2       1 BBE400      0.0000 
     22 CAI        33.1450    1.4460    9.8480 C.ar      1 BBE400      0.0000 
     23 CAJ        33.3350    2.0970   11.0700 C.ar      1 BBE400      0.0000 
     24 CAK        32.7720    1.5440   12.2230 C.ar      1 BBE400      0.0000 
     25 CAT        32.0250    0.3590   12.1490 C.ar      1 BBE400      0.0000 
     26 CAS        31.8430   -0.2890   10.9350 C.ar      1 BBE400      0.0000 
     27 CAR        32.3920    0.2670    9.7890 C.ar      1 BBE400      0.0000 
     28 CAL        31.0900   -1.4930   10.8590 C.3       1 BBE400      0.0000 
     29 H          38.5165    4.7068   12.9103 H         1 BBE400      0.0000 
     30 H          37.6782    6.5390   14.2337 H         1 BBE400      0.0000 
     31 H          37.0299    8.6185   13.1725 H         1 BBE400      0.0000 
     32 H          37.2242    8.8473   10.7676 H         1 BBE400      0.0000 
     33 H          38.0747    7.0151    9.4334 H         1 BBE400      0.0000 
     34 H          39.8686    4.3434   10.5832 H         1 BBE400      0.0000 
     35 H          38.9702    4.9781    9.1940 H         1 BBE400      0.0000 
     36 H          35.9370    4.0006    7.8838 H         1 BBE400      0.0000 
     37 H          37.6262    4.6012    7.9931 H         1 BBE400      0.0000 
     38 H          37.6755    0.6434   12.0213 H         1 BBE400      0.0000 
     39 H          33.8742    2.9590   11.1190 H         1 BBE400      0.0000 
     40 H          32.9045    2.0060   13.1313 H         1 BBE400      0.0000 
     41 H          31.6092   -0.0297   13.0092 H         1 BBE400      0.0000 
     42 H          32.2461   -0.1923    8.8735 H         1 BBE400      0.0000 
     43 H          36.7275    0.9898    6.8450 H         1 BBE400      0.0000 
     44 H          36.1537   -0.2009    7.7610 H         1 BBE400      0.0000 
     45 H          35.2192    0.4718    6.6384 H         1 BBE400      0.0000 
     46 H          31.0421   -1.8427    9.9233 H         1 BBE400      0.0000 
     47 H          31.4888   -2.2167   11.4223 H         1 BBE400      0.0000 
     48 H          30.1491   -1.3630   11.1718 H         1 BBE400      0.0000 
@<TRIPOS>BOND
     1    2    1 ar   
     2    6    1 ar   
     3   29    1 1    
     4    3    2 ar   
     5   30    2 1    
     6    4    3 ar   
     7   31    3 1    
     8    5    4 ar   
     9   32    4 1    
    10    6    5 ar   
    11   33    5 1    
    12    7    6 1    
    13    8    7 1    
    14   34    7 1    
    15   35    7 1    
    16    9    8 1    
    17   11    8 1    
    18   10    9 1    
    19   16    9 2    
    20   36   10 1    
    21   37   10 1    
    22   12   11 2    
    23   13   11 1    
    24   14   13 1    
    25   38   13 1    
    26   15   14 2    
    27   16   14 1    
    28   17   16 1    
    29   18   17 1    
    30   19   17 1    
    31   43   18 1    
    32   44   18 1    
    33   45   18 1    
    34   20   19 2    
    35   21   19 2    
    36   22   19 1    
    37   23   22 ar   
    38   27   22 ar   
    39   24   23 ar   
    40   39   23 1    
    41   25   24 ar   
    42   40   24 1    
    43   26   25 ar   
    44   41   25 1    
    45   27   26 ar   
    46   28   26 1    
    47   42   27 1    
    48   46   28 1    
    49   47   28 1    
    50   48   28 1    
@<TRIPOS>SUBSTRUCTURE
     1 BBE400      1 GROUP   
@<TRIPOS>SET

