#    Name: 4dmm_NAP_2_INTS_M
#    Modification time : Tue Mar 25 09:56:45 2014

@<TRIPOS>MOLECULE
4dmm_NAP_2_INTS_M
  110     0    12     0     0
SMALL
NO_CHARGES


@<TRIPOS>ATOM
      1 NZ         46.9085   43.5050   52.3960 N.4       3 LYC4        0.0000 
      2 NZ         45.7320   43.0150   51.3830 N.4      11 LYL4        0.0000 
      3 NZ         48.0850   43.9950   53.4090 N.4       7 LYP4        0.0000 
      4 CA         48.1575   47.0200   52.6145 C.3       4 GLC5        0.0000 
      5 CA         45.9840   47.3600   52.7020 C.3      12 GLL5        0.0000 
      6 CA         50.3310   46.6800   52.5270 C.3       8 GLP5        0.0000 
      7 N          47.4770   49.9015   51.8435 N.am      2 SEC2        0.0000 
      8 N          46.6320   48.4990   52.1530 N.am     10 SEL2        0.0000 
      9 N          48.3220   51.3040   51.5340 N.am      6 SEP2        0.0000 
     10 N          48.0970   48.7330   51.4505 N.am      2 SEC2        0.0000 
     11 N          49.5620   48.9670   50.7480 N.am      6 SEP2        0.0000 
     12 O          47.7270   48.9960   53.0350 O.2       1 ALC1        0.0000 
     13 O          46.6320   48.4990   52.1530 O.2       9 ALL1        0.0000 
     14 O          48.8220   49.4930   53.9170 O.2       5 ALP1        0.0000 
     15 CA         39.7540   47.4130   55.5180 C.3       4 GLC5        0.0000 
     16 CA         41.2040   48.3570   56.0420 C.3      12 GLL5        0.0000 
     17 CA         38.3040   46.4690   54.9940 C.3       8 GLP5        0.0000 
     18 CA         39.8310   50.6405   58.1480 C.3       4 GLC5        0.0000 
     19 CA         40.2880   49.1410   56.7810 C.3      12 GLL5        0.0000 
     20 CA         39.3740   52.1400   59.5150 C.3       8 GLP5        0.0000 
     21 CA         38.7270   48.8945   55.9190 C.3       4 GLC5        0.0000 
     22 CA         37.1660   48.6480   55.0570 C.3       8 GLP5        0.0000 
     23 O          38.4195   49.3725   58.5910 O.2       1 ALC1        0.0000 
     24 O          39.4480   48.5850   57.6650 O.2       9 ALL1        0.0000 
     25 O          37.3910   50.1600   59.5170 O.2       5 ALP1        0.0000 
     26 N          39.1630   51.4065   57.0275 N.am      2 SEC2        0.0000 
     27 N          40.2730   50.4800   56.5720 N.am     10 SEL2        0.0000 
     28 N          38.0530   52.3330   57.4830 N.am      6 SEP2        0.0000 
     29 CA         42.1450   50.4145   57.1430 C.3       4 GLC5        0.0000 
     30 CA         41.1170   51.0560   55.7230 C.3      12 GLL5        0.0000 
     31 CA         43.1730   49.7730   58.5630 C.3       8 GLP5        0.0000 
     32 CA         40.2455   51.5980   57.6190 C.3       4 GLC5        0.0000 
     33 CA         39.3960   51.5915   55.0175 C.3       4 GLC5        0.0000 
     34 CA         37.6750   52.1270   54.3120 C.3       8 GLP5        0.0000 
     35 CA         40.4815   50.4675   54.0295 C.3       4 GLC5        0.0000 
     36 CA         39.8460   49.8790   52.3360 C.3       8 GLP5        0.0000 
     37 CA         42.9360   50.0375   53.4500 C.3       4 GLC5        0.0000 
     38 CA         42.0810   48.9990   55.1470 C.3      12 GLL5        0.0000 
     39 CA         43.7910   51.0760   51.7530 C.3       8 GLP5        0.0000 
     40 N          46.3630   42.6395   46.2695 N.am      2 SEC2        0.0000 
     41 N          44.8500   42.7220   46.8400 N.am     10 SEL2        0.0000 
     42 N          47.8760   42.5570   45.6990 N.am      6 SEP2        0.0000 
     43 N          46.6815   45.8950   46.1915 N.am      2 SEC2        0.0000 
     44 N          45.9550   45.0790   46.9370 N.am     10 SEL2        0.0000 
     45 N          47.4080   46.7110   45.4460 N.am      6 SEP2        0.0000 
     46 N          46.9155   43.8180   46.3180 N.am      2 SEC2        0.0000 
     47 CA         44.2450   46.4785   45.3665 C.3       4 GLC5        0.0000 
     48 CA         43.0510   46.0830   46.6630 C.3      12 GLL5        0.0000 
     49 CA         45.4390   46.8740   44.0700 C.3       8 GLP5        0.0000 
     50 CA         40.6035   46.7020   44.7145 C.3       4 GLC5        0.0000 
     51 CA         41.5610   46.1110   46.3560 C.3      12 GLL5        0.0000 
     52 CA         39.6460   47.2930   43.0730 C.3       8 GLP5        0.0000 
     53 CA         39.8585   45.4220   49.3450 C.3       4 GLC5        0.0000 
     54 CA         40.6930   45.3320   47.3980 C.3      12 GLL5        0.0000 
     55 CA         39.0240   45.5120   51.2920 C.3       8 GLP5        0.0000 
     56 N          37.9205   45.6595   47.0140 N.am      2 SEC2        0.0000 
     57 N          39.3990   45.9060   47.4900 N.am     10 SEL2        0.0000 
     58 N          36.4420   45.4130   46.5380 N.am      6 SEP2        0.0000 
     59 O          39.9835   47.1050   47.9250 O.2       1 ALC1        0.0000 
     60 O          39.3990   45.9060   47.4900 O.2       9 ALL1        0.0000 
     61 O          40.5680   48.3040   48.3600 O.2       5 ALP1        0.0000 
     62 CA         38.9905   42.3290   46.8055 C.3       4 GLC5        0.0000 
     63 CA         40.5450   43.9530   46.7930 C.3      12 GLL5        0.0000 
     64 CA         37.4360   40.7050   46.8180 C.3       8 GLP5        0.0000 
     65 N          38.9075   42.3825   46.7895 N.am      2 SEC2        0.0000 
     66 N          39.4080   43.2790   47.3890 N.am     10 SEL2        0.0000 
     67 N          38.4070   41.4860   46.1900 N.am      6 SEP2        0.0000 
     68 CA         40.0200   45.8210   44.1765 C.3       4 GLC5        0.0000 
     69 CA         40.3940   44.3490   45.2800 C.3      12 GLL5        0.0000 
     70 CA         38.2180   44.1805   45.8115 C.3       4 GLC5        0.0000 
     71 CA         36.0420   44.0120   46.3430 C.3       8 GLP5        0.0000 
     72 CA         43.4105   41.7255   41.7645 C.3       4 GLC5        0.0000 
     73 CA         42.0330   41.4240   43.4400 C.3      12 GLL5        0.0000 
     74 CA         44.7880   42.0270   40.0890 C.3       8 GLP5        0.0000 
     75 O          42.4755   39.5155   41.4100 O.2       1 ALC1        0.0000 
     76 O          43.3230   39.4300   42.8590 O.2       9 ALL1        0.0000 
     77 O          41.6280   39.6010   39.9610 O.2       5 ALP1        0.0000 
     78 CA         39.6425   45.1080   43.2080 C.3       4 GLC5        0.0000 
     79 CA         39.6390   42.9230   43.3430 C.3      12 GLL5        0.0000 
     80 CA         39.5115   43.9515   41.7315 C.3       4 GLC5        0.0000 
     81 CA         39.3840   44.9800   40.1200 C.3       8 GLP5        0.0000 
     82 NZ         48.1205   45.9780   54.8940 N.4       3 LYC4        0.0000 
     83 NZ         47.4300   46.9010   55.9670 N.4      11 LYL4        0.0000 
     84 N          48.1205   45.9780   54.8940 N.am      2 SEC2        0.0000 
     85 N          47.4300   46.9010   55.9670 N.am     10 SEL2        0.0000 
     86 N          48.8110   45.0550   53.8210 N.am      6 SEP2        0.0000 
     87 N          48.7520   46.9645   56.4305 N.am      2 SEC2        0.0000 
     88 N          50.0740   47.0280   56.8940 N.am      6 SEP2        0.0000 
     89 N          46.5770   49.2205   58.3120 N.am      2 SEC2        0.0000 
     90 N          46.9430   49.1890   57.0950 N.am     10 SEL2        0.0000 
     91 N          46.2110   49.2520   59.5290 N.am      6 SEP2        0.0000 
     92 N          45.9840   50.1990   57.4035 N.am      2 SEC2        0.0000 
     93 N          45.0250   51.2090   57.7120 N.am      6 SEP2        0.0000 
     94 N          47.9875   49.0435   57.9735 N.am      2 SEC2        0.0000 
     95 N          49.0320   48.8980   58.8520 N.am      6 SEP2        0.0000 
     96 N          45.7285   48.3575   58.3680 N.am      2 SEC2        0.0000 
     97 N          45.2460   47.4630   57.2070 N.am     10 SEL2        0.0000 
     98 N          45.5655   46.9920   58.7325 N.am      2 SEC2        0.0000 
     99 N          45.8850   46.5210   60.2580 N.am      6 SEP2        0.0000 
    100 CA         40.7442   49.2785   53.9652 C.3       4 GLC5        0.0000 
    101 CA         42.2933   49.3235   57.1711 C.3       4 GLC5        0.0000 
    102 CA         43.2125   43.2965   43.5120 C.3       4 GLC5        0.0000 
    103 CA         41.8170   42.4760   44.3480 C.3      12 GLL5        0.0000 
    104 CA         44.5000   44.6430   43.1300 C.3       8 GLP5        0.0000 
    105 CA         38.0465   42.0265   42.7523 C.3       4 GLC5        0.0000 
    106 CA         39.8530   41.8510   42.4520 C.3      12 GLL5        0.0000 
    107 CA         36.3470   41.6660   42.6070 C.3       8 GLP5        0.0000 
    108 CA         40.9979   42.5897   41.2661 C.3       4 GLC5        0.0000 
    109 CA         41.3020   43.6230   39.8230 C.3       8 GLP5        0.0000 
    110 CA         44.3964   49.3179   52.3704 C.3       4 GLC5        0.0000 
@<TRIPOS>BOND
@<TRIPOS>SUBSTRUCTURE
     1 ALC1       12 GROUP        1 X    ALC  0     ROOT ALC X 1
     2 SEC2        7 GROUP        1 X    SEC  0     **** SEC X 2
     3 LYC4        1 GROUP        1 X    LYC  0     **** LYC X 4
     4 GLC5        4 GROUP        1 X    GLC  0     **** GLC X 6
     5 ALP1       14 GROUP        1 Y    ALP  0     ROOT ALP Y 8
     6 SEP2        9 GROUP        1 Y    SEP  0     **** SEP Y 9
     7 LYP4        3 GROUP        1 Y    LYP  0     **** LYP Y 11
     8 GLP5        6 GROUP        1 Y    GLP  0     **** GLP Y 13
     9 ALL1       13 GROUP        1 Z    ALL  0     ROOT ALL Z 15
    10 SEL2        8 GROUP        1 Z    SEL  0     **** SEL Z 16
    11 LYL4        2 GROUP        1 Z    LYL  0     **** LYL Z 18
    12 GLL5        5 GROUP        1 Z    GLL  0     **** GLL Z 20
@<TRIPOS>SET

