#    Name: 4dmm_NAP_2_ligand
#    Modification time : Tue Mar 25 09:56:45 2014

@<TRIPOS>MOLECULE
4dmm_NAP_2_ligand
   73    77     1     0     0
SMALL
NO_CHARGES


@<TRIPOS>ATOM
      1 PA         46.0710   43.4470   49.9710 P.3       1 NAP301      0.0000 
      2 O1A        45.7320   43.0150   51.3830 O.co2     1 NAP301      0.0000 
      3 O2A        47.6090   43.9700   49.4290 O.co2     1 NAP301      0.0000 
      4 O5B        46.0660   45.0260   50.5730 O.3       1 NAP301      0.0000 
      5 C5B        44.9100   45.4770   51.3480 C.3       1 NAP301      0.0000 
      6 C4B        44.8830   46.9880   51.7160 C.3       1 NAP301      0.0000 
      7 O4B        43.6140   47.3330   52.3770 O.3       1 NAP301      0.0000 
      8 C3B        45.9840   47.3600   52.7020 C.3       1 NAP301      0.0000 
      9 O3B        46.6320   48.4990   52.1530 O.3       1 NAP301      0.0000 
     10 C2B        45.2280   47.6770   54.0140 C.3       1 NAP301      0.0000 
     11 O2B        45.8620   48.6520   54.8670 O.3       1 NAP301      0.0000 
     12 C1B        43.9120   48.2140   53.5190 C.3       1 NAP301      0.0000 
     13 N9A        42.8440   48.0390   54.5760 N.pl3     1 NAP301      0.0000 
     14 C8A        42.4560   46.8470   55.0940 C.2       1 NAP301      0.0000 
     15 N7A        41.4680   47.0440   55.9800 N.2       1 NAP301      0.0000 
     16 C5A        41.2040   48.3570   56.0420 C.ar      1 NAP301      0.0000 
     17 C6A        40.2880   49.1410   56.7810 C.ar      1 NAP301      0.0000 
     18 N6A        39.4480   48.5850   57.6650 N.pl3     1 NAP301      0.0000 
     19 N1A        40.2730   50.4800   56.5720 N.ar      1 NAP301      0.0000 
     20 C2A        41.1170   51.0560   55.7230 C.ar      1 NAP301      0.0000 
     21 N3A        42.0050   50.3400   55.0240 N.ar      1 NAP301      0.0000 
     22 C4A        42.0810   48.9990   55.1470 C.ar      1 NAP301      0.0000 
     23 O3         44.7960   44.0600   49.0190 O.3       1 NAP301      0.0000 
     24 PN         44.8670   44.1350   47.3400 P.3       1 NAP301      0.0000 
     25 O1N        44.8500   42.7220   46.8400 O.co2     1 NAP301      0.0000 
     26 O2N        45.9550   45.0790   46.9370 O.co2     1 NAP301      0.0000 
     27 O5D        43.4020   44.7340   46.9700 O.3       1 NAP301      0.0000 
     28 C5D        43.0510   46.0830   46.6630 C.3       1 NAP301      0.0000 
     29 C4D        41.5610   46.1110   46.3560 C.3       1 NAP301      0.0000 
     30 O4D        41.3980   45.4250   45.0990 O.3       1 NAP301      0.0000 
     31 C3D        40.6930   45.3320   47.3980 C.3       1 NAP301      0.0000 
     32 O3D        39.3990   45.9060   47.4900 O.3       1 NAP301      0.0000 
     33 C2D        40.5450   43.9530   46.7930 C.3       1 NAP301      0.0000 
     34 O2D        39.4080   43.2790   47.3890 O.3       1 NAP301      0.0000 
     35 C1D        40.3940   44.3490   45.2800 C.3       1 NAP301      0.0000 
     36 N1N        40.6190   43.2340   44.3030 N.pl3     1 NAP301      0.0000 
     37 C2N        41.8170   42.4760   44.3480 C.ar      1 NAP301      0.0000 
     38 C3N        42.0330   41.4240   43.4400 C.ar      1 NAP301      0.0000 
     39 C7N        43.3540   40.6070   43.5230 C.2       1 NAP301      0.0000 
     40 O7N        44.3100   41.0280   44.2040 O.2       1 NAP301      0.0000 
     41 N7N        43.3230   39.4300   42.8590 N.am      1 NAP301      0.0000 
     42 C4N        41.0360   41.1000   42.4930 C.ar      1 NAP301      0.0000 
     43 C5N        39.8530   41.8510   42.4520 C.ar      1 NAP301      0.0000 
     44 C6N        39.6390   42.9230   43.3430 C.ar      1 NAP301      0.0000 
     45 P2B        46.4310   47.9900   56.2240 P.3       1 NAP301      0.0000 
     46 O1X        47.4300   46.9010   55.9670 O.co2     1 NAP301      0.0000 
     47 O2X        46.9430   49.1890   57.0950 O.co2     1 NAP301      0.0000 
     48 O3X        45.2460   47.4630   57.2070 O.co2     1 NAP301      0.0000 
     49 H          44.8325   44.9073   52.3047 H         1 NAP301      0.0000 
     50 H          43.9616   45.2577   50.8018 H         1 NAP301      0.0000 
     51 H          45.0034   47.5679   50.8266 H         1 NAP301      0.0000 
     52 H          46.6003   46.5311   52.8426 H         1 NAP301      0.0000 
     53 H          45.0319   46.7475   54.5085 H         1 NAP301      0.0000 
     54 H          44.0104   49.2008   53.2198 H         1 NAP301      0.0000 
     55 H          42.8404   45.9861   54.8544 H         1 NAP301      0.0000 
     56 H          39.5077   47.5917   57.7641 H         1 NAP301      0.0000 
     57 H          38.8367   49.2132   58.1464 H         1 NAP301      0.0000 
     58 H          41.0895   52.1057   55.5937 H         1 NAP301      0.0000 
     59 H          43.5832   46.4526   45.7891 H         1 NAP301      0.0000 
     60 H          43.2362   46.7519   47.5008 H         1 NAP301      0.0000 
     61 H          41.2152   47.1061   46.2926 H         1 NAP301      0.0000 
     62 H          41.2153   45.2711   48.2921 H         1 NAP301      0.0000 
     63 H          41.4665   43.4527   46.9019 H         1 NAP301      0.0000 
     64 H          39.4114   44.7771   45.1652 H         1 NAP301      0.0000 
     65 H          42.5287   42.7012   45.0508 H         1 NAP301      0.0000 
     66 H          42.4520   39.1892   42.4307 H         1 NAP301      0.0000 
     67 H          44.1738   38.9045   42.8550 H         1 NAP301      0.0000 
     68 H          41.1803   40.3253   41.8467 H         1 NAP301      0.0000 
     69 H          39.1248   41.6186   41.7601 H         1 NAP301      0.0000 
     70 H          38.7792   43.4679   43.2904 H         1 NAP301      0.0000 
     71 H          47.3667   48.7139   52.7965 H         1 NAP301      0.0000 
     72 H          39.5531   46.8421   47.8063 H         1 NAP301      0.0000 
     73 H          38.9496   43.9795   47.9360 H         1 NAP301      0.0000 
@<TRIPOS>BOND
     1    2    1 ar   
     2    3    1 ar   
     3    4    1 1    
     4   23    1 1    
     5    5    4 1    
     6    6    5 1    
     7   49    5 1    
     8   50    5 1    
     9    7    6 1    
    10    8    6 1    
    11   51    6 1    
    12   12    7 1    
    13    9    8 1    
    14   10    8 1    
    15   52    8 1    
    16   71    9 1    
    17   11   10 1    
    18   12   10 1    
    19   53   10 1    
    20   45   11 1    
    21   13   12 1    
    22   54   12 1    
    23   14   13 1    
    24   22   13 1    
    25   15   14 2    
    26   55   14 1    
    27   16   15 1    
    28   17   16 ar   
    29   22   16 ar   
    30   18   17 1    
    31   19   17 ar   
    32   56   18 1    
    33   57   18 1    
    34   20   19 ar   
    35   21   20 ar   
    36   58   20 1    
    37   22   21 ar   
    38   24   23 1    
    39   25   24 ar   
    40   26   24 ar   
    41   27   24 1    
    42   28   27 1    
    43   29   28 1    
    44   59   28 1    
    45   60   28 1    
    46   30   29 1    
    47   31   29 1    
    48   61   29 1    
    49   35   30 1    
    50   32   31 1    
    51   33   31 1    
    52   62   31 1    
    53   72   32 1    
    54   34   33 1    
    55   35   33 1    
    56   63   33 1    
    57   73   34 1    
    58   36   35 1    
    59   64   35 1    
    60   37   36 ar   
    61   44   36 ar   
    62   38   37 ar   
    63   65   37 1    
    64   39   38 1    
    65   42   38 ar   
    66   40   39 2    
    67   41   39 am   
    68   66   41 1    
    69   67   41 1    
    70   43   42 ar   
    71   68   42 1    
    72   44   43 ar   
    73   69   43 1    
    74   70   44 1    
    75   46   45 ar   
    76   47   45 ar   
    77   48   45 ar   
@<TRIPOS>SUBSTRUCTURE
     1 NAP301      1 GROUP   
@<TRIPOS>SET

