#    Name: 2ZVB_1_CAVITY_N1_6.mol2
#    Modification time : Tue Mar 11 06:30:34 2014

@<TRIPOS>MOLECULE
2ZVB_1_CAVITY_N1_6.mol2
  151     0     6     0     0
SMALL
NO_CHARGES


@<TRIPOS>ATOM
      1 N          -7.2366   11.4277   27.6465 N.2       2 ALA2        0.0000 
      2 O          -7.3542   10.4039   28.7364 O.2       2 ALA2        0.0000 
      3 N          -7.8721   10.4722   26.6805 N.2       2 ALA2        0.0000 
      4 O          -7.9897    9.4484   27.7704 O.2       2 ALA2        0.0000 
      5 CA         -5.2475   11.8457   28.2537 C.3       5 GLY6        0.0000 
      6 N          -5.3651   10.8219   29.3436 N.2       2 ALA2        0.0000 
      7 CA         -5.6479   12.9378   25.1077 C.3       5 GLY6        0.0000 
      8 CA         -5.7655   11.9140   26.1977 C.3       5 GLY6        0.0000 
      9 DU         -5.8830   10.8902   27.2876 H         6 CUB7        0.0000 
     10 DU         -6.0005    9.8664   28.3776 H         6 CUB7        0.0000 
     11 CA         -6.1181    8.8426   29.4676 C.3       5 GLY6        0.0000 
     12 N          -6.2834   11.9823   24.1417 N.2       2 ALA2        0.0000 
     13 OG         -6.4009   10.9585   25.2316 O.2       1 SER1        0.0000 
     14 OG         -6.5185    9.9347   26.3216 O.2       1 SER1        0.0000 
     15 CA         -6.6360    8.9109   27.4116 C.3       5 GLY6        0.0000 
     16 CA         -6.7535    7.8871   28.5015 C.3       5 GLY6        0.0000 
     17 CA         -2.1528   17.3144   25.4670 C.3       5 GLY6        0.0000 
     18 OG         -2.2703   16.2906   26.5570 O.2       1 SER1        0.0000 
     19 N          -2.7882   16.3589   24.5010 N.2       2 ALA2        0.0000 
     20 N          -2.9058   15.3351   25.5909 N.2       2 ALA2        0.0000 
     21 CA         -3.0233   14.3113   26.6809 C.3       5 GLY6        0.0000 
     22 N          -3.5412   14.3796   24.6249 N.2       2 ALA2        0.0000 
     23 CA         -3.6588   13.3558   25.7149 C.3       5 GLY6        0.0000 
     24 CA         -3.7763   12.3320   26.8048 C.3       5 GLY6        0.0000 
     25 CA         -3.8939   11.3082   27.8948 C.3       5 GLY6        0.0000 
     26 N          -4.0114   10.2844   28.9848 N.2       2 ALA2        0.0000 
     27 N          -4.1767   13.4241   23.6589 N.2       2 ALA2        0.0000 
     28 N          -4.2943   12.4003   24.7488 N.2       2 ALA2        0.0000 
     29 DU         -4.4118   11.3765   25.8388 H         6 CUB7        0.0000 
     30 CA         -4.5293   10.3527   26.9288 C.3       5 GLY6        0.0000 
     31 CA         -4.6469    9.3289   28.0187 C.3       5 GLY6        0.0000 
     32 CA         -4.7644    8.3051   29.1087 C.3       5 GLY6        0.0000 
     33 N          -4.8122   12.4686   22.6929 N.2       2 ALA2        0.0000 
     34 OG         -4.9297   11.4448   23.7828 O.2       1 SER1        0.0000 
     35 OG         -5.0473   10.4210   24.8728 O.2       1 SER1        0.0000 
     36 CA         -5.3999    7.3496   28.1427 C.3       5 GLY6        0.0000 
     37 DU         -0.1637   17.7325   26.0742 H         6 CUB7        0.0000 
     38 OG         -0.2812   16.7087   27.1641 O.2       1 SER1        0.0000 
     39 DU         -0.7991   16.7770   25.1081 H         6 CUB7        0.0000 
     40 OG         -0.9167   15.7532   26.1981 O.2       1 SER1        0.0000 
     41 O          -1.4346   15.8215   24.1421 O.2       2 ALA2        0.0000 
     42 OG         -1.5521   14.7977   25.2321 O.2       1 SER1        0.0000 
     43 OG         -1.6697   13.7739   26.3220 O.2       1 SER1        0.0000 
     44 OG         -1.9048   11.7263   28.5020 O.2       1 SER1        0.0000 
     45 CA         -2.0223   10.7025   29.5919 C.3       5 GLY6        0.0000 
     46 O          -2.1876   13.8422   24.2661 O.2       2 ALA2        0.0000 
     47 DU         -2.3051   12.8184   25.3560 H         6 CUB7        0.0000 
     48 OG         -2.4227   11.7946   26.4460 O.2       1 SER1        0.0000 
     49 DU         -2.5402   10.7708   27.5359 H         6 CUB7        0.0000 
     50 O          -2.6578    9.7470   28.6259 O.2       2 ALA2        0.0000 
     51 N          -2.7753    8.7232   29.7159 N.2       2 ALA2        0.0000 
     52 O          -2.8231   12.8867   23.3000 O.2       2 ALA2        0.0000 
     53 DU         -2.9406   11.8629   24.3900 H         6 CUB7        0.0000 
     54 CA         -3.0582   10.8391   25.4800 C.3       5 GLY6        0.0000 
     55 CA         -3.1757    9.8153   26.5699 C.3       5 GLY6        0.0000 
     56 CA         -3.2932    8.7915   27.6599 C.3       5 GLY6        0.0000 
     57 CA         -3.4108    7.7677   28.7499 C.3       5 GLY6        0.0000 
     58 CZ         -3.5761   10.9074   23.4240 C.ar      4 PHE5        0.0000 
     59 CA         -3.6936    9.8836   24.5139 C.3       5 GLY6        0.0000 
     60 CZ          1.0725   16.1712   26.8053 C.ar      4 PHE5        0.0000 
     61 CZ          0.9549   15.1474   27.8952 C.ar      4 PHE5        0.0000 
     62 O           0.6721   17.2633   23.6593 O.2       2 ALA2        0.0000 
     63 DU          0.5545   16.2395   24.7493 H         6 CUB7        0.0000 
     64 OG          0.4370   15.2157   25.8393 O.2       1 SER1        0.0000 
     65 OG          0.3194   14.1919   26.9292 O.2       1 SER1        0.0000 
     66 O          -0.0809   15.2840   23.7833 O.2       2 ALA2        0.0000 
     67 O          -0.1985   14.2602   24.8732 O.2       2 ALA2        0.0000 
     68 OG         -0.3160   13.2364   25.9632 O.2       1 SER1        0.0000 
     69 OG         -0.4336   12.2126   27.0532 O.2       1 SER1        0.0000 
     70 CA         -0.5511   11.1888   28.1431 C.3       5 GLY6        0.0000 
     71 O          -0.8340   13.3047   23.9072 O.2       2 ALA2        0.0000 
     72 DU         -0.9515   12.2809   24.9972 H         6 CUB7        0.0000 
     73 DU         -1.0690   11.2571   26.0871 H         6 CUB7        0.0000 
     74 N          -1.1866   10.2333   27.1771 N.2       2 ALA2        0.0000 
     75 O          -1.3041    9.2095   28.2671 O.2       2 ALA2        0.0000 
     76 O          -1.4694   12.3492   22.9412 O.2       2 ALA2        0.0000 
     77 CZ         -1.5870   11.3254   24.0311 C.ar      4 PHE5        0.0000 
     78 CZ         -1.7045   10.3016   25.1211 C.ar      4 PHE5        0.0000 
     79 CA         -1.8220    9.2778   26.2111 C.3       5 GLY6        0.0000 
     80 O          -1.9396    8.2540   27.3010 O.2       2 ALA2        0.0000 
     81 O           3.0616   16.5893   27.4124 O.2       2 ALA2        0.0000 
     82 CZ          2.9440   15.5655   28.5024 C.ar      4 PHE5        0.0000 
     83 CZ          2.8265   14.5417   29.5924 C.ar      4 PHE5        0.0000 
     84 DU          2.6612   17.6813   24.2665 H         6 CUB7        0.0000 
     85 DU          2.5436   16.6575   25.3565 H         6 CUB7        0.0000 
     86 DU          2.4261   15.6338   26.4464 H         6 CUB7        0.0000 
     87 CZ          2.3086   14.6100   27.5364 C.ar      4 PHE5        0.0000 
     88 O           2.1910   13.5862   28.6264 O.2       2 ALA2        0.0000 
     89 DU          2.0257   16.7258   23.3005 H         6 CUB7        0.0000 
     90 DU          1.9082   15.7021   24.3904 H         6 CUB7        0.0000 
     91 DU          1.7906   14.6783   25.4804 H         6 CUB7        0.0000 
     92 DU          1.6731   13.6545   26.5704 H         6 CUB7        0.0000 
     93 O           1.5555   12.6307   27.6603 O.2       2 ALA2        0.0000 
     94 O           1.3902   15.7703   22.3344 O.2       2 ALA2        0.0000 
     95 O           1.2727   14.7466   23.4244 O.2       2 ALA2        0.0000 
     96 N           1.1552   13.7228   24.5144 N.2       2 ALA2        0.0000 
     97 DU          1.0376   12.6990   25.6043 H         6 CUB7        0.0000 
     98 N           0.9201   11.6752   26.6943 N.2       2 ALA2        0.0000 
     99 O           0.5197   12.7673   23.5484 O.2       2 ALA2        0.0000 
    100 DU          0.4022   11.7435   24.6383 H         6 CUB7        0.0000 
    101 N           0.2846   10.7197   25.7283 N.2       2 ALA2        0.0000 
    102 N           0.1671    9.6959   26.8182 N.2       2 ALA2        0.0000 
    103 N          -0.1158   11.8118   22.5823 N.2       2 ALA2        0.0000 
    104 CZ         -0.2333   10.7880   23.6723 C.ar      4 PHE5        0.0000 
    105 CZ         -0.3509    9.7642   24.7623 C.ar      4 PHE5        0.0000 
    106 CZ         -0.4684    8.7404   25.8522 C.ar      4 PHE5        0.0000 
    107 O          -0.5859    7.7166   26.9422 O.2       2 ALA2        0.0000 
    108 O           4.4152   16.0518   27.0536 O.2       2 ALA2        0.0000 
    109 O           4.2977   15.0280   28.1436 O.2       2 ALA2        0.0000 
    110 CA          4.1801   14.0042   29.2335 C.3       5 GLY6        0.0000 
    111 O           3.8973   16.1201   24.9976 O.2       2 ALA2        0.0000 
    112 O           3.7797   15.0963   26.0876 O.2       2 ALA2        0.0000 
    113 DU          3.6622   14.0725   27.1775 H         6 CUB7        0.0000 
    114 O           3.5447   13.0487   28.2675 O.2       2 ALA2        0.0000 
    115 DU          3.4969   17.2122   21.8517 H         6 CUB7        0.0000 
    116 DU          3.3794   16.1884   22.9416 H         6 CUB7        0.0000 
    117 N           3.2618   15.1646   24.0316 N.2       2 ALA2        0.0000 
    118 N           3.1443   14.1408   25.1215 N.2       2 ALA2        0.0000 
    119 N           3.0267   13.1170   26.2115 N.2       2 ALA2        0.0000 
    120 N           2.9092   12.0932   27.3015 N.2       2 ALA2        0.0000 
    121 OG          2.8614   16.2567   20.8856 O.2       1 SER1        0.0000 
    122 N           2.7439   15.2329   21.9756 N.2       2 ALA2        0.0000 
    123 N           2.6264   14.2091   23.0656 N.2       2 ALA2        0.0000 
    124 N           2.3913   12.1615   25.2455 N.2       2 ALA2        0.0000 
    125 N           2.2737   11.1377   26.3355 N.2       2 ALA2        0.0000 
    126 N           2.2260   15.3012   19.9196 N.2       2 ALA2        0.0000 
    127 N           2.1084   14.2774   21.0096 N.2       2 ALA2        0.0000 
    128 N           1.9909   13.2536   22.0995 N.2       2 ALA2        0.0000 
    129 N           1.8733   12.2298   23.1895 N.2       2 ALA2        0.0000 
    130 N           1.7558   11.2060   24.2795 N.2       2 ALA2        0.0000 
    131 N           1.6383   10.1822   25.3694 N.2       2 ALA2        0.0000 
    132 N           1.5207    9.1584   26.4594 N.2       2 ALA2        0.0000 
    133 N           1.1203   10.2505   23.3134 N.2       2 ALA2        0.0000 
    134 N           1.0028    9.2267   24.4034 N.2       2 ALA2        0.0000 
    135 N           0.8852    8.2029   25.4934 N.2       2 ALA2        0.0000 
    136 NZ          5.2509   15.5826   24.6388 N.2       3 LYS4        0.0000 
    137 N           5.1334   14.5588   25.7287 N.2       2 ALA2        0.0000 
    138 CA          5.0159   13.5350   26.8187 C.3       5 GLY6        0.0000 
    139 NZ          4.7330   15.6509   22.5828 N.2       3 LYS4        0.0000 
    140 N           4.6155   14.6271   23.6727 N.2       2 ALA2        0.0000 
    141 CA          4.2628   11.5557   26.9426 C.3       5 GLY6        0.0000 
    142 DU          4.2151   15.7192   20.5268 H         6 CUB7        0.0000 
    143 N           4.0975   14.6954   21.6167 N.2       2 ALA2        0.0000 
    144 N           3.6274   10.6002   25.9766 N.2       2 ALA2        0.0000 
    145 OG          3.5796   14.7637   19.5608 O.2       1 SER1        0.0000 
    146 CA          3.4621   13.7399   20.6507 C.3       5 GLY6        0.0000 
    147 OG          2.9442   13.8082   18.5947 O.2       1 SER1        0.0000 
    148 CA          2.8266   12.7844   19.6847 C.3       5 GLY6        0.0000 
    149 NZ          5.4512   14.1580   21.2579 N.2       3 LYS4        0.0000 
    150 CA          4.8157   13.2025   20.2919 C.3       5 GLY6        0.0000 
    151 CZ          4.1803   12.2470   19.3258 C.ar      4 PHE5        0.0000 
@<TRIPOS>BOND
@<TRIPOS>SUBSTRUCTURE
     1 SER1       13 GROUP   
     2 ALA2        1 GROUP   
     3 LYS4      136 GROUP   
     4 PHE5       58 GROUP   
     5 GLY6        5 GROUP   
     6 CUB7        9 GROUP   
@<TRIPOS>SET

