#    Name: 2zvb_SAH_1_INTS_M
#    Modification time : Tue Mar 25 11:09:38 2014

@<TRIPOS>MOLECULE
2zvb_SAH_1_INTS_M
   72     0     9     0     0
SMALL
NO_CHARGES


@<TRIPOS>ATOM
      1 O           3.5540    8.3815   26.7470 O.2       1 ALC1        0.0000 
      2 O           2.6660    9.2500   26.2530 O.2       7 ALL1        0.0000 
      3 O           4.4420    7.5130   27.2410 O.2       4 ALP1        0.0000 
      4 O           3.1540    9.0295   25.0345 O.2       1 ALC1        0.0000 
      5 O           3.6420    8.8090   23.8160 O.2       4 ALP1        0.0000 
      6 CA          0.7770    8.4150   27.9430 C.3       3 GLC5        0.0000 
      7 CA          1.1680    9.5030   26.1460 C.3       9 GLL5        0.0000 
      8 CA          0.3860    7.3270   29.7400 C.3       6 GLP5        0.0000 
      9 CA         -0.3230    8.9905   23.8140 C.3       3 GLC5        0.0000 
     10 CA          0.6770   10.2920   24.9690 C.3       9 GLL5        0.0000 
     11 CA         -1.3230    7.6890   22.6590 C.3       6 GLP5        0.0000 
     12 CA         -0.5655   10.6205   22.5780 C.3       3 GLC5        0.0000 
     13 CA          0.3210   12.3980   23.2770 C.3       9 GLL5        0.0000 
     14 CA         -1.4520    8.8430   21.8790 C.3       6 GLP5        0.0000 
     15 N           1.7755    6.7090   27.5130 N.am      2 SEC2        0.0000 
     16 N           1.1680    7.0480   26.2970 N.am      8 SEL2        0.0000 
     17 N           2.3830    6.3700   28.7290 N.am      5 SEP2        0.0000 
     18 N           0.5775    6.0185   25.6655 N.am      2 SEC2        0.0000 
     19 N          -0.0130    4.9890   25.0340 N.am      5 SEP2        0.0000 
     20 N          -0.4195    6.5380   25.5850 N.am      2 SEC2        0.0000 
     21 N          -0.8260    8.0870   26.1360 N.am      8 SEL2        0.0000 
     22 N          -1.7300    6.8780   26.2050 N.am      2 SEC2        0.0000 
     23 N          -2.6340    5.6690   26.2740 N.am      5 SEP2        0.0000 
     24 CA         -1.9115   10.6650   22.6370 C.3       3 GLC5        0.0000 
     25 CA         -2.3710   12.4870   23.3950 C.3       9 GLL5        0.0000 
     26 CA         -3.5120   13.7745   21.4335 C.3       3 GLC5        0.0000 
     27 CA         -3.6310   13.2590   23.5720 C.3       9 GLL5        0.0000 
     28 CA         -3.3930   14.2900   19.2950 C.3       6 GLP5        0.0000 
     29 N          -3.6010   13.5670   21.1145 N.am      2 SEC2        0.0000 
     30 N          -3.7510   14.2650   22.5630 N.am      8 SEL2        0.0000 
     31 N          -3.4510   12.8690   19.6660 N.am      5 SEP2        0.0000 
     32 O          -4.5400   15.2040   23.3065 O.2       1 ALC1        0.0000 
     33 O          -3.7510   14.2650   22.5630 O.2       7 ALL1        0.0000 
     34 O          -5.3290   16.1430   24.0500 O.2       4 ALP1        0.0000 
     35 N          -4.2250   12.3320   20.9055 N.am      2 SEC2        0.0000 
     36 N          -4.9990   11.7950   22.1450 N.am      8 SEL2        0.0000 
     37 O          -5.7810   10.4470   22.6850 O.2       1 ALC1        0.0000 
     38 O          -4.9990   11.7950   22.1450 O.2       7 ALL1        0.0000 
     39 O          -6.5630    9.0990   23.2250 O.2       4 ALP1        0.0000 
     40 CA         -4.0030    9.1985   24.7455 C.3       3 GLC5        0.0000 
     41 CA         -4.0490   10.9580   24.2730 C.3       9 GLL5        0.0000 
     42 CA         -3.9570    7.4390   25.2180 C.3       6 GLP5        0.0000 
     43 CA         -2.7505    9.9005   23.0760 C.3       3 GLC5        0.0000 
     44 CA         -5.4510   12.8270   27.7035 C.3       3 GLC5        0.0000 
     45 CA         -5.5280   10.6960   27.4980 C.3       9 GLL5        0.0000 
     46 CA         -5.3740   14.9580   27.9090 C.3       6 GLP5        0.0000 
     47 CA         -8.4595   11.4635   28.8590 C.3       3 GLC5        0.0000 
     48 CA         -6.7190   10.4770   28.2930 C.3       9 GLL5        0.0000 
     49 CA        -10.2000   12.4500   29.4250 C.3       6 GLP5        0.0000 
     50 CA         -8.1605    9.0495   28.7745 C.3       3 GLC5        0.0000 
     51 CA         -9.6020    7.6220   29.2560 C.3       6 GLP5        0.0000 
     52 O          -7.6805    9.7650   30.7240 O.2       1 ALC1        0.0000 
     53 O          -6.7330   10.4600   29.6370 O.2       7 ALL1        0.0000 
     54 O          -8.6280    9.0700   31.8110 O.2       4 ALP1        0.0000 
     55 N          -8.9570   10.1515   28.5435 N.am      2 SEC2        0.0000 
     56 N          -7.8760   10.2770   27.5630 N.am      8 SEL2        0.0000 
     57 N         -10.0380   10.0260   29.5240 N.am      5 SEP2        0.0000 
     58 CA         -8.3120    8.3895   25.8305 C.3       3 GLC5        0.0000 
     59 CA         -7.9080   10.2780   26.1980 C.3       9 GLL5        0.0000 
     60 CA         -8.7160    6.5010   25.4630 C.3       6 GLP5        0.0000 
     61 CA         -8.7550    8.9500   27.7270 C.3       3 GLC5        0.0000 
     62 CA         -8.5540   11.6750   24.6630 C.3       3 GLC5        0.0000 
     63 CA         -9.2000   13.0720   23.1280 C.3       6 GLP5        0.0000 
     64 CA         -7.7770    9.4440   24.3125 C.3       3 GLC5        0.0000 
     65 CA         -7.6460    8.6100   22.4270 C.3       6 GLP5        0.0000 
     66 N          -6.6775    9.7890   24.3180 N.am      2 SEC2        0.0000 
     67 N          -6.7920   10.4790   25.4110 N.am      8 SEL2        0.0000 
     68 N          -6.5630    9.0990   23.2250 N.am      5 SEP2        0.0000 
     69 CA          2.1187   11.3528   22.6588 C.3       3 GLC5        0.0000 
     70 CA          3.4650   10.6600   21.3150 C.3       6 GLP5        0.0000 
     71 CA         -4.7710    9.0640   26.0147 C.3       3 GLC5        0.0000 
     72 CA         -5.6420   10.6820   26.1250 C.3       9 GLL5        0.0000 
@<TRIPOS>BOND
@<TRIPOS>SUBSTRUCTURE
     1 ALC1        1 GROUP        1 X    ALC  0     ROOT ALC X 1
     2 SEC2       15 GROUP        1 X    SEC  0     **** SEC X 2
     3 GLC5        6 GROUP        1 X    GLC  0     **** GLC X 6
     4 ALP1        3 GROUP        1 Y    ALP  0     ROOT ALP Y 8
     5 SEP2       17 GROUP        1 Y    SEP  0     **** SEP Y 9
     6 GLP5        8 GROUP        1 Y    GLP  0     **** GLP Y 13
     7 ALL1        2 GROUP        1 Z    ALL  0     ROOT ALL Z 15
     8 SEL2       16 GROUP        1 Z    SEL  0     **** SEL Z 16
     9 GLL5        7 GROUP        1 Z    GLL  0     **** GLL Z 20
@<TRIPOS>SET

