#    Name: 2zvb_SAH_1_ligand
#    Modification time : Tue Mar 25 11:09:38 2014

@<TRIPOS>MOLECULE
2zvb_SAH_1_ligand
   46    48     1     0     0
SMALL
NO_CHARGES


@<TRIPOS>ATOM
      1 N           2.6660    9.2500   26.2530 N.4       1 SAH301      0.0000 
      2 CA          1.1680    9.5030   26.1460 C.3       1 SAH301      0.0000 
      3 CB          0.6770   10.2920   24.9690 C.3       1 SAH301      0.0000 
      4 CG          1.2240   11.6930   24.7280 C.3       1 SAH301      0.0000 
      5 SD          0.3210   12.3980   23.2770 S.3       1 SAH301      0.0000 
      6 C           0.4650    8.0800   26.1960 C.2       1 SAH301      0.0000 
      7 O           1.1680    7.0480   26.2970 O.co2     1 SAH301      0.0000 
      8 OXT        -0.8260    8.0870   26.1360 O.co2     1 SAH301      0.0000 
      9 C5'        -1.0720   13.1140   24.0490 C.3       1 SAH301      0.0000 
     10 C4'        -2.3710   12.4870   23.3950 C.3       1 SAH301      0.0000 
     11 O4'        -2.5880   11.2060   24.0340 O.3       1 SAH301      0.0000 
     12 C3'        -3.6310   13.2590   23.5720 C.3       1 SAH301      0.0000 
     13 O3'        -3.7510   14.2650   22.5630 O.3       1 SAH301      0.0000 
     14 C2'        -4.6850   12.1260   23.4960 C.3       1 SAH301      0.0000 
     15 O2'        -4.9990   11.7950   22.1450 O.3       1 SAH301      0.0000 
     16 C1'        -4.0490   10.9580   24.2730 C.3       1 SAH301      0.0000 
     17 N9         -4.3150   10.9180   25.6080 N.pl3     1 SAH301      0.0000 
     18 C8         -3.5400   11.0520   26.7450 C.2       1 SAH301      0.0000 
     19 N7         -4.1760   10.9360   27.8720 N.2       1 SAH301      0.0000 
     20 C5         -5.5280   10.6960   27.4980 C.ar      1 SAH301      0.0000 
     21 C6         -6.7190   10.4770   28.2930 C.ar      1 SAH301      0.0000 
     22 N6         -6.7330   10.4600   29.6370 N.pl3     1 SAH301      0.0000 
     23 N1         -7.8760   10.2770   27.5630 N.ar      1 SAH301      0.0000 
     24 C2         -7.9080   10.2780   26.1980 C.ar      1 SAH301      0.0000 
     25 N3         -6.7920   10.4790   25.4110 N.ar      1 SAH301      0.0000 
     26 C4         -5.6420   10.6820   26.1250 C.ar      1 SAH301      0.0000 
     27 H           0.8434    9.9955   27.0832 H         1 SAH301      0.0000 
     28 H          -0.4498   10.3656   25.0259 H         1 SAH301      0.0000 
     29 H           0.8488    9.6871   24.0293 H         1 SAH301      0.0000 
     30 H           2.2172   11.7195   24.3906 H         1 SAH301      0.0000 
     31 H           0.9885   12.3865   25.4794 H         1 SAH301      0.0000 
     32 H          -0.9972   14.1411   23.8464 H         1 SAH301      0.0000 
     33 H          -0.9865   12.8515   25.0616 H         1 SAH301      0.0000 
     34 H          -2.1670   12.3312   22.3497 H         1 SAH301      0.0000 
     35 H          -3.6470   13.6389   24.5699 H         1 SAH301      0.0000 
     36 H          -5.5392   12.4603   24.0608 H         1 SAH301      0.0000 
     37 H          -4.2976   10.0569   23.7275 H         1 SAH301      0.0000 
     38 H          -2.5436   11.2288   26.6607 H         1 SAH301      0.0000 
     39 H          -7.4227    9.8741   30.0625 H         1 SAH301      0.0000 
     40 H          -6.0525   11.0347   30.0914 H         1 SAH301      0.0000 
     41 H          -8.8341   10.1167   25.7120 H         1 SAH301      0.0000 
     42 H           3.1297    9.9752   26.7621 H         1 SAH301      0.0000 
     43 H           2.8648    8.3894   26.7220 H         1 SAH301      0.0000 
     44 H           3.0994    9.2003   25.3532 H         1 SAH301      0.0000 
     45 H          -3.8300   15.1265   23.0647 H         1 SAH301      0.0000 
     46 H          -5.3232   10.8496   22.1789 H         1 SAH301      0.0000 
@<TRIPOS>BOND
     1    2    1 1    
     2   42    1 1    
     3   43    1 1    
     4   44    1 1    
     5    3    2 1    
     6    6    2 1    
     7   27    2 1    
     8    4    3 1    
     9   28    3 1    
    10   29    3 1    
    11    5    4 1    
    12   30    4 1    
    13   31    4 1    
    14    9    5 1    
    15    7    6 ar   
    16    8    6 ar   
    17   10    9 1    
    18   32    9 1    
    19   33    9 1    
    20   11   10 1    
    21   12   10 1    
    22   34   10 1    
    23   16   11 1    
    24   13   12 1    
    25   14   12 1    
    26   35   12 1    
    27   45   13 1    
    28   15   14 1    
    29   16   14 1    
    30   36   14 1    
    31   46   15 1    
    32   17   16 1    
    33   37   16 1    
    34   18   17 1    
    35   26   17 1    
    36   19   18 2    
    37   38   18 1    
    38   20   19 1    
    39   21   20 ar   
    40   26   20 ar   
    41   22   21 1    
    42   23   21 ar   
    43   39   22 1    
    44   40   22 1    
    45   24   23 ar   
    46   25   24 ar   
    47   41   24 1    
    48   26   25 ar   
@<TRIPOS>SUBSTRUCTURE
     1 SAH301      1 GROUP   
@<TRIPOS>SET

