#    Name: 2WE5_2_CAVITY_N1_6.mol2
#    Modification time : Mon Mar 10 19:33:47 2014

@<TRIPOS>MOLECULE
2WE5_2_CAVITY_N1_6.mol2
   26     0     5     0     0
SMALL
NO_CHARGES


@<TRIPOS>ATOM
      1 NZ         37.7197   51.6072   34.0674 N.2       3 LYS4        0.0000 
      2 N          38.2465   50.2177   34.2723 N.2       1 ALA2        0.0000 
      3 OD1        38.7733   48.8283   34.4772 O.3       2 ASP3        0.0000 
      4 OD1        37.3254   49.7108   33.2025 O.3       2 ASP3        0.0000 
      5 OD1        37.9845   45.0355   32.7474 O.3       2 ASP3        0.0000 
      6 CA         37.5901   43.1390   31.8825 C.3       4 GLY6        0.0000 
      7 CA         38.1169   41.7496   32.0874 C.3       4 GLY6        0.0000 
      8 CA         38.6571   46.4176   29.4102 C.3       4 GLY6        0.0000 
      9 CA         39.1838   45.0282   29.6151 C.3       4 GLY6        0.0000 
     10 OD1        38.3856   49.9606   32.1713 O.3       2 ASP3        0.0000 
     11 OD1        38.9123   48.5712   32.3762 O.3       2 ASP3        0.0000 
     12 OD1        39.4391   47.1817   32.5811 O.3       2 ASP3        0.0000 
     13 CA         39.9659   45.7923   32.7860 C.3       4 GLY6        0.0000 
     14 OD1        37.9912   48.0642   31.3064 O.3       2 ASP3        0.0000 
     15 OD1        38.5180   46.6747   31.5113 O.3       2 ASP3        0.0000 
     16 DU         39.0447   45.2853   31.7162 H         5 CUB7        0.0000 
     17 O          39.5715   43.8959   31.9211 O.2       1 ALA2        0.0000 
     18 CA         37.5968   46.1678   30.4414 C.3       4 GLY6        0.0000 
     19 O          38.1236   44.7783   30.6464 O.2       1 ALA2        0.0000 
     20 CA         38.6504   43.3889   30.8513 C.3       4 GLY6        0.0000 
     21 O          39.4458   50.2105   31.1400 O.2       1 ALA2        0.0000 
     22 DU         39.9726   48.8210   31.3449 H         5 CUB7        0.0000 
     23 CA         39.0514   48.3140   30.2751 C.3       4 GLY6        0.0000 
     24 CA         39.5782   46.9246   30.4800 C.3       4 GLY6        0.0000 
     25 O          40.1049   45.5352   30.6849 O.2       1 ALA2        0.0000 
     26 CA         36.5299   42.8892   32.9138 C.3       4 GLY6        0.0000 
@<TRIPOS>BOND
@<TRIPOS>SUBSTRUCTURE
     1 ALA2        2 GROUP   
     2 ASP3        3 GROUP   
     3 LYS4        1 GROUP   
     4 GLY6        6 GROUP   
     5 CUB7       16 GROUP   
@<TRIPOS>SET

