#    Name: 2we5_ADP_2_INTS_M
#    Modification time : Tue Mar 25 04:08:32 2014

@<TRIPOS>MOLECULE
2we5_ADP_2_INTS_M
   64     0    15     0     0
SMALL
NO_CHARGES


@<TRIPOS>ATOM
      1 NZ         33.6750   47.8795   30.6835 N.4       3 LYC4        0.0000 
      2 NZ         34.5190   46.9700   31.3450 N.4      13 LYL4        0.0000 
      3 NZ         32.8310   48.7890   30.0220 N.4       8 LYP4        0.0000 
      4 Zn         35.0630   47.4070   32.1415 Zn        4 ZIC7        0.0000 
      5 Zn         34.5190   46.9700   31.3450 Zn       14 ZIL7        0.0000 
      6 Zn         35.6070   47.8440   32.9380 Zn        9 ZIP7        0.0000 
      7 N          33.6750   47.8795   30.6835 N.am      2 SEC2        0.0000 
      8 N          34.5190   46.9700   31.3450 N.am     12 SEL2        0.0000 
      9 N          32.8310   48.7890   30.0220 N.am      7 SEP2        0.0000 
     10 NZ         32.9340   47.0455   30.1500 N.4       3 LYC4        0.0000 
     11 NZ         33.0370   45.3020   30.2780 N.4      13 LYL4        0.0000 
     12 N          31.7320   45.4340   30.6150 N.am      2 SEC2        0.0000 
     13 N          33.0370   45.3020   30.2780 N.am     12 SEL2        0.0000 
     14 N          30.4270   45.5660   30.9520 N.am      7 SEP2        0.0000 
     15 N          35.3450   43.6035   30.5540 N.am      2 SEC2        0.0000 
     16 N          35.0190   44.5720   31.5260 N.am     12 SEL2        0.0000 
     17 N          35.6710   42.6350   29.5820 N.am      7 SEP2        0.0000 
     18 Zn         34.8860   47.4960   33.6080 Zn        4 ZIC7        0.0000 
     19 Zn         34.1650   47.1480   34.2780 Zn       14 ZIL7        0.0000 
     20 CA         30.1190   46.1715   31.7690 C.3       5 GLC5        0.0000 
     21 CA         30.4850   46.5400   33.8220 C.3      15 GLL5        0.0000 
     22 CA         29.7530   45.8030   29.7160 C.3      10 GLP5        0.0000 
     23 CA         28.7015   47.7570   33.4345 C.3       5 GLC5        0.0000 
     24 CA         26.9180   48.9740   33.0470 C.3      10 GLP5        0.0000 
     25 CA         31.0845   47.6685   32.4015 C.3       5 GLC5        0.0000 
     26 CA         31.6840   48.7970   30.9810 C.3      10 GLP5        0.0000 
     27 CA         27.7355   47.1925   33.9925 C.3       5 GLC5        0.0000 
     28 CA         28.5530   45.4110   34.9380 C.3      15 GLL5        0.0000 
     29 CA         26.4265   45.2615   37.5710 C.3       5 GLC5        0.0000 
     30 CA         28.0380   45.4000   36.3940 C.3      15 GLL5        0.0000 
     31 CA         24.8150   45.1230   38.7480 C.3      10 GLP5        0.0000 
     32 CA         26.9865   46.3325   38.2985 C.3       5 GLC5        0.0000 
     33 CA         28.5700   46.6880   36.9360 C.3      15 GLL5        0.0000 
     34 CA         25.4030   45.9770   39.6610 C.3      10 GLP5        0.0000 
     35 CA         30.5135   47.8080   36.9955 C.3       5 GLC5        0.0000 
     36 CA         32.4570   48.9280   37.0550 C.3      10 GLP5        0.0000 
     37 CA         27.1565   50.0350   36.3570 C.3       5 GLC5        0.0000 
     38 CA         25.8650   49.1470   37.4060 C.3      15 GLL5        0.0000 
     39 CA         28.4480   50.9230   35.3080 C.3      10 GLP5        0.0000 
     40 CA         23.9115   50.6050   35.1910 C.3       5 GLC5        0.0000 
     41 CA         24.6000   49.6370   37.0670 C.3      15 GLL5        0.0000 
     42 CA         23.2230   51.5730   33.3150 C.3      10 GLP5        0.0000 
     43 CA         25.9335   50.4940   35.7505 C.3       5 GLC5        0.0000 
     44 CA         27.2670   51.3510   34.4340 C.3      10 GLP5        0.0000 
     45 O          24.1915   51.7655   38.4740 O.2       1 ALC1        0.0000 
     46 O          23.9150   50.7310   37.5580 O.2      11 ALL1        0.0000 
     47 O          24.4680   52.8000   39.3900 O.2       6 ALP1        0.0000 
     48 N          22.5850   49.2690   35.4315 N.am      2 SEC2        0.0000 
     49 N          23.8640   48.9760   36.0770 N.am     12 SEL2        0.0000 
     50 N          21.3060   49.5620   34.7860 N.am      7 SEP2        0.0000 
     51 CA         24.7330   46.7805   33.8365 C.3       5 GLC5        0.0000 
     52 CA         24.4070   47.8370   35.4570 C.3      15 GLL5        0.0000 
     53 CA         25.0590   45.7240   32.2160 C.3      10 GLP5        0.0000 
     54 CA         23.3510   48.6035   34.0070 C.3       5 GLC5        0.0000 
     55 CA         22.2950   49.3700   32.5570 C.3      10 GLP5        0.0000 
     56 CA         25.6625   48.4055   34.2520 C.3       5 GLC5        0.0000 
     57 CA         26.6200   48.4865   34.8890 C.3       5 GLC5        0.0000 
     58 CA         26.3220   47.9990   36.7310 C.3      15 GLL5        0.0000 
     59 CA         31.3005   47.6385   35.7680 C.3       5 GLC5        0.0000 
     60 CA         29.8030   46.1580   35.1400 C.3      15 GLL5        0.0000 
     61 CA         26.6783   44.7313   34.8705 C.3       5 GLC5        0.0000 
     62 CA         25.0610   44.0570   34.0750 C.3      10 GLP5        0.0000 
     63 CA         23.9372   48.9580   38.7302 C.3       5 GLC5        0.0000 
     64 CA         22.6420   48.5240   40.2240 C.3      10 GLP5        0.0000 
@<TRIPOS>BOND
@<TRIPOS>SUBSTRUCTURE
     1 ALC1       45 GROUP        1 X    ALC  0     ROOT ALC X 1
     2 SEC2        7 GROUP        1 X    SEC  0     **** SEC X 2
     3 LYC4        1 GROUP        1 X    LYC  0     **** LYC X 4
     4 ZIC7        4 GROUP        1 X    ZIC  0     **** ZIC X 5
     5 GLC5       20 GROUP        1 X    GLC  0     **** GLC X 6
     6 ALP1       47 GROUP        1 Y    ALP  0     ROOT ALP Y 8
     7 SEP2        9 GROUP        1 Y    SEP  0     **** SEP Y 9
     8 LYP4        3 GROUP        1 Y    LYP  0     **** LYP Y 11
     9 ZIP7        6 GROUP        1 Y    ZIP  0     **** ZIP Y 12
    10 GLP5       22 GROUP        1 Y    GLP  0     **** GLP Y 13
    11 ALL1       46 GROUP        1 Z    ALL  0     ROOT ALL Z 15
    12 SEL2        8 GROUP        1 Z    SEL  0     **** SEL Z 16
    13 LYL4        2 GROUP        1 Z    LYL  0     **** LYL Z 18
    14 ZIL7        5 GROUP        1 Z    ZIL  0     **** ZIL Z 19
    15 GLL5       21 GROUP        1 Z    GLL  0     **** GLL Z 20
@<TRIPOS>SET

