#    Name: 2we5_ADP_2_ligand
#    Modification time : Tue Mar 25 04:08:33 2014

@<TRIPOS>MOLECULE
2we5_ADP_2_ligand
   38    40     1     0     0
SMALL
NO_CHARGES


@<TRIPOS>ATOM
      1 PB         33.9320   45.6010   31.4250 P.3       1 ADP1311     0.0000 
      2 O1B        34.5190   46.9700   31.3450 O.co2     1 ADP1311     0.0000 
      3 O2B        33.0370   45.3020   30.2780 O.co2     1 ADP1311     0.0000 
      4 O3B        35.0190   44.5720   31.5260 O.co2     1 ADP1311     0.0000 
      5 PA         33.0180   46.2560   34.1270 P.3       1 ADP1311     0.0000 
      6 O1A        32.8310   45.1940   35.1150 O.co2     1 ADP1311     0.0000 
      7 O2A        34.1650   47.1480   34.2780 O.co2     1 ADP1311     0.0000 
      8 O3A        32.9980   45.5430   32.7020 O.3       1 ADP1311     0.0000 
      9 O5'        31.7440   47.2080   34.0080 O.3       1 ADP1311     0.0000 
     10 C5'        30.4850   46.5400   33.8220 C.3       1 ADP1311     0.0000 
     11 C4'        29.8030   46.1580   35.1400 C.3       1 ADP1311     0.0000 
     12 O4'        29.3670   47.3250   35.8880 O.3       1 ADP1311     0.0000 
     13 C3'        28.5530   45.4110   34.9380 C.3       1 ADP1311     0.0000 
     14 O3'        28.6810   44.1880   34.2550 O.3       1 ADP1311     0.0000 
     15 C2'        28.0380   45.4000   36.3940 C.3       1 ADP1311     0.0000 
     16 O2'        28.5890   44.2160   37.0940 O.3       1 ADP1311     0.0000 
     17 C1'        28.5700   46.6880   36.9360 C.3       1 ADP1311     0.0000 
     18 N9         27.5690   47.7350   37.2390 N.pl3     1 ADP1311     0.0000 
     19 C8         27.7620   48.7350   38.1920 C.2       1 ADP1311     0.0000 
     20 N7         26.7610   49.5790   38.3060 N.2       1 ADP1311     0.0000 
     21 C5         25.8650   49.1470   37.4060 C.ar      1 ADP1311     0.0000 
     22 C6         24.6000   49.6370   37.0670 C.ar      1 ADP1311     0.0000 
     23 N6         23.9150   50.7310   37.5580 N.pl3     1 ADP1311     0.0000 
     24 N1         23.8640   48.9760   36.0770 N.ar      1 ADP1311     0.0000 
     25 C2         24.4070   47.8370   35.4570 C.ar      1 ADP1311     0.0000 
     26 N3         25.6310   47.2980   35.7310 N.ar      1 ADP1311     0.0000 
     27 C4         26.3220   47.9990   36.7310 C.ar      1 ADP1311     0.0000 
     28 H          30.6081   45.6100   33.2301 H         1 ADP1311     0.0000 
     29 H          29.7750   47.1739   33.2523 H         1 ADP1311     0.0000 
     30 H          30.4729   45.5738   35.7397 H         1 ADP1311     0.0000 
     31 H          27.8683   46.1236   34.4168 H         1 ADP1311     0.0000 
     32 H          26.9915   45.4138   36.3690 H         1 ADP1311     0.0000 
     33 H          29.1961   46.5231   37.7831 H         1 ADP1311     0.0000 
     34 H          28.6110   48.7717   38.7263 H         1 ADP1311     0.0000 
     35 H          23.8010   47.3672   34.7143 H         1 ADP1311     0.0000 
     36 H          27.7426   43.8890   34.0818 H         1 ADP1311     0.0000 
     37 H          29.0820   43.7052   36.3896 H         1 ADP1311     0.0000 
     38 H          24.5178   51.1230   38.2530 H         1 ADP1311     0.0000 
@<TRIPOS>BOND
     1    2    1 ar   
     2    3    1 ar   
     3    4    1 ar   
     4    8    1 1    
     5    6    5 ar   
     6    7    5 ar   
     7    8    5 1    
     8    9    5 1    
     9   10    9 1    
    10   11   10 1    
    11   28   10 1    
    12   29   10 1    
    13   12   11 1    
    14   13   11 1    
    15   30   11 1    
    16   17   12 1    
    17   14   13 1    
    18   15   13 1    
    19   31   13 1    
    20   36   14 1    
    21   16   15 1    
    22   17   15 1    
    23   32   15 1    
    24   37   16 1    
    25   18   17 1    
    26   33   17 1    
    27   19   18 1    
    28   27   18 1    
    29   20   19 2    
    30   34   19 1    
    31   21   20 1    
    32   22   21 ar   
    33   27   21 ar   
    34   23   22 1    
    35   24   22 ar   
    36   38   23 1    
    37   25   24 ar   
    38   26   25 ar   
    39   35   25 1    
    40   27   26 ar   
@<TRIPOS>SUBSTRUCTURE
     1 ADP1311     1 GROUP   
@<TRIPOS>SET

