#    Name: 3MYU_1_CAVITY_N1_6.mol2
#    Modification time : Tue Mar 11 15:13:10 2014

@<TRIPOS>MOLECULE
3MYU_1_CAVITY_N1_6.mol2
  179     0     7     0     0
SMALL
NO_CHARGES


@<TRIPOS>ATOM
      1 CZ          0.4429   32.8147   38.7517 C.ar      5 PHE5        0.0000 
      2 CZ          0.9852   33.4767   37.5198 C.ar      5 PHE5        0.0000 
      3 OG          0.6500   31.4699   38.1203 O.2       1 SER1        0.0000 
      4 OG          1.1923   32.1319   36.8884 O.2       1 SER1        0.0000 
      5 CZ          1.7346   32.7939   35.6564 C.ar      5 PHE5        0.0000 
      6 CZ          3.9040   35.4419   30.7288 C.ar      5 PHE5        0.0000 
      7 NZ          4.4463   36.1040   29.4969 N.2       4 LYS4        0.0000 
      8 CZ          2.4841   32.1112   33.7931 C.ar      5 PHE5        0.0000 
      9 CZ          3.0264   32.7732   32.5611 C.ar      5 PHE5        0.0000 
     10 CZ          3.5688   33.4352   31.3292 C.ar      5 PHE5        0.0000 
     11 NZ          4.1111   34.0972   30.0973 N.2       4 LYS4        0.0000 
     12 NZ          4.6534   34.7592   28.8654 N.2       4 LYS4        0.0000 
     13 OG          2.6912   30.7664   33.1616 O.2       1 SER1        0.0000 
     14 NZ          3.2336   31.4284   31.9297 N.2       4 LYS4        0.0000 
     15 NZ          3.7759   32.0904   30.6978 N.2       4 LYS4        0.0000 
     16 NZ          4.3182   32.7524   29.4659 N.2       4 LYS4        0.0000 
     17 NZ          4.8606   33.4145   28.2339 N.2       4 LYS4        0.0000 
     18 OG          2.8984   29.4217   32.5301 O.2       1 SER1        0.0000 
     19 DU          3.4407   30.0837   31.2982 H         7 CUB7        0.0000 
     20 NZ          3.9830   30.7457   30.0663 N.2       4 LYS4        0.0000 
     21 NZ          4.5254   31.4077   28.8344 N.2       4 LYS4        0.0000 
     22 DU          5.0677   32.0697   27.6025 H         7 CUB7        0.0000 
     23 CZ          2.5631   27.4149   33.1306 C.ar      5 PHE5        0.0000 
     24 NZ          3.1055   28.0769   31.8987 N.2       4 LYS4        0.0000 
     25 NZ          3.6478   28.7389   30.6668 N.2       4 LYS4        0.0000 
     26 NZ          3.8549   27.3942   30.0353 N.2       4 LYS4        0.0000 
     27 DU          4.3973   28.0562   28.8034 H         7 CUB7        0.0000 
     28 NZ          4.0621   26.0494   29.4039 N.2       4 LYS4        0.0000 
     29 N           4.6044   26.7114   28.1719 N.2       2 ALA2        0.0000 
     30 N           5.1467   27.3734   26.9400 N.2       2 ALA2        0.0000 
     31 NZ          4.2692   24.7047   28.7724 N.2       4 LYS4        0.0000 
     32 CZ         -0.3979   33.5349   36.9422 C.ar      5 PHE5        0.0000 
     33 CZ          0.1444   34.1969   35.7103 C.ar      5 PHE5        0.0000 
     34 CZ         -0.7331   31.5281   37.5427 C.ar      5 PHE5        0.0000 
     35 CA         -0.1908   32.1901   36.3107 C.3       6 GLY6        0.0000 
     36 CZ          0.3515   32.8521   35.0788 C.ar      5 PHE5        0.0000 
     37 OG          0.5587   31.5074   34.4474 O.2       1 SER1        0.0000 
     38 CZ          1.1010   32.1694   33.2154 C.ar      5 PHE5        0.0000 
     39 CZ          0.7658   30.1626   33.8159 C.ar      5 PHE5        0.0000 
     40 NZ          1.3081   30.8246   32.5840 N.2       4 LYS4        0.0000 
     41 NZ          1.8505   31.4866   31.3521 N.2       4 LYS4        0.0000 
     42 NZ          3.4775   33.4727   27.6563 N.2       4 LYS4        0.0000 
     43 CZ          0.9729   28.8179   33.1844 C.ar      5 PHE5        0.0000 
     44 DU          1.5153   29.4799   31.9525 H         7 CUB7        0.0000 
     45 NZ          2.0576   30.1419   30.7206 N.2       4 LYS4        0.0000 
     46 NZ          2.5999   30.8039   29.4887 N.2       4 LYS4        0.0000 
     47 NZ          3.1423   31.4659   28.2568 N.2       4 LYS4        0.0000 
     48 NZ          3.6846   32.1279   27.0249 N.2       4 LYS4        0.0000 
     49 NZ          1.1800   27.4731   32.5530 N.2       4 LYS4        0.0000 
     50 NZ          1.7224   28.1351   31.3211 N.2       4 LYS4        0.0000 
     51 DU          2.2647   28.7971   30.0892 H         7 CUB7        0.0000 
     52 DU          2.8070   29.4591   28.8572 H         7 CUB7        0.0000 
     53 DU          3.3494   30.1211   27.6253 H         7 CUB7        0.0000 
     54 DU          3.8917   30.7831   26.3934 H         7 CUB7        0.0000 
     55 N           2.4718   27.4524   29.4577 N.2       2 ALA2        0.0000 
     56 N           3.0142   28.1144   28.2258 N.2       2 ALA2        0.0000 
     57 DU          3.5565   28.7764   26.9939 H         7 CUB7        0.0000 
     58 N           3.2213   26.7696   27.5943 N.2       2 ALA2        0.0000 
     59 N           3.7636   27.4316   26.3624 N.2       2 ALA2        0.0000 
     60 N           3.4284   25.4249   26.9629 N.2       2 ALA2        0.0000 
     61 CZ         -1.7810   33.5931   36.3646 C.ar      5 PHE5        0.0000 
     62 CZ         -1.0316   32.9103   34.5012 C.ar      5 PHE5        0.0000 
     63 CZ         -0.0750   30.8828   32.0064 C.ar      5 PHE5        0.0000 
     64 CZ         -0.4102   28.8761   32.6068 C.ar      5 PHE5        0.0000 
     65 CZ          0.1322   29.5381   31.3749 C.ar      5 PHE5        0.0000 
     66 NZ          0.6745   30.2001   30.1430 N.2       4 LYS4        0.0000 
     67 NZ          1.2168   30.8621   28.9111 N.2       4 LYS4        0.0000 
     68 NZ          1.7592   31.5241   27.6792 N.2       4 LYS4        0.0000 
     69 NZ          2.3015   32.1861   26.4472 N.2       4 LYS4        0.0000 
     70 CZ         -0.2031   27.5313   31.9754 C.ar      5 PHE5        0.0000 
     71 OG          0.3393   28.1933   30.7435 O.2       1 SER1        0.0000 
     72 OG          0.8816   28.8553   29.5115 O.2       1 SER1        0.0000 
     73 DU          1.4239   29.5173   28.2796 H         7 CUB7        0.0000 
     74 DU          1.9663   30.1793   27.0477 H         7 CUB7        0.0000 
     75 DU          2.5086   30.8413   25.8158 H         7 CUB7        0.0000 
     76 N           1.6311   28.1726   27.6482 N.2       2 ALA2        0.0000 
     77 O           2.1734   28.8346   26.4162 O.2       2 ALA2        0.0000 
     78 DU          2.7157   29.4966   25.1843 H         7 CUB7        0.0000 
     79 O           2.3805   27.4898   25.7848 O.2       2 ALA2        0.0000 
     80 OG         -0.7086   30.2583   29.5654 O.2       1 SER1        0.0000 
     81 NZ         -0.1663   30.9203   28.3335 N.2       4 LYS4        0.0000 
     82 OG          0.9184   32.2443   25.8696 O.2       1 SER1        0.0000 
     83 OG          0.0408   29.5755   27.7020 O.2       1 SER1        0.0000 
     84 OG          0.5832   30.2375   26.4701 O.2       1 SER1        0.0000 
     85 OG          1.1255   30.8995   25.2382 O.2       1 SER1        0.0000 
     86 N           0.2480   28.2308   27.0705 N.2       2 ALA2        0.0000 
     87 O           0.7903   28.8928   25.8386 O.2       2 ALA2        0.0000 
     88 OG          1.3326   29.5548   24.6067 O.2       1 SER1        0.0000 
     89 OG         -1.3423   29.6337   27.1244 O.2       1 SER1        0.0000 
     90 OG         -0.7999   30.2957   25.8925 O.2       1 SER1        0.0000 
     91 O          -0.5928   28.9510   25.2610 O.2       2 ALA2        0.0000 
     92 CA          7.9007   33.1857   40.4079 C.3       6 GLY6        0.0000 
     93 NZ         11.3618   35.8130   32.3849 N.2       4 LYS4        0.0000 
     94 CA          5.9753   32.5819   41.0622 C.3       6 GLY6        0.0000 
     95 CA          6.5176   33.2439   39.8303 C.3       6 GLY6        0.0000 
     96 N           7.0599   33.9059   38.5984 N.2       2 ALA2        0.0000 
     97 N           9.7716   37.2159   32.4388 N.2       2 ALA2        0.0000 
     98 N           6.1824   31.2371   40.4307 N.2       2 ALA2        0.0000 
     99 CA          6.7247   31.8991   39.1988 C.3       6 GLY6        0.0000 
    100 N           7.2671   32.5611   37.9669 N.2       2 ALA2        0.0000 
    101 CZ          3.2091   32.6983   39.9070 C.ar      5 PHE5        0.0000 
    102 OG          3.7514   33.3603   38.6750 O.2       1 SER1        0.0000 
    103 OG          7.0054   37.3323   31.2835 O.2       1 SER1        0.0000 
    104 OG          3.9585   32.0155   38.0436 O.2       1 SER1        0.0000 
    105 CZ          4.5008   32.6775   36.8117 C.ar      5 PHE5        0.0000 
    106 O           7.2125   35.9876   30.6521 O.2       2 ALA2        0.0000 
    107 O           7.7549   36.6496   29.4202 O.2       2 ALA2        0.0000 
    108 OG          4.7080   31.3328   36.1802 O.2       1 SER1        0.0000 
    109 CZ          5.2503   31.9948   34.9483 C.ar      5 PHE5        0.0000 
    110 O           5.7926   32.6568   33.7164 O.2       2 ALA2        0.0000 
    111 O           6.8773   33.9808   31.2525 O.2       2 ALA2        0.0000 
    112 O           7.4196   34.6428   30.0206 O.2       2 ALA2        0.0000 
    113 O           7.9620   35.3048   28.7887 O.2       2 ALA2        0.0000 
    114 N           5.4574   30.6500   34.3168 N.2       2 ALA2        0.0000 
    115 N           5.9998   31.3120   33.0849 N.2       2 ALA2        0.0000 
    116 NZ          6.5421   31.9740   31.8530 N.2       4 LYS4        0.0000 
    117 NZ          7.0844   32.6360   30.6211 N.2       4 LYS4        0.0000 
    118 NZ          7.6268   33.2980   29.3892 N.2       4 LYS4        0.0000 
    119 CA          6.2069   29.9673   32.4535 C.3       6 GLY6        0.0000 
    120 CA          6.7492   30.6293   31.2215 C.3       6 GLY6        0.0000 
    121 NZ          7.2916   31.2913   29.9896 N.2       4 LYS4        0.0000 
    122 CA          6.9564   29.2845   30.5901 C.3       6 GLY6        0.0000 
    123 DU          7.4987   29.9465   29.3582 H         7 CUB7        0.0000 
    124 CA          7.1635   27.9398   29.9586 C.3       6 GLY6        0.0000 
    125 CA          7.7058   28.6018   28.7267 C.3       6 GLY6        0.0000 
    126 CA          7.3706   26.5950   29.3272 C.3       6 GLY6        0.0000 
    127 CZ          1.8260   32.7565   39.3293 C.ar      5 PHE5        0.0000 
    128 CZ          2.3683   33.4185   38.0974 C.ar      5 PHE5        0.0000 
    129 OG          2.5754   32.0737   37.4660 O.2       1 SER1        0.0000 
    130 CZ          3.1177   32.7357   36.2341 C.ar      5 PHE5        0.0000 
    131 O           5.8294   36.0458   30.0745 O.2       2 ALA2        0.0000 
    132 OG          3.8672   32.0530   34.3707 O.2       1 SER1        0.0000 
    133 CZ          4.4095   32.7150   33.1388 C.ar      5 PHE5        0.0000 
    134 O           5.4942   34.0390   30.6749 O.2       2 ALA2        0.0000 
    135 O           6.0365   34.7010   29.4430 O.2       2 ALA2        0.0000 
    136 O           6.5789   35.3630   28.2111 O.2       2 ALA2        0.0000 
    137 OG          4.0743   30.7082   33.7392 O.2       1 SER1        0.0000 
    138 DU          4.6167   31.3702   32.5073 H         7 CUB7        0.0000 
    139 O           5.1590   32.0322   31.2754 O.2       2 ALA2        0.0000 
    140 DU          5.7013   32.6942   30.0435 H         7 CUB7        0.0000 
    141 DU          6.2437   33.3562   28.8116 H         7 CUB7        0.0000 
    142 DU          6.7860   34.0183   27.5796 H         7 CUB7        0.0000 
    143 N           4.2815   29.3635   33.1078 N.2       2 ALA2        0.0000 
    144 DU          4.8238   30.0255   31.8758 H         7 CUB7        0.0000 
    145 DU          5.3661   30.6875   30.6439 H         7 CUB7        0.0000 
    146 DU          5.9085   31.3495   29.4120 H         7 CUB7        0.0000 
    147 N           4.4886   28.0187   32.4763 N.2       2 ALA2        0.0000 
    148 CA          5.0309   28.6807   31.2444 C.3       6 GLY6        0.0000 
    149 DU          5.5733   29.3427   30.0125 H         7 CUB7        0.0000 
    150 NZ          5.2380   27.3360   30.6129 N.2       4 LYS4        0.0000 
    151 CA          5.7804   27.9980   29.3810 C.3       6 GLY6        0.0000 
    152 DU          6.3227   28.6600   28.1491 H         7 CUB7        0.0000 
    153 NZ          5.4452   25.9912   29.9815 N.2       4 LYS4        0.0000 
    154 DU          5.9875   26.6532   28.7496 H         7 CUB7        0.0000 
    155 OD1         5.6523   24.6465   29.3500 O.3       3 ASP3        0.0000 
    156 OD1         6.1946   25.3085   28.1181 O.3       3 ASP3        0.0000 
    157 CA          7.8094   33.2231   36.7350 C.3       6 GLY6        0.0000 
    158 NZ          9.9787   35.8712   31.8073 N.2       4 LYS4        0.0000 
    159 N           8.0165   31.8784   36.1035 N.2       2 ALA2        0.0000 
    160 NZ         10.7282   35.1884   29.9439 N.2       4 LYS4        0.0000 
    161 CZ          4.5922   32.6401   40.4846 C.ar      5 PHE5        0.0000 
    162 OG          5.1345   33.3021   39.2527 O.2       1 SER1        0.0000 
    163 OG          8.3885   37.2741   31.8612 O.2       1 SER1        0.0000 
    164 OG          4.7993   31.2953   39.8531 O.2       1 SER1        0.0000 
    165 CA          5.3416   31.9573   38.6212 C.3       6 GLY6        0.0000 
    166 CA          5.8840   32.6193   37.3893 C.3       6 GLY6        0.0000 
    167 CA          6.4263   33.2813   36.1574 C.3       6 GLY6        0.0000 
    168 CA          8.5956   35.9294   31.2297 C.3       6 GLY6        0.0000 
    169 O           9.1380   36.5914   29.9978 O.2       2 ALA2        0.0000 
    170 CA          6.0911   31.2746   36.7578 C.3       6 GLY6        0.0000 
    171 N           6.6334   31.9366   35.5259 N.2       2 ALA2        0.0000 
    172 CA          7.1757   32.5986   34.2940 C.3       6 GLY6        0.0000 
    173 NZ          8.8028   34.5846   30.5982 N.2       4 LYS4        0.0000 
    174 NZ          9.3451   35.2466   29.3663 N.2       4 LYS4        0.0000 
    175 NZ          7.3829   31.2538   33.6625 N.2       4 LYS4        0.0000 
    176 NZ          9.0099   33.2398   29.9668 N.2       4 LYS4        0.0000 
    177 NZ          8.1323   30.5711   31.7992 N.2       4 LYS4        0.0000 
    178 NZ          8.6747   31.2331   30.5672 N.2       4 LYS4        0.0000 
    179 CA          9.0889   28.5436   29.3043 C.3       6 GLY6        0.0000 
@<TRIPOS>BOND
@<TRIPOS>SUBSTRUCTURE
     1 SER1        3 GROUP   
     2 ALA2       29 GROUP   
     3 ASP3      155 GROUP   
     4 LYS4        7 GROUP   
     5 PHE5        1 GROUP   
     6 GLY6       35 GROUP   
     7 CUB7       19 GROUP   
@<TRIPOS>SET

