#    Name: 3myu_VIB_1_INTS_M
#    Modification time : Tue Mar 25 00:19:14 2014

@<TRIPOS>MOLECULE
3myu_VIB_1_INTS_M
   43     0     6     0     0
SMALL
NO_CHARGES


@<TRIPOS>ATOM
      1 CA          8.8855   33.0930   36.5200 C.3       2 GLC5        0.0000 
      2 CA          7.3720   32.4670   37.8460 C.3       6 GLL5        0.0000 
      3 CA         10.3990   33.7190   35.1940 C.3       4 GLP5        0.0000 
      4 CA          9.2525   32.7590   38.7840 C.3       2 GLC5        0.0000 
      5 CA         11.1330   33.0510   39.7220 C.3       4 GLP5        0.0000 
      6 O           8.5045   32.2415   32.7580 O.2       1 ALC1        0.0000 
      7 O           7.1120   31.8910   33.0170 O.2       5 ALL1        0.0000 
      8 O           9.8970   32.5920   32.4990 O.2       3 ALP1        0.0000 
      9 CA         -0.6325   31.1050   32.7390 C.3       2 GLC5        0.0000 
     10 CA          1.4130   31.2720   32.6770 C.3       6 GLL5        0.0000 
     11 CA         -2.6780   30.9380   32.8010 C.3       4 GLP5        0.0000 
     12 CA          0.8325   33.0910   31.8755 C.3       2 GLC5        0.0000 
     13 CA          0.2520   34.9100   31.0740 C.3       4 GLP5        0.0000 
     14 CA          1.8395   33.2215   33.3990 C.3       2 GLC5        0.0000 
     15 CA          2.2660   35.1710   34.1210 C.3       4 GLP5        0.0000 
     16 CA          1.5370   29.9490   34.4135 C.3       2 GLC5        0.0000 
     17 CA          1.6610   28.6260   36.1500 C.3       4 GLP5        0.0000 
     18 CA         -1.1380   28.4925   31.0965 C.3       2 GLC5        0.0000 
     19 CA          0.5710   27.7890   31.0280 C.3       6 GLL5        0.0000 
     20 CA         -2.8470   29.1960   31.1650 C.3       4 GLP5        0.0000 
     21 CA         -1.1840   28.2530   32.3080 C.3       2 GLC5        0.0000 
     22 CA          0.7170   28.2300   32.4560 C.3       6 GLL5        0.0000 
     23 CA         -3.0850   28.2760   32.1600 C.3       4 GLP5        0.0000 
     24 CA          0.5040   28.5175   34.3180 C.3       2 GLC5        0.0000 
     25 CA          0.2910   28.8050   36.1800 C.3       4 GLP5        0.0000 
     26 CA          3.7075   33.5530   33.1205 C.3       2 GLC5        0.0000 
     27 CA          4.1650   31.8800   33.0680 C.3       6 GLL5        0.0000 
     28 CA          3.2500   35.2260   33.1730 C.3       4 GLP5        0.0000 
     29 CA          6.7700   33.9655   35.2955 C.3       2 GLC5        0.0000 
     30 CA          6.4350   32.0600   34.2710 C.3       6 GLL5        0.0000 
     31 CA          7.1050   35.8710   36.3200 C.3       4 GLP5        0.0000 
     32 CA          7.5600   30.3290   34.8595 C.3       2 GLC5        0.0000 
     33 CA          8.6850   28.5980   35.4480 C.3       4 GLP5        0.0000 
     34 CA          7.6140   30.4675   36.0160 C.3       2 GLC5        0.0000 
     35 CA          6.5430   32.3370   36.5840 C.3       6 GLL5        0.0000 
     36 CA          5.1755   30.6190   36.7955 C.3       2 GLC5        0.0000 
     37 CA          4.4150   32.2300   35.5780 C.3       6 GLL5        0.0000 
     38 CA          5.9360   29.0080   38.0130 C.3       4 GLP5        0.0000 
     39 CA          7.0312   34.1365   36.7675 C.3       2 GLC5        0.0000 
     40 CA          6.4467   30.7050   37.6140 C.3       2 GLC5        0.0000 
     41 CA          6.1225   28.2568   33.0217 C.3       2 GLC5        0.0000 
     42 CA          4.6150   29.5150   33.0040 C.3       6 GLL5        0.0000 
     43 CA          8.1140   27.7340   33.1390 C.3       4 GLP5        0.0000 
@<TRIPOS>BOND
@<TRIPOS>SUBSTRUCTURE
     1 ALC1        6 GROUP        1 X    ALC  0     ROOT ALC X 1
     2 GLC5        1 GROUP        1 X    GLC  0     **** GLC X 6
     3 ALP1        8 GROUP        1 Y    ALP  0     ROOT ALP Y 8
     4 GLP5        3 GROUP        1 Y    GLP  0     **** GLP Y 13
     5 ALL1        7 GROUP        1 Z    ALL  0     ROOT ALL Z 15
     6 GLL5        2 GROUP        1 Z    GLL  0     **** GLL Z 20
@<TRIPOS>SET

