#    Name: 3myu_VIB_1_ligand
#    Modification time : Tue Mar 25 00:19:14 2014

@<TRIPOS>MOLECULE
3myu_VIB_1_ligand
   35    36     1     0     0
SMALL
NO_CHARGES


@<TRIPOS>ATOM
      1 CM2         7.3720   32.4670   37.8460 C.3       1 VIB500      0.0000 
      2 N4A         7.1120   31.8910   33.0170 N.pl3     1 VIB500      0.0000 
      3 CM4         1.4130   31.2720   32.6770 C.3       1 VIB500      0.0000 
      4 O1          0.6950   28.8980   30.2110 O.3       1 VIB500      0.0000 
      5 C7          0.5710   27.7890   31.0280 C.3       1 VIB500      0.0000 
      6 C6          0.7170   28.2300   32.4560 C.3       1 VIB500      0.0000 
      7 C2          4.6150   29.5150   33.0040 C.2       1 VIB500      0.0000 
      8 S1          3.6470   28.0440   32.8050 S.3       1 VIB500      0.0000 
      9 C5          2.0820   28.8490   32.6450 C.2       1 VIB500      0.0000 
     10 C4          2.4500   30.1870   32.7590 C.2       1 VIB500      0.0000 
     11 N3          3.7280   30.4760   32.9440 N.pl3     1 VIB500      0.0000 
     12 C7A         4.1650   31.8800   33.0680 C.3       1 VIB500      0.0000 
     13 C4A         6.4350   32.0600   34.2710 C.ar      1 VIB500      0.0000 
     14 N3A         7.1610   32.1960   35.4170 N.ar      1 VIB500      0.0000 
     15 C2A         6.5430   32.3370   36.5840 C.ar      1 VIB500      0.0000 
     16 N1A         5.2010   32.3520   36.6740 N.ar      1 VIB500      0.0000 
     17 C6A         4.4150   32.2300   35.5780 C.ar      1 VIB500      0.0000 
     18 C5A         5.0160   32.0750   34.3220 C.ar      1 VIB500      0.0000 
     19 H           6.5284   31.8161   32.2085 H         1 VIB500      0.0000 
     20 H           8.1108   31.8623   33.0566 H         1 VIB500      0.0000 
     21 H           1.3420   27.0303   30.8305 H         1 VIB500      0.0000 
     22 H          -0.4072   27.2969   30.9270 H         1 VIB500      0.0000 
     23 H           0.6135   27.3746   33.1175 H         1 VIB500      0.0000 
     24 H          -0.0483   28.9631   32.6946 H         1 VIB500      0.0000 
     25 H           5.4769   29.3454   33.1028 H         1 VIB500      0.0000 
     26 H           3.2994   32.5472   33.1303 H         1 VIB500      0.0000 
     27 H           4.7593   32.1751   32.1974 H         1 VIB500      0.0000 
     28 H           3.3906   32.2482   35.6441 H         1 VIB500      0.0000 
     29 H           7.9546   31.6674   37.9917 H         1 VIB500      0.0000 
     30 H           7.9729   33.2657   37.8150 H         1 VIB500      0.0000 
     31 H           6.7980   32.5635   38.6591 H         1 VIB500      0.0000 
     32 H           1.8179   32.1810   32.7757 H         1 VIB500      0.0000 
     33 H           0.9309   31.2595   31.8010 H         1 VIB500      0.0000 
     34 H           0.7215   31.1798   33.3935 H         1 VIB500      0.0000 
     35 H          -0.2378   29.1105   29.9199 H         1 VIB500      0.0000 
@<TRIPOS>BOND
     1   15    1 1    
     2   29    1 1    
     3   30    1 1    
     4   31    1 1    
     5   13    2 1    
     6   19    2 1    
     7   20    2 1    
     8   10    3 1    
     9   32    3 1    
    10   33    3 1    
    11   34    3 1    
    12    5    4 1    
    13   35    4 1    
    14    6    5 1    
    15   21    5 1    
    16   22    5 1    
    17    9    6 1    
    18   23    6 1    
    19   24    6 1    
    20    8    7 1    
    21   11    7 2    
    22   25    7 1    
    23    9    8 1    
    24   10    9 2    
    25   11   10 1    
    26   12   11 1    
    27   18   12 1    
    28   26   12 1    
    29   27   12 1    
    30   14   13 ar   
    31   18   13 ar   
    32   15   14 ar   
    33   16   15 ar   
    34   17   16 ar   
    35   18   17 ar   
    36   28   17 1    
@<TRIPOS>SUBSTRUCTURE
     1 VIB500      1 GROUP   
@<TRIPOS>SET

