#    Name: 1hb1_OCV_1_INTS_M
#    Modification time : Tue Mar 25 05:19:44 2014

@<TRIPOS>MOLECULE
1hb1_OCV_1_INTS_M
   63     0     9     0     0
SMALL
NO_CHARGES


@<TRIPOS>ATOM
      1 CA         16.2450   34.5205    6.8040 C.3       3 GLC5        0.0000 
      2 CA         15.8110   36.3100    6.0950 C.3       9 GLL5        0.0000 
      3 CA         16.6790   32.7310    7.5130 C.3       6 GLP5        0.0000 
      4 CA         14.3735   34.8720    5.9200 C.3       3 GLC5        0.0000 
      5 CA         12.9360   33.4340    5.7450 C.3       6 GLP5        0.0000 
      6 CA         16.2260   39.0845    4.7895 C.3       3 GLC5        0.0000 
      7 CA         15.2170   37.5540    5.4190 C.3       9 GLL5        0.0000 
      8 CA         17.2350   40.6150    4.1600 C.3       6 GLP5        0.0000 
      9 CA         13.3440   35.6140    5.8425 C.3       3 GLC5        0.0000 
     10 CA         13.7520   37.7940    5.9400 C.3       9 GLL5        0.0000 
     11 CA         15.2860   39.8585    4.6770 C.3       3 GLC5        0.0000 
     12 CA         13.3370   39.1020    5.1940 C.3       9 GLL5        0.0000 
     13 CA         12.9715   41.0275    4.9100 C.3       3 GLC5        0.0000 
     14 CA         12.6060   42.9530    4.6260 C.3       6 GLP5        0.0000 
     15 CA         10.5385   38.1065    3.5110 C.3       3 GLC5        0.0000 
     16 CA          9.5270   39.4990    4.8560 C.3       9 GLL5        0.0000 
     17 CA         11.5500   36.7140    2.1660 C.3       6 GLP5        0.0000 
     18 CA         10.8395   41.7250    4.1980 C.3       3 GLC5        0.0000 
     19 CA          9.0730   40.4970    3.7700 C.3       9 GLL5        0.0000 
     20 CA         10.5095   38.2685    2.1330 C.3       3 GLC5        0.0000 
     21 CA          9.4690   39.8230    2.1000 C.3       9 GLL5        0.0000 
     22 NZ         19.4865   36.1015    5.9720 N.4       2 LYC4        0.0000 
     23 NZ         18.1790   36.2300    6.4520 N.4       8 LYL4        0.0000 
     24 NZ         21.0240   35.4560    4.2830 N.4       5 LYP4        0.0000 
     25 N          19.4865   36.1015    5.9720 N.am      1 SEC2        0.0000 
     26 N          18.1790   36.2300    6.4520 N.am      7 SEL2        0.0000 
     27 N          20.7940   35.9730    5.4920 N.am      4 SEP2        0.0000 
     28 NZ         18.6875   35.5530    3.9425 N.4       2 LYC4        0.0000 
     29 NZ         17.4030   35.8760    4.3820 N.4       8 LYL4        0.0000 
     30 N          18.6875   35.5530    3.9425 N.am      1 SEC2        0.0000 
     31 N          17.4030   35.8760    4.3820 N.am      7 SEL2        0.0000 
     32 N          19.9720   35.2300    3.5030 N.am      4 SEP2        0.0000 
     33 N          16.9340   34.8240    3.7225 N.am      1 SEC2        0.0000 
     34 N          16.4650   33.7720    3.0630 N.am      4 SEP2        0.0000 
     35 CA          7.0570   35.9065    5.4885 C.3       3 GLC5        0.0000 
     36 CA          6.5800   37.1930    4.2540 C.3       9 GLL5        0.0000 
     37 CA          7.5340   34.6200    6.7230 C.3       6 GLP5        0.0000 
     38 CA          5.3685   35.9340    1.0630 C.3       3 GLC5        0.0000 
     39 CA          6.1330   37.1180    2.7590 C.3       9 GLL5        0.0000 
     40 CA          4.6040   34.7500   -0.6330 C.3       6 GLP5        0.0000 
     41 CA          6.6315   34.9220    1.2795 C.3       3 GLC5        0.0000 
     42 CA          7.3300   36.7400    1.8320 C.3       9 GLL5        0.0000 
     43 CA          5.9330   33.1040    0.7270 C.3       6 GLP5        0.0000 
     44 CA          8.4640   35.2055    1.7040 C.3       3 GLC5        0.0000 
     45 CA          9.5980   33.6710    1.5760 C.3       6 GLP5        0.0000 
     46 CA          9.4400   36.7270    1.9990 C.3       3 GLC5        0.0000 
     47 CA          3.7765   38.7650    1.7750 C.3       3 GLC5        0.0000 
     48 CA          5.7500   38.5920    2.4550 C.3       9 GLL5        0.0000 
     49 CA          1.8030   38.9380    1.0950 C.3       6 GLP5        0.0000 
     50 CA          4.1820   39.3785    3.5155 C.3       3 GLC5        0.0000 
     51 CA          2.6140   40.1650    4.5760 C.3       6 GLP5        0.0000 
     52 N           4.6130   38.0815    7.2580 N.am      1 SEC2        0.0000 
     53 N           5.3430   38.0860    6.1540 N.am      7 SEL2        0.0000 
     54 N           3.8830   38.0770    8.3620 N.am      4 SEP2        0.0000 
     55 N           4.5050   35.2010    4.5180 N.am      1 SEC2        0.0000 
     56 N           4.4770   36.3990    5.0640 N.am      7 SEL2        0.0000 
     57 N           4.5330   34.0030    3.9720 N.am      4 SEP2        0.0000 
     58 CA         13.2024   37.1335    4.0909 C.3       3 GLC5        0.0000 
     59 CA         12.4940   35.8790    2.7450 C.3       6 GLP5        0.0000 
     60 CA          8.4500   41.5155    5.0540 C.3       3 GLC5        0.0000 
     61 CA          7.6000   43.0330    5.7950 C.3       6 GLP5        0.0000 
     62 CA          8.9045   41.8395    2.3100 C.3       3 GLC5        0.0000 
     63 CA          8.5380   43.5190    1.6850 C.3       6 GLP5        0.0000 
@<TRIPOS>BOND
@<TRIPOS>SUBSTRUCTURE
     1 SEC2       25 GROUP        1 X    SEC  0     ROOT SEC X 2
     2 LYC4       22 GROUP        1 X    LYC  0     **** LYC X 4
     3 GLC5        1 GROUP        1 X    GLC  0     **** GLC X 6
     4 SEP2       27 GROUP        1 Y    SEP  0     ROOT SEP Y 9
     5 LYP4       24 GROUP        1 Y    LYP  0     **** LYP Y 11
     6 GLP5        3 GROUP        1 Y    GLP  0     **** GLP Y 13
     7 SEL2       26 GROUP        1 Z    SEL  0     ROOT SEL Z 16
     8 LYL4       23 GROUP        1 Z    LYL  0     **** LYL Z 18
     9 GLL5        2 GROUP        1 Z    GLL  0     **** GLL Z 20
@<TRIPOS>SET

