#    Name: 1hb1_OCV_1_ligand
#    Modification time : Tue Mar 25 05:19:44 2014

@<TRIPOS>MOLECULE
1hb1_OCV_1_ligand
   46    45     1     0     0
SMALL
NO_CHARGES


@<TRIPOS>ATOM
      1 C1         17.2420   36.1090    5.5900 C.2       1 OCV1332     0.0000 
      2 C2         15.8110   36.3100    6.0950 C.3       1 OCV1332     0.0000 
      3 C3         15.2170   37.5540    5.4190 C.3       1 OCV1332     0.0000 
      4 C4         13.7520   37.7940    5.9400 C.3       1 OCV1332     0.0000 
      5 C7         13.3370   39.1020    5.1940 C.3       1 OCV1332     0.0000 
      6 C10        11.9110   39.3870    5.5800 C.2       1 OCV1332     0.0000 
      7 N11        10.9510   39.2210    4.6680 N.am      1 OCV1332     0.0000 
      8 C12         9.5270   39.4990    4.8560 C.3       1 OCV1332     0.0000 
      9 C13         8.7870   38.1800    4.6880 C.2       1 OCV1332     0.0000 
     10 N14        15.8060   36.4730    7.6320 N.4       1 OCV1332     0.0000 
     11 O15        11.5310   39.6930    6.7200 O.2       1 OCV1332     0.0000 
     12 C16         9.0730   40.4970    3.7700 C.3       1 OCV1332     0.0000 
     13 S17         9.4690   39.8230    2.1000 S.3       1 OCV1332     0.0000 
     14 O18         9.2480   37.0840    4.6320 O.2       1 OCV1332     0.0000 
     15 O19        18.1790   36.2300    6.4520 O.co2     1 OCV1332     0.0000 
     16 O20        17.4030   35.8760    4.3820 O.co2     1 OCV1332     0.0000 
     17 C30         6.5800   37.1930    4.2540 C.3       1 OCV1332     0.0000 
     18 C31         5.4030   37.2500    5.2210 C.2       1 OCV1332     0.0000 
     19 C32         6.1330   37.1180    2.7590 C.3       1 OCV1332     0.0000 
     20 C33         7.3300   36.7400    1.8320 C.3       1 OCV1332     0.0000 
     21 C37         5.7500   38.5920    2.4550 C.3       1 OCV1332     0.0000 
     22 O42         5.3430   38.0860    6.1540 O.co2     1 OCV1332     0.0000 
     23 O43         4.4770   36.3990    5.0640 O.co2     1 OCV1332     0.0000 
     24 O29         7.4630   38.3470    4.5360 O.3       1 OCV1332     0.0000 
     25 H          15.2240   35.4557    5.8316 H         1 OCV1332     0.0000 
     26 H          15.1787   37.4085    4.3510 H         1 OCV1332     0.0000 
     27 H          15.8103   38.4217    5.6604 H         1 OCV1332     0.0000 
     28 H          13.7775   37.9694    6.9714 H         1 OCV1332     0.0000 
     29 H          13.1419   37.0024    5.6295 H         1 OCV1332     0.0000 
     30 H          13.4173   38.9301    4.1400 H         1 OCV1332     0.0000 
     31 H          13.9822   39.8939    5.5156 H         1 OCV1332     0.0000 
     32 H          11.1953   38.8526    3.6932 H         1 OCV1332     0.0000 
     33 H           9.3338   39.9006    5.8090 H         1 OCV1332     0.0000 
     34 H           9.6125   41.4048    3.7731 H         1 OCV1332     0.0000 
     35 H           8.0255   40.6186    3.7140 H         1 OCV1332     0.0000 
     36 H           7.1357   36.2674    4.4753 H         1 OCV1332     0.0000 
     37 H           5.3313   36.5099    2.6433 H         1 OCV1332     0.0000 
     38 H          16.7283   36.4170    8.0144 H         1 OCV1332     0.0000 
     39 H          15.4262   37.3551    7.9107 H         1 OCV1332     0.0000 
     40 H          15.2599   35.7644    8.0788 H         1 OCV1332     0.0000 
     41 H           8.0702   37.4100    1.8894 H         1 OCV1332     0.0000 
     42 H           7.7199   35.8512    2.0727 H         1 OCV1332     0.0000 
     43 H           7.0546   36.6890    0.8720 H         1 OCV1332     0.0000 
     44 H           6.4760   39.2266    2.7200 H         1 OCV1332     0.0000 
     45 H           5.5750   38.7370    1.4812 H         1 OCV1332     0.0000 
     46 H           4.9242   38.8699    2.9457 H         1 OCV1332     0.0000 
@<TRIPOS>BOND
     1    2    1 1    
     2   15    1 ar   
     3   16    1 ar   
     4    3    2 1    
     5   10    2 1    
     6   25    2 1    
     7    4    3 1    
     8   26    3 1    
     9   27    3 1    
    10    5    4 1    
    11   28    4 1    
    12   29    4 1    
    13    6    5 1    
    14   30    5 1    
    15   31    5 1    
    16    7    6 am   
    17   11    6 2    
    18    8    7 1    
    19   32    7 1    
    20    9    8 1    
    21   12    8 1    
    22   33    8 1    
    23   14    9 2    
    24   24    9 1    
    25   38   10 1    
    26   39   10 1    
    27   40   10 1    
    28   13   12 1    
    29   34   12 1    
    30   35   12 1    
    31   18   17 1    
    32   19   17 1    
    33   24   17 1    
    34   36   17 1    
    35   22   18 ar   
    36   23   18 ar   
    37   20   19 1    
    38   21   19 1    
    39   37   19 1    
    40   41   20 1    
    41   42   20 1    
    42   43   20 1    
    43   44   21 1    
    44   45   21 1    
    45   46   21 1    
@<TRIPOS>SUBSTRUCTURE
     1 OCV1332     1 GROUP   
@<TRIPOS>SET

