#    Name: 4ac0_MIY_1_INTS_M
#    Modification time : Tue Mar 25 05:26:27 2014

@<TRIPOS>MOLECULE
4ac0_MIY_1_INTS_M
   48     0    12     0     0
SMALL
NO_CHARGES


@<TRIPOS>ATOM
      1 N          16.5070   -4.4205   -6.6660 N.am      2 SEC2        0.0000 
      2 N          16.5370   -4.2000   -8.0720 N.am     10 SEL2        0.0000 
      3 N          16.4770   -4.6410   -5.2600 N.am      6 SEP2        0.0000 
      4 N          15.4635   -5.2915   -8.5525 N.am      2 SEC2        0.0000 
      5 N          14.3900   -6.3830   -9.0330 N.am      6 SEP2        0.0000 
      6 CA         16.4775   -3.3065   -6.7860 C.3       4 GLC5        0.0000 
      7 CA         15.1720   -2.3900   -8.3290 C.3      12 GLL5        0.0000 
      8 CA         17.7830   -4.2230   -5.2430 C.3       8 GLP5        0.0000 
      9 CA         14.9175   -2.6565  -10.1895 C.3       4 GLC5        0.0000 
     10 CA         14.6630   -2.9230  -12.0500 C.3       8 GLP5        0.0000 
     11 N          15.4835   -4.4750   -6.2810 N.am      2 SEC2        0.0000 
     12 N          14.4900   -4.3090   -7.3020 N.am     10 SEL2        0.0000 
     13 N          14.1205   -5.4810   -6.3800 N.am      2 SEC2        0.0000 
     14 N          13.7510   -6.6530   -5.4580 N.am      6 SEP2        0.0000 
     15 N          14.4400   -5.3460   -8.1675 N.am      2 SEC2        0.0000 
     16 O          12.0410   -4.0940   -5.7700 O.2       1 ALC1        0.0000 
     17 O          12.1260   -2.9310   -6.3540 O.2       9 ALL1        0.0000 
     18 O          11.9560   -5.2570   -5.1860 O.2       5 ALP1        0.0000 
     19 CA          9.4760   -3.8110   -7.5695 C.3       4 GLC5        0.0000 
     20 CA         10.6660   -2.5930   -6.4270 C.3      12 GLL5        0.0000 
     21 CA          8.2860   -5.0290   -8.7120 C.3       8 GLP5        0.0000 
     22 CA          9.3505   -2.6725   -4.7025 C.3       4 GLC5        0.0000 
     23 CA          8.0350   -2.7520   -2.9780 C.3       8 GLP5        0.0000 
     24 CA         13.6275   -1.4635   -3.8965 C.3       4 GLC5        0.0000 
     25 CA         12.7520   -2.2660   -5.1680 C.3      12 GLL5        0.0000 
     26 CA         14.5030   -0.6610   -2.6250 C.3       8 GLP5        0.0000 
     27 Zn         14.5555    2.9350   -8.2945 Zn        3 ZIC7        0.0000 
     28 Zn         14.6750    1.9590   -8.3310 Zn       11 ZIL7        0.0000 
     29 Zn         14.4360    3.9110   -8.2580 Zn        7 ZIP7        0.0000 
     30 Zn         14.0575    3.6890   -9.1510 Zn        3 ZIC7        0.0000 
     31 Zn         13.6790    3.4670  -10.0440 Zn       11 ZIL7        0.0000 
     32 CA          7.3515    0.0790  -14.1200 C.3       4 GLC5        0.0000 
     33 CA          9.2940   -0.4220  -13.1030 C.3      12 GLL5        0.0000 
     34 CA          5.4090    0.5800  -15.1370 C.3       8 GLP5        0.0000 
     35 CA          8.4565   -1.5535  -11.3540 C.3       4 GLC5        0.0000 
     36 CA          7.6190   -2.6850   -9.6050 C.3       8 GLP5        0.0000 
     37 CA          7.3425    0.6805  -15.1450 C.3       4 GLC5        0.0000 
     38 CA          9.2760    0.7810  -15.1530 C.3      12 GLL5        0.0000 
     39 CA         13.2168    2.0793  -13.2758 C.3       4 GLC5        0.0000 
     40 CA         11.5000    1.4540  -12.2480 C.3      12 GLL5        0.0000 
     41 CA         14.6420    2.1270  -14.6020 C.3       8 GLP5        0.0000 
     42 CA         13.3305   -1.5817  -11.4219 C.3       4 GLC5        0.0000 
     43 CA         11.7460    0.0600  -11.6630 C.3      12 GLL5        0.0000 
     44 CA         13.2350    3.7515  -13.5200 C.3       4 GLC5        0.0000 
     45 CA         11.9220    3.8800  -12.2010 C.3      12 GLL5        0.0000 
     46 CA         14.9440    3.5470  -14.2610 C.3       8 GLP5        0.0000 
     47 CA         12.6447    2.1768  -14.1470 C.3       4 GLC5        0.0000 
     48 CA         10.5520    2.8860  -13.9430 C.3      12 GLL5        0.0000 
@<TRIPOS>BOND
@<TRIPOS>SUBSTRUCTURE
     1 ALC1       16 GROUP        1 X    ALC  0     ROOT ALC X 1
     2 SEC2        1 GROUP        1 X    SEC  0     **** SEC X 2
     3 ZIC7       27 GROUP        1 X    ZIC  0     **** ZIC X 5
     4 GLC5        6 GROUP        1 X    GLC  0     **** GLC X 6
     5 ALP1       18 GROUP        1 Y    ALP  0     ROOT ALP Y 8
     6 SEP2        3 GROUP        1 Y    SEP  0     **** SEP Y 9
     7 ZIP7       29 GROUP        1 Y    ZIP  0     **** ZIP Y 12
     8 GLP5        8 GROUP        1 Y    GLP  0     **** GLP Y 13
     9 ALL1       17 GROUP        1 Z    ALL  0     ROOT ALL Z 15
    10 SEL2        2 GROUP        1 Z    SEL  0     **** SEL Z 16
    11 ZIL7       28 GROUP        1 Z    ZIL  0     **** ZIL Z 19
    12 GLL5        7 GROUP        1 Z    GLL  0     **** GLL Z 20
@<TRIPOS>SET

