#    Name: 4ac0_MIY_1_ligand
#    Modification time : Tue Mar 25 05:26:27 2014

@<TRIPOS>MOLECULE
4ac0_MIY_1_ligand
   59    62     1     0     0
SMALL
NO_CHARGES


@<TRIPOS>ATOM
      1 O8         16.5370   -4.2000   -8.0720 O.2       1 MIY1204     0.0000 
      2 C21        16.4590   -3.0070   -8.4750 C.2       1 MIY1204     0.0000 
      3 N2         17.4460   -2.3790   -9.1640 N.am      1 MIY1204     0.0000 
      4 C2         15.1720   -2.3900   -8.3290 C.2       1 MIY1204     0.0000 
      5 C1         14.9780   -1.0550   -8.7920 C.2       1 MIY1204     0.0000 
      6 O1         15.7390   -0.5100   -9.6020 O.2       1 MIY1204     0.0000 
      7 C3         14.1930   -3.0890   -7.7570 C.2       1 MIY1204     0.0000 
      8 O2         14.4900   -4.3090   -7.3020 O.co2     1 MIY1204     0.0000 
      9 C4         12.7690   -2.6000   -7.6530 C.3       1 MIY1204     0.0000 
     10 N1         12.1260   -2.9310   -6.3540 N.4       1 MIY1204     0.0000 
     11 C20        10.6660   -2.5930   -6.4270 C.3       1 MIY1204     0.0000 
     12 C19        12.7520   -2.2660   -5.1680 C.3       1 MIY1204     0.0000 
     13 C5         12.6120   -1.1450   -8.1770 C.3       1 MIY1204     0.0000 
     14 C18        13.8860   -0.3190   -8.0820 C.3       1 MIY1204     0.0000 
     15 O7         14.2570   -0.0490   -6.7160 O.3       1 MIY1204     0.0000 
     16 C17        13.8220    1.0080   -8.7510 C.2       1 MIY1204     0.0000 
     17 O6         14.6750    1.9590   -8.3310 O.co2     1 MIY1204     0.0000 
     18 C16        12.9680    1.2150   -9.7350 C.2       1 MIY1204     0.0000 
     19 C7         11.9920    0.1280  -10.1600 C.3       1 MIY1204     0.0000 
     20 C6         12.5080   -1.2100   -9.6890 C.3       1 MIY1204     0.0000 
     21 C15        12.9130    2.5150  -10.4020 C.2       1 MIY1204     0.0000 
     22 O5         13.6790    3.4670  -10.0440 O.2       1 MIY1204     0.0000 
     23 C14        12.0830    2.6090  -11.6510 C.ar      1 MIY1204     0.0000 
     24 C9         11.5000    1.4540  -12.2480 C.ar      1 MIY1204     0.0000 
     25 C8         11.7460    0.0600  -11.6630 C.3       1 MIY1204     0.0000 
     26 C13        11.9220    3.8800  -12.2010 C.ar      1 MIY1204     0.0000 
     27 O4         12.4910    4.8960  -11.5740 O.3       1 MIY1204     0.0000 
     28 C12        11.1300    4.0320  -13.3570 C.ar      1 MIY1204     0.0000 
     29 C11        10.5520    2.8860  -13.9430 C.ar      1 MIY1204     0.0000 
     30 C10        10.7430    1.5670  -13.4410 C.ar      1 MIY1204     0.0000 
     31 N7         10.1260    0.3800  -14.0540 N.3       1 MIY1204     0.0000 
     32 CN7         9.2940   -0.4220  -13.1030 C.3       1 MIY1204     0.0000 
     33 C71         9.2760    0.7810  -15.1530 C.3       1 MIY1204     0.0000 
     34 H          18.2457   -2.9345   -9.3919 H         1 MIY1204     0.0000 
     35 H          17.2861   -1.4164   -9.3827 H         1 MIY1204     0.0000 
     36 H          12.2017   -3.2374   -8.4523 H         1 MIY1204     0.0000 
     37 H          12.1906   -4.0265   -6.2074 H         1 MIY1204     0.0000 
     38 H          11.8124   -0.6554   -7.7900 H         1 MIY1204     0.0000 
     39 H          11.0369    0.3045   -9.6620 H         1 MIY1204     0.0000 
     40 H          11.8179   -1.9879   -9.9699 H         1 MIY1204     0.0000 
     41 H          13.4821   -1.3954  -10.1098 H         1 MIY1204     0.0000 
     42 H          10.8760   -0.5673  -11.8589 H         1 MIY1204     0.0000 
     43 H          12.6139   -0.3835  -12.1517 H         1 MIY1204     0.0000 
     44 H          10.9778    4.9493  -13.7612 H         1 MIY1204     0.0000 
     45 H           9.9521    3.0055  -14.7890 H         1 MIY1204     0.0000 
     46 H          10.5185   -1.6223   -6.6169 H         1 MIY1204     0.0000 
     47 H          10.2015   -3.1066   -7.1484 H         1 MIY1204     0.0000 
     48 H          10.1938   -2.7990   -5.5699 H         1 MIY1204     0.0000 
     49 H          13.7128   -2.5223   -5.0627 H         1 MIY1204     0.0000 
     50 H          12.7210   -1.2692   -5.2418 H         1 MIY1204     0.0000 
     51 H          12.2882   -2.5115   -4.3168 H         1 MIY1204     0.0000 
     52 H           9.8335   -0.7607  -12.3322 H         1 MIY1204     0.0000 
     53 H           8.5432    0.1169  -12.7209 H         1 MIY1204     0.0000 
     54 H           8.8858   -1.2192  -13.5479 H         1 MIY1204     0.0000 
     55 H           9.7889    1.2656  -15.8616 H         1 MIY1204     0.0000 
     56 H           8.8409   -0.0051  -15.5920 H         1 MIY1204     0.0000 
     57 H           8.5433    1.3915  -14.8522 H         1 MIY1204     0.0000 
     58 H          15.2230   -0.3005   -6.6558 H         1 MIY1204     0.0000 
     59 H          13.3469    4.5288  -11.2100 H         1 MIY1204     0.0000 
@<TRIPOS>BOND
     1    2    1 2    
     2    3    2 am   
     3    4    2 1    
     4   34    3 1    
     5   35    3 1    
     6    5    4 1    
     7    7    4 2    
     8    6    5 2    
     9   14    5 1    
    10    8    7 ar   
    11    9    7 1    
    12   10    9 1    
    13   13    9 1    
    14   36    9 1    
    15   11   10 1    
    16   12   10 1    
    17   37   10 1    
    18   46   11 1    
    19   47   11 1    
    20   48   11 1    
    21   49   12 1    
    22   50   12 1    
    23   51   12 1    
    24   14   13 1    
    25   20   13 1    
    26   38   13 1    
    27   15   14 1    
    28   16   14 1    
    29   58   15 1    
    30   17   16 ar   
    31   18   16 2    
    32   19   18 1    
    33   21   18 1    
    34   20   19 1    
    35   25   19 1    
    36   39   19 1    
    37   40   20 1    
    38   41   20 1    
    39   22   21 2    
    40   23   21 1    
    41   24   23 ar   
    42   26   23 ar   
    43   25   24 1    
    44   30   24 ar   
    45   42   25 1    
    46   43   25 1    
    47   27   26 1    
    48   28   26 ar   
    49   59   27 1    
    50   29   28 ar   
    51   44   28 1    
    52   30   29 ar   
    53   45   29 1    
    54   31   30 1    
    55   32   31 1    
    56   33   31 1    
    57   52   32 1    
    58   53   32 1    
    59   54   32 1    
    60   55   33 1    
    61   56   33 1    
    62   57   33 1    
@<TRIPOS>SUBSTRUCTURE
     1 MIY1204     1 GROUP   
@<TRIPOS>SET

