#    Name: 1xqp_8HG_1_INTS_M
#    Modification time : Tue Mar 25 10:35:28 2014

@<TRIPOS>MOLECULE
1xqp_8HG_1_INTS_M
   41     0     9     0     0
SMALL
NO_CHARGES


@<TRIPOS>ATOM
      1 N          13.4885   24.5040   31.2845 N.am      2 SEC2        0.0000 
      2 N          12.4740   23.5720   30.8840 N.am      8 SEL2        0.0000 
      3 N          14.5030   25.4360   31.6850 N.am      5 SEP2        0.0000 
      4 O          10.5485   21.6970   30.9435 O.2       1 ALC1        0.0000 
      5 O          10.5350   22.7750   30.0480 O.2       7 ALL1        0.0000 
      6 O          10.5620   20.6190   31.8390 O.2       4 ALP1        0.0000 
      7 O           8.9760   20.5835   29.8090 O.2       1 ALC1        0.0000 
      8 O           8.5050   21.8200   29.2170 O.2       7 ALL1        0.0000 
      9 O           9.4470   19.3470   30.4010 O.2       4 ALP1        0.0000 
     10 N          11.6750   29.2010   29.7285 N.am      2 SEC2        0.0000 
     11 N          11.0420   28.3990   28.5790 N.am      8 SEL2        0.0000 
     12 N          12.3080   30.0030   30.8780 N.am      5 SEP2        0.0000 
     13 CA          8.4425   29.0070   28.5050 C.3       3 GLC5        0.0000 
     14 CA          8.5710   26.9590   27.7010 C.3       9 GLL5        0.0000 
     15 CA          8.3140   31.0550   29.3090 C.3       6 GLP5        0.0000 
     16 CA          8.7315   27.4120   29.8010 C.3       3 GLC5        0.0000 
     17 CA          8.8920   27.8650   31.9010 C.3       6 GLP5        0.0000 
     18 CA          4.7180   25.4040   26.3425 C.3       3 GLC5        0.0000 
     19 CA          6.5260   26.5150   26.5640 C.3       9 GLL5        0.0000 
     20 CA          2.9100   24.2930   26.1210 C.3       6 GLP5        0.0000 
     21 O           6.5365   28.7700   26.5635 O.2       1 ALC1        0.0000 
     22 O           6.2020   27.6990   25.8460 O.2       7 ALL1        0.0000 
     23 O           6.8710   29.8410   27.2810 O.2       4 ALP1        0.0000 
     24 CA          6.9685   26.9595   30.0505 C.3       3 GLC5        0.0000 
     25 CA          6.2450   26.7200   28.0670 C.3       9 GLL5        0.0000 
     26 CA          7.6920   27.1990   32.0340 C.3       6 GLP5        0.0000 
     27 CA          3.9625   24.4385   28.5230 C.3       3 GLC5        0.0000 
     28 CA          5.4930   25.4820   28.6320 C.3       9 GLL5        0.0000 
     29 CA          2.4320   23.3950   28.4140 C.3       6 GLP5        0.0000 
     30 CA          3.9845   26.2445   29.8640 C.3       3 GLC5        0.0000 
     31 CA          2.4760   27.0070   31.0960 C.3       6 GLP5        0.0000 
     32 CA          5.9280   25.3005   30.5800 C.3       3 GLC5        0.0000 
     33 CA          6.3630   25.1190   32.5280 C.3       6 GLP5        0.0000 
     34 CA          5.3795   23.5600   29.6955 C.3       3 GLC5        0.0000 
     35 CA          5.2660   21.6380   30.7590 C.3       6 GLP5        0.0000 
     36 CA          6.0700   24.2385   26.9265 C.3       3 GLC5        0.0000 
     37 CA          6.6470   22.9950   25.2210 C.3       6 GLP5        0.0000 
     38 CA          9.8758   25.1992   26.7110 C.3       3 GLC5        0.0000 
     39 CA          8.0220   26.1740   26.5390 C.3       9 GLL5        0.0000 
     40 CA         11.4550   23.8320   26.3020 C.3       6 GLP5        0.0000 
     41 CA          6.9605   24.6698   25.8863 C.3       3 GLC5        0.0000 
@<TRIPOS>BOND
@<TRIPOS>SUBSTRUCTURE
     1 ALC1        4 GROUP        1 X    ALC  0     ROOT ALC X 1
     2 SEC2        1 GROUP        1 X    SEC  0     **** SEC X 2
     3 GLC5       13 GROUP        1 X    GLC  0     **** GLC X 6
     4 ALP1        6 GROUP        1 Y    ALP  0     ROOT ALP Y 8
     5 SEP2        3 GROUP        1 Y    SEP  0     **** SEP Y 9
     6 GLP5       15 GROUP        1 Y    GLP  0     **** GLP Y 13
     7 ALL1        5 GROUP        1 Z    ALL  0     ROOT ALL Z 15
     8 SEL2        2 GROUP        1 Z    SEL  0     **** SEL Z 16
     9 GLL5       14 GROUP        1 Z    GLL  0     **** GLL Z 20
@<TRIPOS>SET

