#    Name: 1xqp_8HG_1_ligand
#    Modification time : Tue Mar 25 10:35:28 2014

@<TRIPOS>MOLECULE
1xqp_8HG_1_ligand
   33    35     1     0     0
SMALL
NO_CHARGES


@<TRIPOS>ATOM
      1 O6         12.4740   23.5720   30.8840 O.2       1 8HG257      0.0000 
      2 C6         11.4670   23.8180   30.2190 C.2       1 8HG257      0.0000 
      3 N1         10.5350   22.7750   30.0480 N.am      1 8HG257      0.0000 
      4 C2          9.3140   22.9360   29.3450 C.2       1 8HG257      0.0000 
      5 N2          8.5050   21.8200   29.2170 N.pl3     1 8HG257      0.0000 
      6 N3          9.0010   24.1030   28.8030 N.2       1 8HG257      0.0000 
      7 C4          9.8800   25.1320   28.9390 C.2       1 8HG257      0.0000 
      8 C5         11.0780   25.0520   29.5790 C.2       1 8HG257      0.0000 
      9 N7         11.7440   26.3150   29.5080 N.2       1 8HG257      0.0000 
     10 C8         10.8640   27.1990   28.8100 C.2       1 8HG257      0.0000 
     11 O20        11.0420   28.3990   28.5790 O.3       1 8HG257      0.0000 
     12 N9          9.7310   26.4440   28.4250 N.pl3     1 8HG257      0.0000 
     13 C1'         8.5710   26.9590   27.7010 C.3       1 8HG257      0.0000 
     14 O4'         7.5350   26.9890   28.6670 O.3       1 8HG257      0.0000 
     15 C2'         8.0220   26.1740   26.5390 C.3       1 8HG257      0.0000 
     16 C3'         6.5260   26.5150   26.5640 C.3       1 8HG257      0.0000 
     17 O3'         6.2020   27.6990   25.8460 O.3       1 8HG257      0.0000 
     18 C4'         6.2450   26.7200   28.0670 C.3       1 8HG257      0.0000 
     19 C5'         5.4930   25.4820   28.6320 C.3       1 8HG257      0.0000 
     20 O5'         6.0400   24.2550   28.3710 O.3       1 8HG257      0.0000 
     21 H          10.7497   21.8399   30.4560 H         1 8HG257      0.0000 
     22 H           7.6220   21.9655   28.7708 H         1 8HG257      0.0000 
     23 H           8.8737   20.9650   29.5818 H         1 8HG257      0.0000 
     24 H           8.7570   27.9831   27.3782 H         1 8HG257      0.0000 
     25 H           8.1477   25.1345   26.7007 H         1 8HG257      0.0000 
     26 H           8.4442   26.5139   25.6287 H         1 8HG257      0.0000 
     27 H           5.9823   25.6551   26.2582 H         1 8HG257      0.0000 
     28 H           5.5963   27.5833   28.1423 H         1 8HG257      0.0000 
     29 H           4.4322   25.5755   28.2478 H         1 8HG257      0.0000 
     30 H           5.3807   25.6808   29.7408 H         1 8HG257      0.0000 
     31 H          11.7612   28.4249   27.8847 H         1 8HG257      0.0000 
     32 H           6.5093   28.4490   26.4317 H         1 8HG257      0.0000 
     33 H           6.9966   24.4407   28.1463 H         1 8HG257      0.0000 
@<TRIPOS>BOND
     1    2    1 2    
     2    3    2 am   
     3    8    2 1    
     4    4    3 1    
     5   21    3 1    
     6    5    4 1    
     7    6    4 2    
     8   22    5 1    
     9   23    5 1    
    10    7    6 1    
    11    8    7 2    
    12   12    7 1    
    13    9    8 1    
    14   10    9 2    
    15   11   10 1    
    16   12   10 1    
    17   31   11 1    
    18   13   12 1    
    19   14   13 1    
    20   15   13 1    
    21   24   13 1    
    22   18   14 1    
    23   16   15 1    
    24   25   15 1    
    25   26   15 1    
    26   17   16 1    
    27   18   16 1    
    28   27   16 1    
    29   32   17 1    
    30   19   18 1    
    31   28   18 1    
    32   20   19 1    
    33   29   19 1    
    34   30   19 1    
    35   33   20 1    
@<TRIPOS>SUBSTRUCTURE
     1 8HG257      1 GROUP   
@<TRIPOS>SET

