#    Name: 2b04_CHO_1_INTS_M
#    Modification time : Mon Mar 24 19:46:14 2014

@<TRIPOS>MOLECULE
2b04_CHO_1_INTS_M
   85     0     9     0     0
SMALL
NO_CHARGES


@<TRIPOS>ATOM
      1 CA         -2.7880   35.2560    5.0895 C.3       3 GLC5        0.0000 
      2 CA         -1.5470   35.9100    6.2740 C.3       9 GLL5        0.0000 
      3 CA         -4.0290   34.6020    3.9050 C.3       6 GLP5        0.0000 
      4 CA         -2.7540   34.5695    6.3225 C.3       3 GLC5        0.0000 
      5 CA         -1.0070   35.1100    7.5640 C.3       9 GLL5        0.0000 
      6 CA         -4.5010   34.0290    5.0810 C.3       6 GLP5        0.0000 
      7 CA         -1.2450   33.3930    8.5935 C.3       3 GLC5        0.0000 
      8 CA         -1.4830   31.6760    9.6230 C.3       6 GLP5        0.0000 
      9 CA          0.7790   33.9840    7.8365 C.3       3 GLC5        0.0000 
     10 CA          2.5650   32.8580    8.1090 C.3       6 GLP5        0.0000 
     11 N          -0.6500   34.3480   10.6460 N.am      2 SEC2        0.0000 
     12 N           0.0030   35.4530    9.7910 N.am      8 SEL2        0.0000 
     13 N          -1.3030   33.2430   11.5010 N.am      5 SEP2        0.0000 
     14 CA          2.4575   35.9070    8.1300 C.3       3 GLC5        0.0000 
     15 CA          0.6900   37.0680    8.0390 C.3       9 GLL5        0.0000 
     16 CA          4.2250   34.7460    8.2210 C.3       6 GLP5        0.0000 
     17 CA          1.4595   39.9130    4.1510 C.3       3 GLC5        0.0000 
     18 CA          1.3890   38.7930    6.0260 C.3       9 GLL5        0.0000 
     19 CA          1.5300   41.0330    2.2760 C.3       6 GLP5        0.0000 
     20 CA          1.1465   40.5595    5.9080 C.3       3 GLC5        0.0000 
     21 CA          0.9040   42.3260    5.7900 C.3       6 GLP5        0.0000 
     22 CA          4.1385   39.5395    5.7205 C.3       3 GLC5        0.0000 
     23 CA          2.5970   37.9400    5.4710 C.3       9 GLL5        0.0000 
     24 CA          5.6800   41.1390    5.9700 C.3       6 GLP5        0.0000 
     25 O           4.7030   37.8420    6.1860 O.2       1 ALC1        0.0000 
     26 O           3.4300   37.2660    6.4740 O.2       7 ALL1        0.0000 
     27 O           5.9760   38.4180    5.8980 O.2       4 ALP1        0.0000 
     28 CA          2.3220   34.6575    6.3445 C.3       3 GLC5        0.0000 
     29 CA          0.9190   35.8520    5.0690 C.3       9 GLL5        0.0000 
     30 CA          3.7250   33.4630    7.6200 C.3       6 GLP5        0.0000 
     31 CA         -1.7950   34.6610    3.9160 C.3       3 GLC5        0.0000 
     32 CA          0.4390   34.7200    3.9270 C.3       9 GLL5        0.0000 
     33 CA          2.8460   32.8535    4.7965 C.3       3 GLC5        0.0000 
     34 CA          1.7990   34.0060    3.6350 C.3       9 GLL5        0.0000 
     35 CA          3.8930   31.7010    5.9580 C.3       6 GLP5        0.0000 
     36 CA          3.5530   38.3705    2.4890 C.3       3 GLC5        0.0000 
     37 CA          4.5300   36.7400    3.1290 C.3       9 GLL5        0.0000 
     38 CA          2.5760   40.0010    1.8490 C.3       6 GLP5        0.0000 
     39 CA          5.4520   35.6710    0.2910 C.3       3 GLC5        0.0000 
     40 CA          5.2030   35.5760    2.2180 C.3       9 GLL5        0.0000 
     41 CA          5.7010   35.7660   -1.6360 C.3       6 GLP5        0.0000 
     42 CA          7.1575   35.3875    1.7515 C.3       3 GLC5        0.0000 
     43 CA          9.1120   35.1990    1.2850 C.3       6 GLP5        0.0000 
     44 CA          2.2675   37.3355    0.8160 C.3       3 GLC5        0.0000 
     45 CA          2.1820   35.4120    1.4370 C.3       9 GLL5        0.0000 
     46 CA          2.3530   39.2590    0.1950 C.3       6 GLP5        0.0000 
     47 CA          2.8510   35.1095   -0.4790 C.3       3 GLC5        0.0000 
     48 CA          3.5200   34.8070   -2.3950 C.3       6 GLP5        0.0000 
     49 CA          1.3195   36.9760    0.7965 C.3       3 GLC5        0.0000 
     50 CA          0.4570   38.5400    0.1560 C.3       6 GLP5        0.0000 
     51 CA          0.5290   35.1795    0.8000 C.3       3 GLC5        0.0000 
     52 CA         -1.1240   34.9470    0.1630 C.3       6 GLP5        0.0000 
     53 CA         -2.6210   36.0580    4.1430 C.3       3 GLC5        0.0000 
     54 CA         -1.2130   37.5140    4.3810 C.3       9 GLL5        0.0000 
     55 CA          3.9510   33.9180   -0.4860 C.3       3 GLC5        0.0000 
     56 CA          4.3820   33.0290    1.4230 C.3       9 GLL5        0.0000 
     57 CA          2.0570   30.7055    2.1865 C.3       3 GLC5        0.0000 
     58 CA          3.5670   31.7020    1.5650 C.3       9 GLL5        0.0000 
     59 CA          0.5470   29.7090    2.8080 C.3       6 GLP5        0.0000 
     60 CA          3.2355   30.1750    0.5280 C.3       3 GLC5        0.0000 
     61 CA          2.9040   28.6480   -0.5090 C.3       6 GLP5        0.0000 
     62 CA          3.7300   31.7015    3.7615 C.3       3 GLC5        0.0000 
     63 CA          2.2750   31.7135   -0.0990 C.3       3 GLC5        0.0000 
     64 CA          0.9830   31.7250   -1.7630 C.3       6 GLP5        0.0000 
     65 CA          5.7965   34.1480   -0.1895 C.3       3 GLC5        0.0000 
     66 CA          5.8920   32.5300    1.2570 C.3       9 GLL5        0.0000 
     67 CA         10.5030   33.4755    2.3920 C.3       3 GLC5        0.0000 
     68 CA         10.5910   31.5000    3.0980 C.3       9 GLL5        0.0000 
     69 CA         10.4150   35.4510    1.6860 C.3       6 GLP5        0.0000 
     70 CA         -2.5800   35.8075    8.6205 C.3       3 GLC5        0.0000 
     71 CA         -4.2780   35.7790    9.4690 C.3       6 GLP5        0.0000 
     72 CA          2.4577   38.6910    3.3875 C.3       3 GLC5        0.0000 
     73 CA          2.0820   36.8220    4.3810 C.3       9 GLL5        0.0000 
     74 CA         -0.0980   33.0965    3.9275 C.3       3 GLC5        0.0000 
     75 CA         -1.3150   31.8300    4.0740 C.3       6 GLP5        0.0000 
     76 CA         -0.0085   34.0190    2.2490 C.3       3 GLC5        0.0000 
     77 CA         -1.1360   33.6750    0.7170 C.3       6 GLP5        0.0000 
     78 CA          5.5892   37.8765    2.2357 C.3       3 GLC5        0.0000 
     79 CA          6.3120   39.5950    1.7980 C.3       6 GLP5        0.0000 
     80 CA          4.0616   33.8431    4.7464 C.3       3 GLC5        0.0000 
     81 CA          4.3200   34.2320    2.5560 C.3       9 GLL5        0.0000 
     82 CA          4.3830   32.8750    6.5440 C.3       6 GLP5        0.0000 
     83 CA          7.6223   33.4155    0.9708 C.3       3 GLC5        0.0000 
     84 CA          6.8430   32.0400    2.4780 C.3       9 GLL5        0.0000 
     85 CA          8.8770   34.5460    0.0740 C.3       6 GLP5        0.0000 
@<TRIPOS>BOND
@<TRIPOS>SUBSTRUCTURE
     1 ALC1       25 GROUP        1 X    ALC  0     ROOT ALC X 1
     2 SEC2       11 GROUP        1 X    SEC  0     **** SEC X 2
     3 GLC5        1 GROUP        1 X    GLC  0     **** GLC X 6
     4 ALP1       27 GROUP        1 Y    ALP  0     ROOT ALP Y 8
     5 SEP2       13 GROUP        1 Y    SEP  0     **** SEP Y 9
     6 GLP5        3 GROUP        1 Y    GLP  0     **** GLP Y 13
     7 ALL1       26 GROUP        1 Z    ALL  0     ROOT ALL Z 15
     8 SEL2       12 GROUP        1 Z    SEL  0     **** SEL Z 16
     9 GLL5        2 GROUP        1 Z    GLL  0     **** GLL Z 20
@<TRIPOS>SET

