#    Name: 2b04_CHO_1_ligand
#    Modification time : Mon Mar 24 19:46:14 2014

@<TRIPOS>MOLECULE
2b04_CHO_1_ligand
   74    77     1     0     0
SMALL
NO_CHARGES


@<TRIPOS>ATOM
      1 C1         -1.5470   35.9100    6.2740 C.3       1 CHO200      0.0000 
      2 C2         -1.0070   35.1100    7.5640 C.3       1 CHO200      0.0000 
      3 C3         -0.4870   36.1620    8.6250 C.3       1 CHO200      0.0000 
      4 O3          0.0030   35.4530    9.7910 O.3       1 CHO200      0.0000 
      5 C4          0.6900   37.0680    8.0390 C.3       1 CHO200      0.0000 
      6 C5          0.2140   37.8810    6.7030 C.3       1 CHO200      0.0000 
      7 C6          1.3890   38.7930    6.0260 C.3       1 CHO200      0.0000 
      8 C7          2.5970   37.9400    5.4710 C.3       1 CHO200      0.0000 
      9 O7          3.4300   37.2660    6.4740 O.3       1 CHO200      0.0000 
     10 C8          2.0820   36.8220    4.3810 C.3       1 CHO200      0.0000 
     11 C9          0.9190   35.8520    5.0690 C.3       1 CHO200      0.0000 
     12 C10        -0.3750   36.7890    5.5770 C.3       1 CHO200      0.0000 
     13 C11         0.4390   34.7200    3.9270 C.3       1 CHO200      0.0000 
     14 C12         1.7990   34.0060    3.6350 C.3       1 CHO200      0.0000 
     15 C13         2.9580   34.8630    2.8270 C.3       1 CHO200      0.0000 
     16 C14         3.3630   35.9180    3.8560 C.3       1 CHO200      0.0000 
     17 C15         4.5300   36.7400    3.1290 C.3       1 CHO200      0.0000 
     18 C16         5.2030   35.5760    2.2180 C.3       1 CHO200      0.0000 
     19 C17         4.3200   34.2320    2.5560 C.3       1 CHO200      0.0000 
     20 C18         2.1820   35.4120    1.4370 C.3       1 CHO200      0.0000 
     21 C19        -1.2130   37.5140    4.3810 C.3       1 CHO200      0.0000 
     22 C20         4.3820   33.0290    1.4230 C.3       1 CHO200      0.0000 
     23 C21         3.5670   31.7020    1.5650 C.3       1 CHO200      0.0000 
     24 C22         5.8920   32.5300    1.2570 C.3       1 CHO200      0.0000 
     25 C23         6.8430   32.0400    2.4780 C.3       1 CHO200      0.0000 
     26 C24         8.2710   31.7810    2.3060 C.2       1 CHO200      0.0000 
     27 O24         8.6190   31.5560    0.9970 O.2       1 CHO200      0.0000 
     28 N25         9.1290   31.7610    3.2670 N.am      1 CHO200      0.0000 
     29 C26        10.5910   31.5000    3.0980 C.3       1 CHO200      0.0000 
     30 C27        10.9790   30.1500    2.6290 C.2       1 CHO200      0.0000 
     31 OT1        10.9560   29.1770    3.4300 O.co2     1 CHO200      0.0000 
     32 OT2        11.3290   30.0180    1.4220 O.co2     1 CHO200      0.0000 
     33 H          -2.3280   36.5778    6.5853 H         1 CHO200      0.0000 
     34 H          -1.9073   35.1993    5.5544 H         1 CHO200      0.0000 
     35 H          -0.2004   34.4876    7.2574 H         1 CHO200      0.0000 
     36 H          -1.8174   34.5593    7.9788 H         1 CHO200      0.0000 
     37 H          -1.3005   36.8108    8.8757 H         1 CHO200      0.0000 
     38 H           1.5155   36.4404    7.7630 H         1 CHO200      0.0000 
     39 H           0.9797   37.7918    8.7763 H         1 CHO200      0.0000 
     40 H          -0.6060   38.5117    6.9619 H         1 CHO200      0.0000 
     41 H           1.7473   39.4743    6.7868 H         1 CHO200      0.0000 
     42 H           0.9379   39.3506    5.2154 H         1 CHO200      0.0000 
     43 H           3.2246   38.6222    4.8610 H         1 CHO200      0.0000 
     44 H           1.6595   37.3183    3.5606 H         1 CHO200      0.0000 
     45 H           1.3292   35.3586    5.8800 H         1 CHO200      0.0000 
     46 H           0.1137   35.2506    3.1071 H         1 CHO200      0.0000 
     47 H          -0.2196   34.0866    4.4010 H         1 CHO200      0.0000 
     48 H           1.6192   33.0944    3.0403 H         1 CHO200      0.0000 
     49 H           2.2598   33.6834    4.5839 H         1 CHO200      0.0000 
     50 H           3.7982   35.4248    4.7041 H         1 CHO200      0.0000 
     51 H           5.2203   37.0475    3.8295 H         1 CHO200      0.0000 
     52 H           4.1140   37.4455    2.5037 H         1 CHO200      0.0000 
     53 H           6.1783   35.4149    2.5388 H         1 CHO200      0.0000 
     54 H           5.0695   35.8104    1.2144 H         1 CHO200      0.0000 
     55 H           4.7207   33.8650    3.4903 H         1 CHO200      0.0000 
     56 H           4.1444   33.4808    0.4488 H         1 CHO200      0.0000 
     57 H           6.4624   33.3498    0.7136 H         1 CHO200      0.0000 
     58 H           5.8889   31.6877    0.4933 H         1 CHO200      0.0000 
     59 H           6.3156   31.1207    2.9011 H         1 CHO200      0.0000 
     60 H           6.6703   32.8097    3.3026 H         1 CHO200      0.0000 
     61 H           8.8593   31.9329    4.2832 H         1 CHO200      0.0000 
     62 H          11.1068   31.7120    4.0737 H         1 CHO200      0.0000 
     63 H          11.0119   32.2683    2.3940 H         1 CHO200      0.0000 
     64 H           2.7928   35.9545    0.8603 H         1 CHO200      0.0000 
     65 H           1.8449   34.6556    0.8765 H         1 CHO200      0.0000 
     66 H           1.3948   35.9891    1.6545 H         1 CHO200      0.0000 
     67 H          -0.6836   38.2416    3.9448 H         1 CHO200      0.0000 
     68 H          -1.4698   36.8674    3.6627 H         1 CHO200      0.0000 
     69 H          -2.0583   37.9284    4.7182 H         1 CHO200      0.0000 
     70 H           3.7181   31.0886    0.7898 H         1 CHO200      0.0000 
     71 H           3.8190   31.1980    2.3911 H         1 CHO200      0.0000 
     72 H           2.5832   31.8740    1.6153 H         1 CHO200      0.0000 
     73 H           0.6367   36.0867   10.2346 H         1 CHO200      0.0000 
     74 H           4.3513   37.6271    6.3301 H         1 CHO200      0.0000 
@<TRIPOS>BOND
     1    2    1 1    
     2   12    1 1    
     3   33    1 1    
     4   34    1 1    
     5    3    2 1    
     6   35    2 1    
     7   36    2 1    
     8    4    3 1    
     9    5    3 1    
    10   37    3 1    
    11   73    4 1    
    12    6    5 1    
    13   38    5 1    
    14   39    5 1    
    15    7    6 1    
    16   12    6 1    
    17   40    6 1    
    18    8    7 1    
    19   41    7 1    
    20   42    7 1    
    21    9    8 1    
    22   10    8 1    
    23   43    8 1    
    24   74    9 1    
    25   11   10 1    
    26   16   10 1    
    27   44   10 1    
    28   12   11 1    
    29   13   11 1    
    30   45   11 1    
    31   21   12 1    
    32   14   13 1    
    33   46   13 1    
    34   47   13 1    
    35   15   14 1    
    36   48   14 1    
    37   49   14 1    
    38   16   15 1    
    39   19   15 1    
    40   20   15 1    
    41   17   16 1    
    42   50   16 1    
    43   18   17 1    
    44   51   17 1    
    45   52   17 1    
    46   19   18 1    
    47   53   18 1    
    48   54   18 1    
    49   22   19 1    
    50   55   19 1    
    51   64   20 1    
    52   65   20 1    
    53   66   20 1    
    54   67   21 1    
    55   68   21 1    
    56   69   21 1    
    57   23   22 1    
    58   24   22 1    
    59   56   22 1    
    60   70   23 1    
    61   71   23 1    
    62   72   23 1    
    63   25   24 1    
    64   57   24 1    
    65   58   24 1    
    66   26   25 1    
    67   59   25 1    
    68   60   25 1    
    69   27   26 2    
    70   28   26 am   
    71   29   28 1    
    72   61   28 1    
    73   30   29 1    
    74   62   29 1    
    75   63   29 1    
    76   31   30 ar   
    77   32   30 ar   
@<TRIPOS>SUBSTRUCTURE
     1 CHO200      1 GROUP   
@<TRIPOS>SET

