#    Name: 1uip_PUR_1_INTS_M
#    Modification time : Tue Mar 25 06:37:39 2014

@<TRIPOS>MOLECULE
1uip_PUR_1_INTS_M
   54     0     9     0     0
SMALL
NO_CHARGES


@<TRIPOS>ATOM
      1 CA         -0.0800   19.1060   39.4280 C.3       3 GLC5        0.0000 
      2 CA          1.3930   20.3480   39.3440 C.3       9 GLL5        0.0000 
      3 CA         -1.5530   17.8640   39.5120 C.3       6 GLP5        0.0000 
      4 CA          1.8490   18.2535   38.6970 C.3       3 GLC5        0.0000 
      5 CA          2.3050   16.1590   38.0500 C.3       6 GLP5        0.0000 
      6 CA          1.6920   22.2375   39.3865 C.3       3 GLC5        0.0000 
      7 CA          1.9910   24.1270   39.4290 C.3       6 GLP5        0.0000 
      8 N           3.6200   19.7980   40.2490 N.am      2 SEC2        0.0000 
      9 N           2.6050   19.9870   38.9600 N.am      8 SEL2        0.0000 
     10 N           4.6350   19.6090   41.5380 N.am      5 SEP2        0.0000 
     11 CA          4.4585   20.8175   38.8775 C.3       3 GLC5        0.0000 
     12 CA          2.9030   19.8640   37.6290 C.3       9 GLL5        0.0000 
     13 CA          6.0140   21.7710   40.1260 C.3       6 GLP5        0.0000 
     14 CA         -0.4330   19.1780   38.2990 C.3       3 GLC5        0.0000 
     15 CA          0.6870   20.4920   37.0860 C.3       9 GLL5        0.0000 
     16 N           1.9720   20.2160   34.3430 N.am      2 SEC2        0.0000 
     17 N           2.5580   19.8940   35.4780 N.am      8 SEL2        0.0000 
     18 N           1.3860   20.5380   33.2080 N.am      5 SEP2        0.0000 
     19 CA          5.5960   20.3355   38.8915 C.3       3 GLC5        0.0000 
     20 CA          5.1780   18.9000   37.6570 C.3       9 GLL5        0.0000 
     21 CA          4.8210   18.5805   39.8385 C.3       3 GLC5        0.0000 
     22 CA          4.4640   18.2610   42.0200 C.3       6 GLP5        0.0000 
     23 CA          4.9830   17.1915   35.1005 C.3       3 GLC5        0.0000 
     24 CA          5.5790   17.6190   36.8660 C.3       9 GLL5        0.0000 
     25 CA          4.3870   16.7640   33.3350 C.3       6 GLP5        0.0000 
     26 CA          6.2275   17.1780   34.4075 C.3       3 GLC5        0.0000 
     27 CA          6.8180   17.9390   35.9980 C.3       9 GLL5        0.0000 
     28 CA          5.6370   16.4170   32.8170 C.3       6 GLP5        0.0000 
     29 O           8.5850   17.2125   34.8390 O.2       1 ALC1        0.0000 
     30 O           7.7090   16.8180   35.9010 O.2       7 ALL1        0.0000 
     31 O           9.4610   17.6070   33.7770 O.2       4 ALP1        0.0000 
     32 CA          6.6780   20.3980   38.6055 C.3       3 GLC5        0.0000 
     33 CA          7.3420   19.0250   37.0850 C.3       9 GLL5        0.0000 
     34 CA          9.7380   21.1330   35.6295 C.3       3 GLC5        0.0000 
     35 CA          8.3520   19.9950   36.4800 C.3       9 GLL5        0.0000 
     36 CA         11.1240   22.2710   34.7790 C.3       6 GLP5        0.0000 
     37 CA         10.3295   19.4455   37.2355 C.3       3 GLC5        0.0000 
     38 CA         12.3070   18.8960   37.9910 C.3       6 GLP5        0.0000 
     39 CA          8.7520   21.7710   37.2900 C.3       3 GLC5        0.0000 
     40 CA          9.1520   23.5470   38.1000 C.3       6 GLP5        0.0000 
     41 N           7.0125   21.2335   35.1470 N.am      2 SEC2        0.0000 
     42 N           7.9450   20.3560   35.1410 N.am      8 SEL2        0.0000 
     43 N           6.0800   22.1110   35.1530 N.am      5 SEP2        0.0000 
     44 O           8.7030   18.9815   34.4590 O.2       1 ALC1        0.0000 
     45 O           7.9450   20.3560   35.1410 O.2       7 ALL1        0.0000 
     46 O           8.0550   19.7350   33.9945 O.2       1 ALC1        0.0000 
     47 O           8.1650   19.1140   32.8480 O.2       4 ALP1        0.0000 
     48 CA          3.2797   21.3428   35.7965 C.3       3 GLC5        0.0000 
     49 CA          4.1140   22.7050   34.4340 C.3       6 GLP5        0.0000 
     50 CA          2.3753   18.0697   37.6045 C.3       3 GLC5        0.0000 
     51 CA          1.9880   20.0970   36.6890 C.3       9 GLL5        0.0000 
     52 CA          3.8418   17.2092   37.6557 C.3       3 GLC5        0.0000 
     53 CA          8.7515   19.4005   38.1557 C.3       3 GLC5        0.0000 
     54 CA          9.6560   19.2910   39.5290 C.3       6 GLP5        0.0000 
@<TRIPOS>BOND
@<TRIPOS>SUBSTRUCTURE
     1 ALC1       29 GROUP        1 X    ALC  0     ROOT ALC X 1
     2 SEC2        8 GROUP        1 X    SEC  0     **** SEC X 2
     3 GLC5        1 GROUP        1 X    GLC  0     **** GLC X 6
     4 ALP1       31 GROUP        1 Y    ALP  0     ROOT ALP Y 8
     5 SEP2       10 GROUP        1 Y    SEP  0     **** SEP Y 9
     6 GLP5        3 GROUP        1 Y    GLP  0     **** GLP Y 13
     7 ALL1       30 GROUP        1 Z    ALL  0     ROOT ALL Z 15
     8 SEL2        9 GROUP        1 Z    SEL  0     **** SEL Z 16
     9 GLL5        2 GROUP        1 Z    GLL  0     **** GLL Z 20
@<TRIPOS>SET

