#    Name: 1uip_PUR_1_ligand
#    Modification time : Tue Mar 25 06:37:39 2014

@<TRIPOS>MOLECULE
1uip_PUR_1_ligand
   30    32     1     0     0
SMALL
NO_CHARGES


@<TRIPOS>ATOM
      1 N1          0.4450   20.6020   38.4580 N.ar      1 PUR353      0.0000 
      2 C2          1.3930   20.3480   39.3440 C.ar      1 PUR353      0.0000 
      3 N3          2.6050   19.9870   38.9600 N.ar      1 PUR353      0.0000 
      4 C4          2.9030   19.8640   37.6290 C.ar      1 PUR353      0.0000 
      5 C5          1.9880   20.0970   36.6890 C.ar      1 PUR353      0.0000 
      6 C6          0.6870   20.4920   37.0860 C.ar      1 PUR353      0.0000 
      7 N7          2.5580   19.8940   35.4780 N.2       1 PUR353      0.0000 
      8 C8          3.8250   19.5410   35.6840 C.2       1 PUR353      0.0000 
      9 N9          4.0420   19.4910   37.0050 N.pl3     1 PUR353      0.0000 
     10 C1'         5.1780   18.9000   37.6570 C.3       1 PUR353      0.0000 
     11 C2'         5.5790   17.6190   36.8660 C.3       1 PUR353      0.0000 
     12 O2'         5.8460   16.5450   37.7770 O.3       1 PUR353      0.0000 
     13 C3'         6.8180   17.9390   35.9980 C.3       1 PUR353      0.0000 
     14 O3'         7.7090   16.8180   35.9010 O.3       1 PUR353      0.0000 
     15 C4'         7.3420   19.0250   37.0850 C.3       1 PUR353      0.0000 
     16 O4'         6.2970   19.7530   37.6080 O.3       1 PUR353      0.0000 
     17 C5'         8.3520   19.9950   36.4800 C.3       1 PUR353      0.0000 
     18 O5'         7.9450   20.3560   35.1410 O.3       1 PUR353      0.0000 
     19 H           1.1778   20.4351   40.3762 H         1 PUR353      0.0000 
     20 H          -0.0237   20.6825   36.4048 H         1 PUR353      0.0000 
     21 H           4.4842   19.3509   34.9963 H         1 PUR353      0.0000 
     22 H           4.9501   18.5871   38.6486 H         1 PUR353      0.0000 
     23 H           4.7611   17.3871   36.2012 H         1 PUR353      0.0000 
     24 H           6.5356   18.4504   35.1876 H         1 PUR353      0.0000 
     25 H           7.8606   18.4424   37.8499 H         1 PUR353      0.0000 
     26 H           9.3326   19.5084   36.4802 H         1 PUR353      0.0000 
     27 H           8.4093   20.8746   37.1291 H         1 PUR353      0.0000 
     28 H           6.7047   16.1433   37.4587 H         1 PUR353      0.0000 
     29 H           8.5816   17.2060   35.6047 H         1 PUR353      0.0000 
     30 H           7.7963   19.4853   34.6723 H         1 PUR353      0.0000 
@<TRIPOS>BOND
     1    2    1 ar   
     2    6    1 ar   
     3    3    2 ar   
     4   19    2 1    
     5    4    3 ar   
     6    5    4 ar   
     7    9    4 1    
     8    6    5 ar   
     9    7    5 1    
    10   20    6 1    
    11    8    7 2    
    12    9    8 1    
    13   21    8 1    
    14   10    9 1    
    15   11   10 1    
    16   16   10 1    
    17   22   10 1    
    18   12   11 1    
    19   13   11 1    
    20   23   11 1    
    21   28   12 1    
    22   14   13 1    
    23   15   13 1    
    24   24   13 1    
    25   29   14 1    
    26   16   15 1    
    27   17   15 1    
    28   25   15 1    
    29   18   17 1    
    30   26   17 1    
    31   27   17 1    
    32   30   18 1    
@<TRIPOS>SUBSTRUCTURE
     1 PUR353      1 GROUP   
@<TRIPOS>SET

