#    Name: 1e26_GPB_1_INTS_M
#    Modification time : Mon Mar 24 22:45:01 2014

@<TRIPOS>MOLECULE
1e26_GPB_1_INTS_M
   69     0    12     0     0
SMALL
NO_CHARGES


@<TRIPOS>ATOM
      1 CA          8.6630    2.5645   12.7180 C.3       4 GLC5        0.0000 
      2 CA         10.5750    1.9740   12.1900 C.3      12 GLL5        0.0000 
      3 CA          6.7510    3.1550   13.2460 C.3       8 GLP5        0.0000 
      4 CA          9.9640    1.5235   14.2320 C.3       4 GLC5        0.0000 
      5 CA          9.3530    1.0730   16.2740 C.3       8 GLP5        0.0000 
      6 CA         11.6230    0.5080   12.8590 C.3       4 GLC5        0.0000 
      7 CA         12.6710   -0.9580   13.5280 C.3       8 GLP5        0.0000 
      8 CA         10.1505    3.2090   10.5115 C.3       4 GLC5        0.0000 
      9 CA          9.7260    4.4440    8.8330 C.3       8 GLP5        0.0000 
     10 O          10.0370    0.3010   10.7305 O.2       1 ALC1        0.0000 
     11 O           9.7900    1.1160   11.6990 O.2       9 ALL1        0.0000 
     12 O          10.2840   -0.5140    9.7620 O.2       5 ALP1        0.0000 
     13 CA         12.7610    1.0090   12.7840 C.3       4 GLC5        0.0000 
     14 CA         12.8510    2.9760   12.0400 C.3      12 GLL5        0.0000 
     15 CA         15.8715    3.2965   11.9890 C.3       4 GLC5        0.0000 
     16 CA         13.9640    2.9930   11.4640 C.3      12 GLL5        0.0000 
     17 CA         17.7790    3.6000   12.5140 C.3       8 GLP5        0.0000 
     18 CA         10.6025    6.7885   15.2695 C.3       4 GLC5        0.0000 
     19 CA         11.8890    5.2450   14.9200 C.3      12 GLL5        0.0000 
     20 CA          9.3160    8.3320   15.6190 C.3       8 GLP5        0.0000 
     21 O           9.6710    4.1295   15.5850 O.2       1 ALC1        0.0000 
     22 O          10.8380    4.5320   14.7380 O.2       9 ALL1        0.0000 
     23 O           8.5040    3.7270   16.4320 O.2       5 ALP1        0.0000 
     24 CA         10.2770    2.3940   14.9875 C.3       4 GLC5        0.0000 
     25 CA         11.2010    3.7150   13.7010 C.3      12 GLL5        0.0000 
     26 CA         13.9975    5.0305   15.9085 C.3       4 GLC5        0.0000 
     27 CA         14.2580    5.8070   14.2540 C.3      12 GLL5        0.0000 
     28 CA         13.7370    4.2540   17.5630 C.3       8 GLP5        0.0000 
     29 CA         17.9355    8.9860    9.5855 C.3       4 GLC5        0.0000 
     30 CA         16.2200    7.7670    9.8050 C.3      12 GLL5        0.0000 
     31 CA         19.6510   10.2050    9.3660 C.3       8 GLP5        0.0000 
     32 CA         13.1810   10.1580    9.7905 C.3       4 GLC5        0.0000 
     33 CA         13.8450    8.1370   10.2190 C.3      12 GLL5        0.0000 
     34 CA         12.5170   12.1790    9.3620 C.3       8 GLP5        0.0000 
     35 CA         13.0165   10.9020    7.8095 C.3       4 GLC5        0.0000 
     36 CA         13.5160    9.6250    6.2570 C.3      12 GLL5        0.0000 
     37 CA         11.9315    8.7550    4.0940 C.3       4 GLC5        0.0000 
     38 CA         13.7060    8.5370    5.1670 C.3      12 GLL5        0.0000 
     39 CA         10.1570    8.9730    3.0210 C.3       8 GLP5        0.0000 
     40 CA         15.7755   10.1105    3.5480 C.3       4 GLC5        0.0000 
     41 CA         14.8180    8.8970    4.0930 C.3      12 GLL5        0.0000 
     42 CA         16.7330   11.3240    3.0030 C.3       8 GLP5        0.0000 
     43 NZ         12.5685    8.9425    2.0185 N.4       3 LYC4        0.0000 
     44 NZ         13.6440    7.3690    2.4590 N.4      11 LYL4        0.0000 
     45 NZ         11.4930   10.5160    1.5780 N.4       7 LYP4        0.0000 
     46 NZ          9.7975   10.0745    7.4805 N.4       3 LYC4        0.0000 
     47 NZ         11.2110    9.4990    7.0750 N.4      11 LYL4        0.0000 
     48 NZ          8.2350   11.8260    7.2960 N.4       7 LYP4        0.0000 
     49 N           9.7975   10.0745    7.4805 N.am      2 SEC2        0.0000 
     50 N          11.2110    9.4990    7.0750 N.am     10 SEL2        0.0000 
     51 N           8.3840   10.6500    7.8860 N.am      6 SEP2        0.0000 
     52 NZ         11.5670   10.6980    3.5180 N.4       3 LYC4        0.0000 
     53 NZ         11.6410   10.8800    5.4580 N.4      11 LYL4        0.0000 
     54 NZ         10.3500   11.5310    5.8910 N.4       3 LYC4        0.0000 
     55 N          10.3500   11.5310    5.8910 N.am      2 SEC2        0.0000 
     56 N          11.6410   10.8800    5.4580 N.am     10 SEL2        0.0000 
     57 N           9.0590   12.1820    6.3240 N.am      6 SEP2        0.0000 
     58 CA         13.9198    3.7388   10.0445 C.3       4 GLC5        0.0000 
     59 CA         14.4320    4.4930    8.3370 C.3       8 GLP5        0.0000 
     60 CA         15.0250    6.2630    8.9578 C.3       4 GLC5        0.0000 
     61 CA         16.7691    5.2149   12.1425 C.3       4 GLC5        0.0000 
     62 CA         16.3020    7.1090   11.0150 C.3      12 GLL5        0.0000 
     63 CA         15.0735    5.7585    9.8900 C.3       4 GLC5        0.0000 
     64 CA         14.1532    6.1430    9.5962 C.3       4 GLC5        0.0000 
     65 CA         13.9040    7.4490   11.4920 C.3      12 GLL5        0.0000 
     66 CA         14.9745   10.5330    4.9410 C.3       4 GLC5        0.0000 
     67 CA         16.3380   11.9850    4.1700 C.3       8 GLP5        0.0000 
     68 CA         14.0495    6.9520    5.0770 C.3       4 GLC5        0.0000 
     69 CA         13.8370    5.1870    5.5240 C.3       8 GLP5        0.0000 
@<TRIPOS>BOND
@<TRIPOS>SUBSTRUCTURE
     1 ALC1       10 GROUP        1 X    ALC  0     ROOT ALC X 1
     2 SEC2       49 GROUP        1 X    SEC  0     **** SEC X 2
     3 LYC4       43 GROUP        1 X    LYC  0     **** LYC X 4
     4 GLC5        1 GROUP        1 X    GLC  0     **** GLC X 6
     5 ALP1       12 GROUP        1 Y    ALP  0     ROOT ALP Y 8
     6 SEP2       51 GROUP        1 Y    SEP  0     **** SEP Y 9
     7 LYP4       45 GROUP        1 Y    LYP  0     **** LYP Y 11
     8 GLP5        3 GROUP        1 Y    GLP  0     **** GLP Y 13
     9 ALL1       11 GROUP        1 Z    ALL  0     ROOT ALL Z 15
    10 SEL2       50 GROUP        1 Z    SEL  0     **** SEL Z 16
    11 LYL4       44 GROUP        1 Z    LYL  0     **** LYL Z 18
    12 GLL5        2 GROUP        1 Z    GLL  0     **** GLL Z 20
@<TRIPOS>SET

