#    Name: 1e26_GPB_1_ligand
#    Modification time : Mon Mar 24 22:45:01 2014

@<TRIPOS>MOLECULE
1e26_GPB_1_ligand
   52    54     1     0     0
SMALL
NO_CHARGES


@<TRIPOS>ATOM
      1 N1         10.2540    2.7580   13.1950 N.ar      1 GPB208      0.0000 
      2 C2         10.5750    1.9740   12.1900 C.ar      1 GPB208      0.0000 
      3 NA2         9.7900    1.1160   11.6990 N.pl3     1 GPB208      0.0000 
      4 N3         11.8790    2.0950   11.6220 N.ar      1 GPB208      0.0000 
      5 C4         12.8510    2.9760   12.0400 C.ar      1 GPB208      0.0000 
      6 C5         13.9640    2.9930   11.4640 C.3       1 GPB208      0.0000 
      7 C4A        12.4700    3.8780   13.1950 C.ar      1 GPB208      0.0000 
      8 C6         12.9520    5.0300   14.1400 C.2       1 GPB208      0.0000 
      9 C7         11.8890    5.2450   14.9200 C.2       1 GPB208      0.0000 
     10 N8         10.8380    4.5320   14.7380 N.pl3     1 GPB208      0.0000 
     11 C8A        11.2010    3.7150   13.7010 C.ar      1 GPB208      0.0000 
     12 C9         14.2580    5.8070   14.2540 C.3       1 GPB208      0.0000 
     13 C10        15.3050    6.1620   13.1830 C.3       1 GPB208      0.0000 
     14 C11        15.0160    8.2990    9.3520 C.ar      1 GPB208      0.0000 
     15 C12        16.2200    7.7670    9.8050 C.ar      1 GPB208      0.0000 
     16 C13        16.3020    7.1090   11.0150 C.ar      1 GPB208      0.0000 
     17 C14        15.1280    6.9390   11.8710 C.ar      1 GPB208      0.0000 
     18 C15        13.9040    7.4490   11.4920 C.ar      1 GPB208      0.0000 
     19 C16        13.8450    8.1370   10.2190 C.ar      1 GPB208      0.0000 
     20 C          14.9620    8.9580    8.1080 C.2       1 GPB208      0.0000 
     21 O          15.8790    9.5890    7.6210 O.2       1 GPB208      0.0000 
     22 N          13.8650    8.9360    7.4980 N.am      1 GPB208      0.0000 
     23 CA         13.5160    9.6250    6.2570 C.3       1 GPB208      0.0000 
     24 CB         13.7060    8.5370    5.1670 C.3       1 GPB208      0.0000 
     25 CG         14.8180    8.8970    4.0930 C.3       1 GPB208      0.0000 
     26 CD         14.7590    7.6700    3.1770 C.2       1 GPB208      0.0000 
     27 OE1        15.9830    7.1290    3.2910 O.co2     1 GPB208      0.0000 
     28 OE2        13.6440    7.3690    2.4590 O.co2     1 GPB208      0.0000 
     29 CT         12.0200   10.0130    6.2750 C.2       1 GPB208      0.0000 
     30 O1         11.2110    9.4990    7.0750 O.co2     1 GPB208      0.0000 
     31 O2         11.6410   10.8800    5.4580 O.co2     1 GPB208      0.0000 
     32 H          10.2183    0.3059   11.2986 H         1 GPB208      0.0000 
     33 H           8.8144    1.3280   11.7570 H         1 GPB208      0.0000 
     34 H          11.9374    5.9861   15.6577 H         1 GPB208      0.0000 
     35 H          10.0039    4.5276   15.1743 H         1 GPB208      0.0000 
     36 H          14.8611    5.3169   15.1450 H         1 GPB208      0.0000 
     37 H          13.9951    6.8234   14.7978 H         1 GPB208      0.0000 
     38 H          15.8438    5.1559   12.9031 H         1 GPB208      0.0000 
     39 H          16.1987    6.6703   13.7520 H         1 GPB208      0.0000 
     40 H          17.0700    7.8702    9.2169 H         1 GPB208      0.0000 
     41 H          17.1907    6.7171   11.3538 H         1 GPB208      0.0000 
     42 H          13.0767    7.3650   12.0467 H         1 GPB208      0.0000 
     43 H          12.9508    8.5295    9.9047 H         1 GPB208      0.0000 
     44 H          13.0187    8.3521    7.8803 H         1 GPB208      0.0000 
     45 H          14.1153   10.4300    6.0518 H         1 GPB208      0.0000 
     46 H          12.7626    8.3867    4.6373 H         1 GPB208      0.0000 
     47 H          13.9890    7.5947    5.6416 H         1 GPB208      0.0000 
     48 H          15.7407    8.9512    4.5782 H         1 GPB208      0.0000 
     49 H          14.5167    9.7550    3.5804 H         1 GPB208      0.0000 
     50 H          14.5785    3.6734   11.8633 H         1 GPB208      0.0000 
     51 H          14.4270    2.1087   11.5244 H         1 GPB208      0.0000 
     52 H          13.8760    3.2120   10.4923 H         1 GPB208      0.0000 
@<TRIPOS>BOND
     1    2    1 ar   
     2   11    1 ar   
     3    3    2 1    
     4    4    2 ar   
     5   32    3 1    
     6   33    3 1    
     7    5    4 ar   
     8    6    5 1    
     9    7    5 ar   
    10   50    6 1    
    11   51    6 1    
    12   52    6 1    
    13    8    7 1    
    14   11    7 ar   
    15    9    8 2    
    16   12    8 1    
    17   10    9 1    
    18   34    9 1    
    19   11   10 1    
    20   35   10 1    
    21   13   12 1    
    22   36   12 1    
    23   37   12 1    
    24   17   13 1    
    25   38   13 1    
    26   39   13 1    
    27   15   14 ar   
    28   19   14 ar   
    29   20   14 1    
    30   16   15 ar   
    31   40   15 1    
    32   17   16 ar   
    33   41   16 1    
    34   18   17 ar   
    35   19   18 ar   
    36   42   18 1    
    37   43   19 1    
    38   21   20 2    
    39   22   20 am   
    40   23   22 1    
    41   44   22 1    
    42   24   23 1    
    43   29   23 1    
    44   45   23 1    
    45   25   24 1    
    46   46   24 1    
    47   47   24 1    
    48   26   25 1    
    49   48   25 1    
    50   49   25 1    
    51   27   26 ar   
    52   28   26 ar   
    53   30   29 ar   
    54   31   29 ar   
@<TRIPOS>SUBSTRUCTURE
     1 GPB208      1 GROUP   
@<TRIPOS>SET

