#    Name: 3m6i_NAD_1_INTS_M
#    Modification time : Mon Mar 24 22:47:06 2014

@<TRIPOS>MOLECULE
3m6i_NAD_1_INTS_M
   81     0    12     0     0
SMALL
NO_CHARGES


@<TRIPOS>ATOM
      1 NZ         45.0265  -23.0110    9.6020 N.4       3 LYC4        0.0000 
      2 NZ         46.7040  -22.4510   10.5200 N.4      11 LYL4        0.0000 
      3 NZ         43.3490  -23.5710    8.6840 N.4       7 LYP4        0.0000 
      4 CA         48.3440  -22.1145    4.5295 C.3       4 GLC5        0.0000 
      5 CA         48.1630  -23.4260    6.3310 C.3      12 GLL5        0.0000 
      6 CA         48.5250  -20.8030    2.7280 C.3       8 GLP5        0.0000 
      7 N          45.7250  -23.2460    4.6855 N.am      2 SEC2        0.0000 
      8 N          45.7860  -23.7340    6.1080 N.am     10 SEL2        0.0000 
      9 N          45.6640  -22.7580    3.2630 N.am      6 SEP2        0.0000 
     10 N          44.3460  -23.5370    6.7800 N.am      2 SEC2        0.0000 
     11 N          42.9060  -23.3400    7.4520 N.am      6 SEP2        0.0000 
     12 N          45.2005  -23.8095    7.4825 N.am      2 SEC2        0.0000 
     13 N          44.6150  -23.8850    8.8570 N.am      6 SEP2        0.0000 
     14 O          45.6720  -25.4510    3.8625 O.2       1 ALC1        0.0000 
     15 O          46.1390  -26.0380    4.9090 O.2       9 ALL1        0.0000 
     16 O          45.2050  -24.8640    2.8160 O.2       5 ALP1        0.0000 
     17 CA         48.3580  -22.7900    3.6195 C.3       4 GLC5        0.0000 
     18 CA         48.1910  -24.7770    4.5110 C.3      12 GLL5        0.0000 
     19 CA         49.8425  -23.8170    3.9050 C.3       4 GLC5        0.0000 
     20 CA         51.4940  -22.8570    3.2990 C.3       8 GLP5        0.0000 
     21 CA         52.3060  -25.4880    0.1715 C.3       4 GLC5        0.0000 
     22 CA         50.6090  -26.4450    0.6730 C.3      12 GLL5        0.0000 
     23 CA         54.0030  -24.5310   -0.3300 C.3       8 GLP5        0.0000 
     24 CA         48.9855  -22.6195    1.5180 C.3       4 GLC5        0.0000 
     25 CA         49.4460  -24.4360    0.3080 C.3      12 GLL5        0.0000 
     26 CA         47.6895  -24.1095    0.1645 C.3       4 GLC5        0.0000 
     27 CA         45.9330  -23.7830    0.0210 C.3       8 GLP5        0.0000 
     28 CA         48.7315  -24.8330   -1.4790 C.3       4 GLC5        0.0000 
     29 CA         48.0170  -25.2300   -3.2660 C.3       8 GLP5        0.0000 
     30 CA         50.4700  -23.6465    1.8035 C.3       4 GLC5        0.0000 
     31 CA         47.6335  -24.5980    1.2215 C.3       4 GLC5        0.0000 
     32 CA         49.3340  -25.4130    2.4220 C.3      12 GLL5        0.0000 
     33 CA         47.8275  -26.9505    2.3410 C.3       4 GLC5        0.0000 
     34 CA         46.3210  -28.4880    2.2600 C.3       8 GLP5        0.0000 
     35 N          48.0635  -18.3735    9.5495 N.am      2 SEC2        0.0000 
     36 N          48.3820  -19.8810    9.6890 N.am     10 SEL2        0.0000 
     37 N          47.7450  -16.8660    9.4100 N.am      6 SEP2        0.0000 
     38 N          49.4880  -20.6360   13.7180 N.am      2 SEC2        0.0000 
     39 N          48.8610  -20.0550   12.2360 N.am     10 SEL2        0.0000 
     40 N          50.1150  -21.2170   15.2000 N.am      6 SEP2        0.0000 
     41 CA         50.9395  -18.6955   10.1110 C.3       4 GLC5        0.0000 
     42 CA         51.4580  -20.6090    9.4010 C.3      12 GLL5        0.0000 
     43 CA         50.4210  -16.7820   10.8210 C.3       8 GLP5        0.0000 
     44 CA         54.5530  -20.4535    8.6660 C.3       4 GLC5        0.0000 
     45 CA         52.9570  -20.7020    9.6960 C.3      12 GLL5        0.0000 
     46 CA         56.1490  -20.2050    7.6360 C.3       8 GLP5        0.0000 
     47 N          55.7380  -22.2700    9.6530 N.am      2 SEC2        0.0000 
     48 N          54.2490  -22.5910   10.4540 N.am     10 SEL2        0.0000 
     49 N          57.2270  -21.9490    8.8520 N.am      6 SEP2        0.0000 
     50 CA         52.1780  -21.6090   13.3620 C.3       4 GLC5        0.0000 
     51 CA         53.6640  -20.7390   11.9960 C.3      12 GLL5        0.0000 
     52 CA         50.6920  -22.4790   14.7280 C.3       8 GLP5        0.0000 
     53 CA         55.2310  -19.9095    9.4260 C.3       4 GLC5        0.0000 
     54 CA         54.3130  -19.6140   11.2160 C.3      12 GLL5        0.0000 
     55 N          58.7820  -14.3565   13.5285 N.am      2 SEC2        0.0000 
     56 N          57.7920  -15.2690   13.2320 N.am     10 SEL2        0.0000 
     57 N          59.7720  -13.4440   13.8250 N.am      6 SEP2        0.0000 
     58 O          57.6845  -17.3245   10.2690 O.2       1 ALC1        0.0000 
     59 O          58.1310  -16.6590   11.4950 O.2       9 ALL1        0.0000 
     60 O          57.2380  -17.9900    9.0430 O.2       5 ALP1        0.0000 
     61 O          59.5570  -16.2575   11.0480 O.2       1 ALC1        0.0000 
     62 O          60.9830  -15.8560   10.6010 O.2       5 ALP1        0.0000 
     63 CA         52.0130  -16.0125   12.4485 C.3       4 GLC5        0.0000 
     64 CA         53.6090  -16.4830   13.1710 C.3      12 GLL5        0.0000 
     65 CA         50.4170  -15.5420   11.7260 C.3       8 GLP5        0.0000 
     66 CA         51.8955  -17.2450   11.6720 C.3       4 GLC5        0.0000 
     67 CA         53.3700  -17.7080   12.5230 C.3      12 GLL5        0.0000 
     68 CA         46.7141  -22.1099    7.1894 C.3       4 GLC5        0.0000 
     69 CA         48.9740  -23.2870    7.6000 C.3      12 GLL5        0.0000 
     70 CA         45.6470  -20.3470    7.6540 C.3       8 GLP5        0.0000 
     71 CA         48.9308  -27.6142    0.6850 C.3       4 GLC5        0.0000 
     72 CA         50.1480  -26.4520    1.9910 C.3      12 GLL5        0.0000 
     73 CA         47.4830  -28.7800    0.0380 C.3       8 GLP5        0.0000 
     74 CA         50.6175  -24.3947    2.7527 C.3       4 GLC5        0.0000 
     75 CA         55.4890  -16.4552   10.4473 C.3       4 GLC5        0.0000 
     76 CA         55.6370  -17.8310   11.9500 C.3      12 GLL5        0.0000 
     77 CA         55.1930  -15.6800    8.6290 C.3       8 GLP5        0.0000 
     78 CA         52.5183  -17.8847   14.2235 C.3       4 GLC5        0.0000 
     79 CA         51.5470  -18.6740   15.6000 C.3       8 GLP5        0.0000 
     80 CA         54.3835  -14.8080   12.0975 C.3       4 GLC5        0.0000 
     81 CA         54.2550  -13.2340   11.1590 C.3       8 GLP5        0.0000 
@<TRIPOS>BOND
@<TRIPOS>SUBSTRUCTURE
     1 ALC1       14 GROUP        1 X    ALC  0     ROOT ALC X 1
     2 SEC2        7 GROUP        1 X    SEC  0     **** SEC X 2
     3 LYC4        1 GROUP        1 X    LYC  0     **** LYC X 4
     4 GLC5        4 GROUP        1 X    GLC  0     **** GLC X 6
     5 ALP1       16 GROUP        1 Y    ALP  0     ROOT ALP Y 8
     6 SEP2        9 GROUP        1 Y    SEP  0     **** SEP Y 9
     7 LYP4        3 GROUP        1 Y    LYP  0     **** LYP Y 11
     8 GLP5        6 GROUP        1 Y    GLP  0     **** GLP Y 13
     9 ALL1       15 GROUP        1 Z    ALL  0     ROOT ALL Z 15
    10 SEL2        8 GROUP        1 Z    SEL  0     **** SEL Z 16
    11 LYL4        2 GROUP        1 Z    LYL  0     **** LYL Z 18
    12 GLL5        5 GROUP        1 Z    GLL  0     **** GLL Z 20
@<TRIPOS>SET

