#    Name: 3m6i_NAD_1_ligand
#    Modification time : Mon Mar 24 22:47:06 2014

@<TRIPOS>MOLECULE
3m6i_NAD_1_ligand
   70    74     1     0     0
SMALL
NO_CHARGES


@<TRIPOS>ATOM
      1 PA         48.0300  -22.9110    9.9700 P.3       1 NAD501      0.0000 
      2 O1A        48.3800  -24.3740    9.9230 O.co2     1 NAD501      0.0000 
      3 O2A        46.7040  -22.4510   10.5200 O.co2     1 NAD501      0.0000 
      4 O5B        48.2070  -22.4500    8.4510 O.3       1 NAD501      0.0000 
      5 C5B        48.9740  -23.2870    7.6000 C.3       1 NAD501      0.0000 
      6 C4B        48.1630  -23.4260    6.3310 C.3       1 NAD501      0.0000 
      7 O4B        49.0120  -23.9830    5.3290 O.3       1 NAD501      0.0000 
      8 C3B        46.9940  -24.3890    6.4840 C.3       1 NAD501      0.0000 
      9 O3B        45.7860  -23.7340    6.1080 O.3       1 NAD501      0.0000 
     10 C2B        47.3080  -25.5010    5.5090 C.3       1 NAD501      0.0000 
     11 O2B        46.1390  -26.0380    4.9090 O.3       1 NAD501      0.0000 
     12 C1B        48.1910  -24.7770    4.5110 C.3       1 NAD501      0.0000 
     13 N9A        49.0500  -25.6460    3.7010 N.pl3     1 NAD501      0.0000 
     14 C8A        49.6380  -26.7780    4.0880 C.2       1 NAD501      0.0000 
     15 N7A        50.3130  -27.2880    3.0370 N.2       1 NAD501      0.0000 
     16 C5A        50.1480  -26.4520    1.9910 C.ar      1 NAD501      0.0000 
     17 C6A        50.6090  -26.4450    0.6730 C.ar      1 NAD501      0.0000 
     18 N6A        51.3970  -27.4460    0.2100 N.pl3     1 NAD501      0.0000 
     19 N1A        50.2380  -25.4300   -0.1420 N.ar      1 NAD501      0.0000 
     20 C2A        49.4460  -24.4360    0.3080 C.ar      1 NAD501      0.0000 
     21 N3A        48.9960  -24.4140    1.5670 N.ar      1 NAD501      0.0000 
     22 C4A        49.3340  -25.4130    2.4220 C.ar      1 NAD501      0.0000 
     23 O3         49.1770  -22.0810   10.7080 O.3       1 NAD501      0.0000 
     24 PN         49.1730  -20.4840   10.8160 P.3       1 NAD501      0.0000 
     25 O1N        48.3820  -19.8810    9.6890 O.co2     1 NAD501      0.0000 
     26 O2N        48.8610  -20.0550   12.2360 O.co2     1 NAD501      0.0000 
     27 O5D        50.7370  -20.1800   10.5730 O.3       1 NAD501      0.0000 
     28 C5D        51.4580  -20.6090    9.4010 C.3       1 NAD501      0.0000 
     29 C4D        52.9570  -20.7020    9.6960 C.3       1 NAD501      0.0000 
     30 O4D        53.5020  -19.4360   10.0700 O.3       1 NAD501      0.0000 
     31 C3D        53.2370  -21.6600   10.8600 C.3       1 NAD501      0.0000 
     32 O3D        54.2490  -22.5910   10.4540 O.3       1 NAD501      0.0000 
     33 C2D        53.6640  -20.7390   11.9960 C.3       1 NAD501      0.0000 
     34 O2D        54.5540  -21.3470   12.9360 O.3       1 NAD501      0.0000 
     35 C1D        54.3130  -19.6140   11.2160 C.3       1 NAD501      0.0000 
     36 N1N        54.4050  -18.3470   11.9330 N.pl3     1 NAD501      0.0000 
     37 C2N        55.6370  -17.8310   11.9500 C.ar      1 NAD501      0.0000 
     38 C3N        55.9330  -16.6300   12.5810 C.ar      1 NAD501      0.0000 
     39 C7N        57.3630  -16.1450   12.4770 C.2       1 NAD501      0.0000 
     40 O7N        57.7920  -15.2690   13.2320 O.2       1 NAD501      0.0000 
     41 N7N        58.1310  -16.6590   11.4950 N.am      1 NAD501      0.0000 
     42 C4N        54.8970  -15.9320   13.2210 C.ar      1 NAD501      0.0000 
     43 C5N        53.6090  -16.4830   13.1710 C.ar      1 NAD501      0.0000 
     44 C6N        53.3700  -17.7080   12.5230 C.ar      1 NAD501      0.0000 
     45 H          49.1208  -24.2730    8.0205 H         1 NAD501      0.0000 
     46 H          49.9298  -22.8474    7.3473 H         1 NAD501      0.0000 
     47 H          47.7938  -22.4730    6.0304 H         1 NAD501      0.0000 
     48 H          46.9913  -24.7701    7.4605 H         1 NAD501      0.0000 
     49 H          47.9109  -26.2188    6.0152 H         1 NAD501      0.0000 
     50 H          47.5698  -24.1576    3.8977 H         1 NAD501      0.0000 
     51 H          49.5940  -27.1746    4.9708 H         1 NAD501      0.0000 
     52 H          51.6528  -27.3940   -0.7553 H         1 NAD501      0.0000 
     53 H          51.6528  -28.1479    0.8747 H         1 NAD501      0.0000 
     54 H          49.1774  -23.6587   -0.3531 H         1 NAD501      0.0000 
     55 H          51.3225  -19.9072    8.5681 H         1 NAD501      0.0000 
     56 H          51.1204  -21.5969    9.0622 H         1 NAD501      0.0000 
     57 H          53.4607  -21.0953    8.8249 H         1 NAD501      0.0000 
     58 H          52.3146  -22.1220   11.1179 H         1 NAD501      0.0000 
     59 H          52.7693  -20.3433   12.4376 H         1 NAD501      0.0000 
     60 H          55.2990  -19.9501   10.9098 H         1 NAD501      0.0000 
     61 H          56.4298  -18.3376   11.4728 H         1 NAD501      0.0000 
     62 H          59.0821  -16.3508   11.4733 H         1 NAD501      0.0000 
     63 H          57.6811  -17.3027   10.8759 H         1 NAD501      0.0000 
     64 H          55.0743  -15.0626   13.7009 H         1 NAD501      0.0000 
     65 H          52.8239  -15.9842   13.6153 H         1 NAD501      0.0000 
     66 H          52.4189  -18.0888   12.5121 H         1 NAD501      0.0000 
     67 H          45.9443  -22.7664    6.3049 H         1 NAD501      0.0000 
     68 H          45.9260  -25.4161    4.1555 H         1 NAD501      0.0000 
     69 H          53.7484  -23.3603   10.0570 H         1 NAD501      0.0000 
     70 H          54.7455  -22.2542   12.5615 H         1 NAD501      0.0000 
@<TRIPOS>BOND
     1    2    1 ar   
     2    3    1 ar   
     3    4    1 1    
     4   23    1 1    
     5    5    4 1    
     6    6    5 1    
     7   45    5 1    
     8   46    5 1    
     9    7    6 1    
    10    8    6 1    
    11   47    6 1    
    12   12    7 1    
    13    9    8 1    
    14   10    8 1    
    15   48    8 1    
    16   67    9 1    
    17   11   10 1    
    18   12   10 1    
    19   49   10 1    
    20   68   11 1    
    21   13   12 1    
    22   50   12 1    
    23   14   13 1    
    24   22   13 1    
    25   15   14 2    
    26   51   14 1    
    27   16   15 1    
    28   17   16 ar   
    29   22   16 ar   
    30   18   17 1    
    31   19   17 ar   
    32   52   18 1    
    33   53   18 1    
    34   20   19 ar   
    35   21   20 ar   
    36   54   20 1    
    37   22   21 ar   
    38   24   23 1    
    39   25   24 ar   
    40   26   24 ar   
    41   27   24 1    
    42   28   27 1    
    43   29   28 1    
    44   55   28 1    
    45   56   28 1    
    46   30   29 1    
    47   31   29 1    
    48   57   29 1    
    49   35   30 1    
    50   32   31 1    
    51   33   31 1    
    52   58   31 1    
    53   69   32 1    
    54   34   33 1    
    55   35   33 1    
    56   59   33 1    
    57   70   34 1    
    58   36   35 1    
    59   60   35 1    
    60   37   36 ar   
    61   44   36 ar   
    62   38   37 ar   
    63   61   37 1    
    64   39   38 1    
    65   42   38 ar   
    66   40   39 2    
    67   41   39 am   
    68   62   41 1    
    69   63   41 1    
    70   43   42 ar   
    71   64   42 1    
    72   44   43 ar   
    73   65   43 1    
    74   66   44 1    
@<TRIPOS>SUBSTRUCTURE
     1 NAD501      1 GROUP   
@<TRIPOS>SET

