#    Name: 1c4u_IH1_1_INTS_M
#    Modification time : Mon Mar 24 20:19:10 2014

@<TRIPOS>MOLECULE
1c4u_IH1_1_INTS_M
   56     0     9     0     0
SMALL
NO_CHARGES


@<TRIPOS>ATOM
      1 CA         22.6250  -13.3085   27.2810 C.3       3 GLC5        0.0000 
      2 CA         21.0480  -14.3190   26.2120 C.3       9 GLL5        0.0000 
      3 CA         24.2020  -12.2980   28.3500 C.3       6 GLP5        0.0000 
      4 CA         20.2095  -15.7000   28.3170 C.3       3 GLC5        0.0000 
      5 CA         19.8910  -14.9510   26.5140 C.3       9 GLL5        0.0000 
      6 CA         20.5280  -16.4490   30.1200 C.3       6 GLP5        0.0000 
      7 CA         23.8220  -13.3095   26.7375 C.3       3 GLC5        0.0000 
      8 CA         23.4420  -14.3210   25.1250 C.3       9 GLL5        0.0000 
      9 CA         23.5795  -12.7070   24.0435 C.3       3 GLC5        0.0000 
     10 CA         23.7170  -11.0930   22.9620 C.3       6 GLP5        0.0000 
     11 CA         18.0755  -12.3355   23.5260 C.3       3 GLC5        0.0000 
     12 CA         18.4770  -13.0140   21.7470 C.3       9 GLL5        0.0000 
     13 CA         17.6740  -11.6570   25.3050 C.3       6 GLP5        0.0000 
     14 CA         19.3590  -11.4160   19.7910 C.3       3 GLC5        0.0000 
     15 CA         19.7290  -12.8770   21.1120 C.3       9 GLL5        0.0000 
     16 CA         18.9890   -9.9550   18.4700 C.3       6 GLP5        0.0000 
     17 CA         21.8395  -13.3645   20.7665 C.3       3 GLC5        0.0000 
     18 CA         23.9500  -13.8520   20.4210 C.3       6 GLP5        0.0000 
     19 N          15.6630  -13.5705   24.5480 N.am      2 SEC2        0.0000 
     20 N          16.5860  -14.3920   23.3750 N.am      8 SEL2        0.0000 
     21 N          14.7400  -12.7490   25.7210 N.am      5 SEP2        0.0000 
     22 CA         12.4430  -12.4180   19.3170 C.3       3 GLC5        0.0000 
     23 CA         13.6350  -12.0180   21.1120 C.3       9 GLL5        0.0000 
     24 CA         11.2510  -12.8180   17.5220 C.3       6 GLP5        0.0000 
     25 CA         10.4555   -9.5220   22.4170 C.3       3 GLC5        0.0000 
     26 CA         11.9440  -10.7790   22.3690 C.3       9 GLL5        0.0000 
     27 CA          8.9670   -8.2650   22.4650 C.3       6 GLP5        0.0000 
     28 CA         10.3960  -11.3960   21.3360 C.3       3 GLC5        0.0000 
     29 CA          8.8480  -12.0130   20.3030 C.3       6 GLP5        0.0000 
     30 O           9.2695  -12.8090   25.0830 O.2       1 ALC1        0.0000 
     31 O          10.3730  -12.9340   24.2100 O.2       7 ALL1        0.0000 
     32 O           8.1660  -12.6840   25.9560 O.2       4 ALP1        0.0000 
     33 O           9.3565  -10.6200   25.5480 O.2       1 ALC1        0.0000 
     34 O          10.4990  -10.8270   24.9970 O.2       7 ALL1        0.0000 
     35 O           8.2140  -10.4130   26.0990 O.2       4 ALP1        0.0000 
     36 O           9.3325  -11.7555   25.4765 O.2       1 ALC1        0.0000 
     37 CA         19.0717  -13.1460   25.8340 C.3       3 GLC5        0.0000 
     38 CA         21.9945  -14.8035   20.7127 C.3       3 GLC5        0.0000 
     39 CA         20.6890  -13.7440   20.8150 C.3       9 GLL5        0.0000 
     40 CA         23.4170  -15.1560   20.3690 C.3       6 GLP5        0.0000 
     41 CA         20.5885  -12.1779   22.0941 C.3       3 GLC5        0.0000 
     42 CA         21.2810  -11.0110   23.0660 C.3       6 GLP5        0.0000 
     43 CA         19.6110  -15.1226   19.6059 C.3       3 GLC5        0.0000 
     44 CA         18.8900  -16.0110   18.0810 C.3       6 GLP5        0.0000 
     45 CA         12.6585   -8.8410   21.7275 C.3       3 GLC5        0.0000 
     46 CA         13.1260  -10.6710   21.5830 C.3       9 GLL5        0.0000 
     47 CA         12.7820   -6.9570   21.4790 C.3       6 GLP5        0.0000 
     48 CA         14.6170  -11.9432   23.8173 C.3       3 GLC5        0.0000 
     49 CA         12.2410  -11.6020   23.7210 C.3       9 GLL5        0.0000 
     50 CA         16.2500  -11.1540   24.8580 C.3       6 GLP5        0.0000 
     51 CA         13.3330  -13.0738   24.6258 C.3       3 GLC5        0.0000 
     52 CA         13.5510  -13.1730   22.1480 C.3       9 GLL5        0.0000 
     53 CA         13.6820  -13.4150   26.4750 C.3       6 GLP5        0.0000 
     54 CA         21.3846  -16.3734   27.5614 C.3       3 GLC5        0.0000 
     55 CA         19.6460  -16.2650   26.1410 C.3       9 GLL5        0.0000 
     56 CA         21.9430  -16.6630   29.4700 C.3       6 GLP5        0.0000 
@<TRIPOS>BOND
@<TRIPOS>SUBSTRUCTURE
     1 ALC1       30 GROUP        1 X    ALC  0     ROOT ALC X 1
     2 SEC2       19 GROUP        1 X    SEC  0     **** SEC X 2
     3 GLC5        1 GROUP        1 X    GLC  0     **** GLC X 6
     4 ALP1       32 GROUP        1 Y    ALP  0     ROOT ALP Y 8
     5 SEP2       21 GROUP        1 Y    SEP  0     **** SEP Y 9
     6 GLP5        3 GROUP        1 Y    GLP  0     **** GLP Y 13
     7 ALL1       31 GROUP        1 Z    ALL  0     ROOT ALL Z 15
     8 SEL2       20 GROUP        1 Z    SEL  0     **** SEL Z 16
     9 GLL5        2 GROUP        1 Z    GLL  0     **** GLL Z 20
@<TRIPOS>SET

