#    Name: 1c4u_IH1_1_ligand
#    Modification time : Mon Mar 24 20:19:10 2014

@<TRIPOS>MOLECULE
1c4u_IH1_1_ligand
   66    69     1     0     0
SMALL
NO_CHARGES


@<TRIPOS>ATOM
      1 C27        21.9140  -15.0870   25.5810 C.ar      1 IH1370      0.0000 
      2 C28        21.0480  -14.3190   26.2120 C.ar      1 IH1370      0.0000 
      3 C29        19.8910  -14.9510   26.5140 C.ar      1 IH1370      0.0000 
      4 C24        19.6460  -16.2650   26.1410 C.ar      1 IH1370      0.0000 
      5 C25        20.5030  -16.9760   25.4410 C.ar      1 IH1370      0.0000 
      6 C26        21.6750  -16.3910   25.1330 C.ar      1 IH1370      0.0000 
      7 BR         23.4420  -14.3210   25.1250 Br        1 IH1370      0.0000 
      8 S          18.1600  -17.1020   26.4320 S.o2      1 IH1370      0.0000 
      9 O1         17.2280  -16.0250   26.7360 O.2       1 IH1370      0.0000 
     10 O2         18.4440  -17.9820   27.5840 O.2       1 IH1370      0.0000 
     11 C23        17.6480  -17.9860   25.0220 C.3       1 IH1370      0.0000 
     12 C22        17.0590  -17.1230   23.8100 C.3       1 IH1370      0.0000 
     13 C13        18.4770  -13.0140   21.7470 C.3       1 IH1370      0.0000 
     14 C14        19.7290  -12.8770   21.1120 C.2       1 IH1370      0.0000 
     15 C15        20.6890  -13.7440   20.8150 C.2       1 IH1370      0.0000 
     16 C16        20.4550  -15.1580   21.2980 C.3       1 IH1370      0.0000 
     17 C19        19.0290  -16.4530   22.6890 C.2       1 IH1370      0.0000 
     18 C21        17.5700  -14.8640   23.0450 C.2       1 IH1370      0.0000 
     19 N17        19.2900  -15.2970   21.9610 N.am      1 IH1370      0.0000 
     20 N18        18.5340  -14.2870   22.4350 N.am      1 IH1370      0.0000 
     21 O21        16.5860  -14.3920   23.3750 O.2       1 IH1370      0.0000 
     22 O19        19.7750  -17.4080   22.5830 O.2       1 IH1370      0.0000 
     23 N20        17.8950  -16.2050   23.2180 N.am      1 IH1370      0.0000 
     24 C12        17.1880  -12.6810   20.7050 C.2       1 IH1370      0.0000 
     25 O12        17.3750  -12.1980   19.5280 O.2       1 IH1370      0.0000 
     26 C1         14.8760  -12.1880   20.4480 C.3       1 IH1370      0.0000 
     27 C2         13.6350  -12.0180   21.1120 C.3       1 IH1370      0.0000 
     28 C3         13.1260  -10.6710   21.5830 C.3       1 IH1370      0.0000 
     29 C4         11.9440  -10.7790   22.3690 C.3       1 IH1370      0.0000 
     30 C5         12.2410  -11.6020   23.7210 C.3       1 IH1370      0.0000 
     31 C6         12.5930  -12.9820   23.0890 C.3       1 IH1370      0.0000 
     32 N9         15.8230  -12.4690   20.9900 N.am      1 IH1370      0.0000 
     33 C7         13.5510  -13.1730   22.1480 C.3       1 IH1370      0.0000 
     34 C8         10.9750  -11.8100   24.2710 C.ar      1 IH1370      0.0000 
     35 N11        10.3730  -12.9340   24.2100 N.pl3     1 IH1370      0.0000 
     36 N10        10.4990  -10.8270   24.9970 N.pl3     1 IH1370      0.0000 
     37 H          21.2135  -13.3595   26.4524 H         1 IH1370      0.0000 
     38 H          19.1428  -14.4427   27.0488 H         1 IH1370      0.0000 
     39 H          20.3004  -17.9371   25.1357 H         1 IH1370      0.0000 
     40 H          22.3952  -16.8706   24.5820 H         1 IH1370      0.0000 
     41 H          16.9008  -18.6849   25.3864 H         1 IH1370      0.0000 
     42 H          18.5283  -18.5356   24.7017 H         1 IH1370      0.0000 
     43 H          16.1175  -16.6579   24.2294 H         1 IH1370      0.0000 
     44 H          16.6638  -17.8942   23.0836 H         1 IH1370      0.0000 
     45 H          18.4002  -12.1942   22.5215 H         1 IH1370      0.0000 
     46 H          19.9288  -11.8108   20.8067 H         1 IH1370      0.0000 
     47 H          21.5274  -13.5698   20.3203 H         1 IH1370      0.0000 
     48 H          21.3477  -15.4337   21.9175 H         1 IH1370      0.0000 
     49 H          20.5270  -15.8180   20.3947 H         1 IH1370      0.0000 
     50 H          14.9665  -11.1953   19.7751 H         1 IH1370      0.0000 
     51 H          14.5991  -12.9110   19.5276 H         1 IH1370      0.0000 
     52 H          12.8200  -12.3898   20.3252 H         1 IH1370      0.0000 
     53 H          12.9573  -10.0416   20.6849 H         1 IH1370      0.0000 
     54 H          13.9443  -10.1809   22.1500 H         1 IH1370      0.0000 
     55 H          11.1417  -11.3219   21.8642 H         1 IH1370      0.0000 
     56 H          11.5549   -9.8112   22.6931 H         1 IH1370      0.0000 
     57 H          12.9562  -11.2180   24.2139 H         1 IH1370      0.0000 
     58 H          11.5601  -13.4006   22.7366 H         1 IH1370      0.0000 
     59 H          12.7577  -13.6794   24.0125 H         1 IH1370      0.0000 
     60 H          15.7192  -12.6626   22.1702 H         1 IH1370      0.0000 
     61 H          14.5805  -13.2687   22.5750 H         1 IH1370      0.0000 
     62 H          13.4041  -14.1051   21.5472 H         1 IH1370      0.0000 
     63 H           9.4568  -12.9647   24.6095 H         1 IH1370      0.0000 
     64 H          10.8742  -13.6782   23.7684 H         1 IH1370      0.0000 
     65 H          11.1002  -10.0368   25.1161 H         1 IH1370      0.0000 
     66 H           9.5784  -10.9576   25.3651 H         1 IH1370      0.0000 
@<TRIPOS>BOND
     1    2    1 ar   
     2    6    1 ar   
     3    7    1 1    
     4    3    2 ar   
     5   37    2 1    
     6    4    3 ar   
     7   38    3 1    
     8    5    4 ar   
     9    8    4 1    
    10    6    5 ar   
    11   39    5 1    
    12   40    6 1    
    13    9    8 2    
    14   10    8 2    
    15   11    8 1    
    16   12   11 1    
    17   41   11 1    
    18   42   11 1    
    19   23   12 1    
    20   43   12 1    
    21   44   12 1    
    22   14   13 1    
    23   20   13 1    
    24   24   13 1    
    25   45   13 1    
    26   15   14 2    
    27   46   14 1    
    28   16   15 1    
    29   47   15 1    
    30   19   16 1    
    31   48   16 1    
    32   49   16 1    
    33   19   17 am   
    34   22   17 2    
    35   23   17 am   
    36   20   18 am   
    37   21   18 2    
    38   23   18 am   
    39   20   19 1    
    40   25   24 2    
    41   32   24 am   
    42   27   26 1    
    43   32   26 1    
    44   50   26 1    
    45   51   26 1    
    46   28   27 1    
    47   33   27 1    
    48   52   27 1    
    49   29   28 1    
    50   53   28 1    
    51   54   28 1    
    52   30   29 1    
    53   55   29 1    
    54   56   29 1    
    55   31   30 1    
    56   34   30 1    
    57   57   30 1    
    58   33   31 1    
    59   58   31 1    
    60   59   31 1    
    61   60   32 1    
    62   61   33 1    
    63   62   33 1    
    64   35   34 ar   
    65   36   34 ar   
    66   63   35 1    
    67   64   35 1    
    68   65   36 1    
    69   66   36 1    
@<TRIPOS>SUBSTRUCTURE
     1 IH1370      1 GROUP   
@<TRIPOS>SET

