#    Name: 3duy_AFJ_3_INTS_M
#    Modification time : Tue Mar 25 00:24:10 2014

@<TRIPOS>MOLECULE
3duy_AFJ_3_INTS_M
  101     0     9     0     0
SMALL
NO_CHARGES


@<TRIPOS>ATOM
      1 CA         10.4685  -36.5390   48.3860 C.3       3 GLC5        0.0000 
      2 CA          9.8900  -36.4990   50.4600 C.3       9 GLL5        0.0000 
      3 CA         11.0470  -36.5790   46.3120 C.3       6 GLP5        0.0000 
      4 CA         11.2855  -38.9405   51.4520 C.3       3 GLC5        0.0000 
      5 CA          9.7540  -38.0040   50.8020 C.3       9 GLL5        0.0000 
      6 CA         12.8170  -39.8770   52.1020 C.3       6 GLP5        0.0000 
      7 CA          9.5020  -37.9095   52.7210 C.3       3 GLC5        0.0000 
      8 CA          9.2500  -37.8150   54.6400 C.3       6 GLP5        0.0000 
      9 CA          9.2020  -38.5075   47.5095 C.3       3 GLC5        0.0000 
     10 CA          9.0880  -38.8450   49.6660 C.3       9 GLL5        0.0000 
     11 CA          9.3160  -38.1700   45.3530 C.3       6 GLP5        0.0000 
     12 N           7.7980  -36.5760   46.6580 N.am      2 SEC2        0.0000 
     13 N           7.6300  -37.0080   48.0360 N.am      8 SEL2        0.0000 
     14 N           7.9660  -36.1440   45.2800 N.am      5 SEP2        0.0000 
     15 CA          3.3435  -40.0160   44.6830 C.3       3 GLC5        0.0000 
     16 CA          4.5690  -39.9880   45.9770 C.3       9 GLL5        0.0000 
     17 CA          2.1180  -40.0440   43.3890 C.3       6 GLP5        0.0000 
     18 CA          3.7390  -41.6270   45.2300 C.3       3 GLC5        0.0000 
     19 CA          2.9090  -43.2660   44.4830 C.3       6 GLP5        0.0000 
     20 CA          6.2920  -40.7290   44.9750 C.3       3 GLC5        0.0000 
     21 CA          8.0150  -41.4700   43.9730 C.3       6 GLP5        0.0000 
     22 CA          1.9000  -40.4765   49.4060 C.3       3 GLC5        0.0000 
     23 CA          3.5440  -40.2830   48.2550 C.3       9 GLL5        0.0000 
     24 CA          0.2560  -40.6700   50.5570 C.3       6 GLP5        0.0000 
     25 CA          2.3305  -41.9365   48.1910 C.3       3 GLC5        0.0000 
     26 CA          1.1170  -43.5900   48.1270 C.3       6 GLP5        0.0000 
     27 N          10.0465  -40.6655   52.3340 N.am      2 SEC2        0.0000 
     28 N           9.7660  -40.7740   50.8810 N.am      8 SEL2        0.0000 
     29 N          10.3270  -40.5570   53.7870 N.am      5 SEP2        0.0000 
     30 O           8.4545  -40.7395   47.4100 O.2       1 ALC1        0.0000 
     31 O           9.0890  -41.1150   48.7260 O.2       7 ALL1        0.0000 
     32 O           7.8200  -40.3640   46.0940 O.2       4 ALP1        0.0000 
     33 CA          9.8465  -43.4660   50.4485 C.3       3 GLC5        0.0000 
     34 CA          9.2880  -42.5750   48.7190 C.3       9 GLL5        0.0000 
     35 CA         10.4050  -44.3570   52.1780 C.3       6 GLP5        0.0000 
     36 CA         10.4480  -44.5350   49.1190 C.3       3 GLC5        0.0000 
     37 CA         10.5480  -42.9370   47.8650 C.3       9 GLL5        0.0000 
     38 CA         10.3480  -46.1330   50.3730 C.3       6 GLP5        0.0000 
     39 N           9.7760  -43.4650   45.5720 N.am      2 SEC2        0.0000 
     40 N          10.3010  -42.7610   46.4600 N.am      8 SEL2        0.0000 
     41 N           9.2510  -44.1690   44.6840 N.am      5 SEP2        0.0000 
     42 O          11.1735  -41.9970   45.9045 O.2       1 ALC1        0.0000 
     43 O          10.3010  -42.7610   46.4600 O.2       7 ALL1        0.0000 
     44 O          12.0460  -41.2330   45.3490 O.2       4 ALP1        0.0000 
     45 CA         13.2965  -43.9420   46.0400 C.3       3 GLC5        0.0000 
     46 CA         13.1840  -43.0840   48.0540 C.3       9 GLL5        0.0000 
     47 CA         13.4090  -44.8000   44.0260 C.3       6 GLP5        0.0000 
     48 CA         15.9605  -43.6140   47.3600 C.3       3 GLC5        0.0000 
     49 CA         14.3860  -42.1200   47.8980 C.3       9 GLL5        0.0000 
     50 CA         17.5350  -45.1080   46.8220 C.3       6 GLP5        0.0000 
     51 CA         15.6745  -41.7245   46.4475 C.3       3 GLC5        0.0000 
     52 CA         16.9630  -41.3290   44.9970 C.3       6 GLP5        0.0000 
     53 N          12.8840  -42.9660   51.5645 N.am      2 SEC2        0.0000 
     54 N          13.3630  -43.7140   50.3370 N.am      8 SEL2        0.0000 
     55 N          12.4050  -42.2180   52.7920 N.am      5 SEP2        0.0000 
     56 O          14.0735  -45.5615   47.4335 O.2       1 ALC1        0.0000 
     57 O          13.9460  -45.2870   48.8160 O.2       7 ALL1        0.0000 
     58 O          14.2010  -45.8360   46.0510 O.2       4 ALP1        0.0000 
     59 CA         12.3290  -46.2215   50.0860 C.3       3 GLC5        0.0000 
     60 CA         14.3100  -46.3100   49.7990 C.3       9 GLL5        0.0000 
     61 CA         16.1400  -48.1170   47.4410 C.3       3 GLC5        0.0000 
     62 CA         15.0280  -47.5200   49.1490 C.3       9 GLL5        0.0000 
     63 CA         17.2520  -48.7140   45.7330 C.3       6 GLP5        0.0000 
     64 CA         16.2815  -46.3140   47.9855 C.3       3 GLC5        0.0000 
     65 CA         17.1270  -49.3360   48.7380 C.3       3 GLC5        0.0000 
     66 CA         15.8010  -48.3450   50.2120 C.3       9 GLL5        0.0000 
     67 CA         18.4530  -50.3270   47.2640 C.3       6 GLP5        0.0000 
     68 CA         13.0125  -49.6315   51.5360 C.3       3 GLC5        0.0000 
     69 CA         14.8320  -49.2180   51.0390 C.3       9 GLL5        0.0000 
     70 CA         11.1930  -50.0450   52.0330 C.3       6 GLP5        0.0000 
     71 CA         14.1645  -49.2790   53.1710 C.3       3 GLC5        0.0000 
     72 CA         13.4970  -49.3400   55.3030 C.3       6 GLP5        0.0000 
     73 CA         14.8235  -51.1550   51.8240 C.3       3 GLC5        0.0000 
     74 CA         14.8150  -53.0920   52.6090 C.3       6 GLP5        0.0000 
     75 CA          9.1600  -44.7225   49.3460 C.3       3 GLC5        0.0000 
     76 CA          7.9720  -43.3120   48.3190 C.3       9 GLL5        0.0000 
     77 CA          7.3820  -45.3105   47.6910 C.3       3 GLC5        0.0000 
     78 CA          6.7920  -47.3090   47.0630 C.3       6 GLP5        0.0000 
     79 CA          8.3810  -44.6415   51.1310 C.3       3 GLC5        0.0000 
     80 CA          6.8860  -43.6340   50.6690 C.3       9 GLL5        0.0000 
     81 CA          9.8760  -45.6490   51.5930 C.3       6 GLP5        0.0000 
     82 CA          5.8420  -45.0375   51.4115 C.3       3 GLC5        0.0000 
     83 CA          4.7980  -46.4410   52.1540 C.3       6 GLP5        0.0000 
     84 CA          5.1590  -44.1295   46.7590 C.3       3 GLC5        0.0000 
     85 CA          5.4420  -43.5440   48.5740 C.3       9 GLL5        0.0000 
     86 CA          4.8760  -44.7150   44.9440 C.3       6 GLP5        0.0000 
     87 CA          5.2205  -45.2890   49.7450 C.3       3 GLC5        0.0000 
     88 CA          4.9990  -47.0340   50.9160 C.3       6 GLP5        0.0000 
     89 CA          3.4575  -44.1070   48.7335 C.3       3 GLC5        0.0000 
     90 CA          1.4730  -44.6700   48.8930 C.3       6 GLP5        0.0000 
     91 CA          6.1170  -45.4265   47.8185 C.3       3 GLC5        0.0000 
     92 CA         11.7525  -34.4505   50.1235 C.3       3 GLC5        0.0000 
     93 CA         10.1300  -33.9530   51.5310 C.3       9 GLL5        0.0000 
     94 CA         13.3750  -34.9480   48.7160 C.3       6 GLP5        0.0000 
     95 CA         11.7123  -37.2710   51.8777 C.3       3 GLC5        0.0000 
     96 CA         10.7710  -35.6370   51.8030 C.3       9 GLL5        0.0000 
     97 CA         13.0940  -38.4740   52.6240 C.3       6 GLP5        0.0000 
     98 CA          9.7903  -36.9415   52.8858 C.3       3 GLC5        0.0000 
     99 CA         11.8528  -35.5080   49.9237 C.3       3 GLC5        0.0000 
    100 CA         13.3130  -47.5625   48.0945 C.3       3 GLC5        0.0000 
    101 CA         11.9570  -48.2100   46.7150 C.3       6 GLP5        0.0000 
@<TRIPOS>BOND
@<TRIPOS>SUBSTRUCTURE
     1 ALC1       30 GROUP        1 X    ALC  0     ROOT ALC X 1
     2 SEC2       12 GROUP        1 X    SEC  0     **** SEC X 2
     3 GLC5        1 GROUP        1 X    GLC  0     **** GLC X 6
     4 ALP1       32 GROUP        1 Y    ALP  0     ROOT ALP Y 8
     5 SEP2       14 GROUP        1 Y    SEP  0     **** SEP Y 9
     6 GLP5        3 GROUP        1 Y    GLP  0     **** GLP Y 13
     7 ALL1       31 GROUP        1 Z    ALL  0     ROOT ALL Z 15
     8 SEL2       13 GROUP        1 Z    SEL  0     **** SEL Z 16
     9 GLL5        2 GROUP        1 Z    GLL  0     **** GLL Z 20
@<TRIPOS>SET

