#    Name: 3duy_AFJ_3_ligand
#    Modification time : Tue Mar 25 00:24:10 2014

@<TRIPOS>MOLECULE
3duy_AFJ_3_ligand
   82    81     1     0     0
SMALL
NO_CHARGES


@<TRIPOS>ATOM
      1 S1         10.7710  -35.6370   51.8030 S.3       1 AFJ501      0.0000 
      2 C2          9.8900  -36.4990   50.4600 C.3       1 AFJ501      0.0000 
      3 C5          9.7540  -38.0040   50.8020 C.3       1 AFJ501      0.0000 
      4 C8          9.0880  -38.8450   49.6660 C.3       1 AFJ501      0.0000 
      5 N10         7.6360  -38.6280   49.6480 N.am      1 AFJ501      0.0000 
      6 C12         7.0270  -37.7200   48.8360 C.2       1 AFJ501      0.0000 
      7 O13         7.6300  -37.0080   48.0360 O.2       1 AFJ501      0.0000 
      8 C14         5.5230  -37.6130   48.9630 C.3       1 AFJ501      0.0000 
      9 C17         4.7560  -38.1070   47.7020 C.3       1 AFJ501      0.0000 
     10 C20         4.7330  -39.6530   47.4820 C.3       1 AFJ501      0.0000 
     11 C22         4.5690  -39.9880   45.9770 C.3       1 AFJ501      0.0000 
     12 C26         3.5440  -40.2830   48.2550 C.3       1 AFJ501      0.0000 
     13 C30         9.3450  -40.3320   49.8130 C.2       1 AFJ501      0.0000 
     14 O31         9.7660  -40.7740   50.8810 O.2       1 AFJ501      0.0000 
     15 N32         9.0890  -41.1150   48.7260 N.am      1 AFJ501      0.0000 
     16 C34         9.2880  -42.5750   48.7190 C.3       1 AFJ501      0.0000 
     17 C36        10.5480  -42.9370   47.8650 C.3       1 AFJ501      0.0000 
     18 O38        10.3010  -42.7610   46.4600 O.3       1 AFJ501      0.0000 
     19 C40        11.8860  -42.2660   48.3110 C.3       1 AFJ501      0.0000 
     20 C43        13.1840  -43.0840   48.0540 C.3       1 AFJ501      0.0000 
     21 C45        14.3860  -42.1200   47.8980 C.3       1 AFJ501      0.0000 
     22 C49        13.5060  -44.0600   49.1750 C.2       1 AFJ501      0.0000 
     23 O50        13.3630  -43.7140   50.3370 O.2       1 AFJ501      0.0000 
     24 N51        13.9460  -45.2870   48.8160 N.am      1 AFJ501      0.0000 
     25 C53        14.3100  -46.3100   49.7990 C.3       1 AFJ501      0.0000 
     26 C56        15.0280  -47.5200   49.1490 C.3       1 AFJ501      0.0000 
     27 C59        15.8010  -48.3450   50.2120 C.3       1 AFJ501      0.0000 
     28 C62        14.8320  -49.2180   51.0390 C.3       1 AFJ501      0.0000 
     29 C66         7.9720  -43.3120   48.3190 C.3       1 AFJ501      0.0000 
     30 C69         6.7450  -43.0180   49.2430 C.3       1 AFJ501      0.0000 
     31 C71         6.8860  -43.6340   50.6690 C.3       1 AFJ501      0.0000 
     32 C75         5.4420  -43.5440   48.5740 C.3       1 AFJ501      0.0000 
     33 C79        10.1300  -33.9530   51.5310 C.3       1 AFJ501      0.0000 
     34 H          10.5086  -36.3139   49.6236 H         1 AFJ501      0.0000 
     35 H           8.9639  -35.9911   50.4297 H         1 AFJ501      0.0000 
     36 H           9.1533  -38.1105   51.7108 H         1 AFJ501      0.0000 
     37 H          10.7483  -38.4158   51.0017 H         1 AFJ501      0.0000 
     38 H           9.5124  -38.5149   48.7209 H         1 AFJ501      0.0000 
     39 H           7.0813  -39.2201   50.3057 H         1 AFJ501      0.0000 
     40 H           5.2388  -36.5673   49.1468 H         1 AFJ501      0.0000 
     41 H           5.1796  -38.2037   49.8239 H         1 AFJ501      0.0000 
     42 H           5.2043  -37.6352   46.8102 H         1 AFJ501      0.0000 
     43 H           3.7135  -37.7483   47.7613 H         1 AFJ501      0.0000 
     44 H           5.6404  -40.0739   47.8380 H         1 AFJ501      0.0000 
     45 H           8.7342  -40.7036   47.8358 H         1 AFJ501      0.0000 
     46 H           9.5212  -42.8871   49.7644 H         1 AFJ501      0.0000 
     47 H          10.7067  -44.0526   48.0420 H         1 AFJ501      0.0000 
     48 H          11.8192  -42.0424   49.3920 H         1 AFJ501      0.0000 
     49 H          11.9756  -41.2923   47.7943 H         1 AFJ501      0.0000 
     50 H          13.0768  -43.6239   47.1284 H         1 AFJ501      0.0000 
     51 H          14.0461  -45.5606   47.8166 H         1 AFJ501      0.0000 
     52 H          13.4184  -46.6924   50.3175 H         1 AFJ501      0.0000 
     53 H          14.9825  -45.8975   50.5655 H         1 AFJ501      0.0000 
     54 H          15.7284  -47.1587   48.4040 H         1 AFJ501      0.0000 
     55 H          14.2901  -48.1577   48.6747 H         1 AFJ501      0.0000 
     56 H          16.3231  -47.6643   50.8748 H         1 AFJ501      0.0000 
     57 H          16.5174  -48.9844   49.7089 H         1 AFJ501      0.0000 
     58 H           8.1606  -44.3950   48.3237 H         1 AFJ501      0.0000 
     59 H           7.7095  -43.0284   47.2898 H         1 AFJ501      0.0000 
     60 H           6.6467  -41.9423   49.3449 H         1 AFJ501      0.0000 
     61 H           5.3164  -39.6121   45.4293 H         1 AFJ501      0.0000 
     62 H           4.5548  -40.9748   45.8156 H         1 AFJ501      0.0000 
     63 H           3.7179  -39.6178   45.6047 H         1 AFJ501      0.0000 
     64 H           3.5027  -41.2742   48.1293 H         1 AFJ501      0.0000 
     65 H           3.6096  -40.1148   49.2386 H         1 AFJ501      0.0000 
     66 H           2.6660  -39.9123   47.9522 H         1 AFJ501      0.0000 
     67 H          15.2386  -42.6140   47.7278 H         1 AFJ501      0.0000 
     68 H          14.2572  -41.4862   47.1353 H         1 AFJ501      0.0000 
     69 H          14.5269  -41.5663   48.7187 H         1 AFJ501      0.0000 
     70 H          15.3149  -49.7582   51.7282 H         1 AFJ501      0.0000 
     71 H          14.1541  -48.6644   51.5227 H         1 AFJ501      0.0000 
     72 H          14.3279  -49.8613   50.4628 H         1 AFJ501      0.0000 
     73 H           6.9750  -44.6295   50.6364 H         1 AFJ501      0.0000 
     74 H           7.6912  -43.2832   51.1471 H         1 AFJ501      0.0000 
     75 H           6.0925  -43.4293   51.2421 H         1 AFJ501      0.0000 
     76 H           5.2762  -43.1075   47.6897 H         1 AFJ501      0.0000 
     77 H           5.4798  -44.5300   48.4117 H         1 AFJ501      0.0000 
     78 H           4.6371  -43.3711   49.1417 H         1 AFJ501      0.0000 
     79 H          10.3617  -33.3408   52.2870 H         1 AFJ501      0.0000 
     80 H          10.5024  -33.5439   50.6979 H         1 AFJ501      0.0000 
     81 H           9.1340  -33.9446   51.4417 H         1 AFJ501      0.0000 
     82 H          10.6929  -41.8681   46.2383 H         1 AFJ501      0.0000 
@<TRIPOS>BOND
     1    2    1 1    
     2   33    1 1    
     3    3    2 1    
     4   34    2 1    
     5   35    2 1    
     6    4    3 1    
     7   36    3 1    
     8   37    3 1    
     9    5    4 1    
    10   13    4 1    
    11   38    4 1    
    12    6    5 am   
    13   39    5 1    
    14    7    6 2    
    15    8    6 1    
    16    9    8 1    
    17   40    8 1    
    18   41    8 1    
    19   10    9 1    
    20   42    9 1    
    21   43    9 1    
    22   11   10 1    
    23   12   10 1    
    24   44   10 1    
    25   61   11 1    
    26   62   11 1    
    27   63   11 1    
    28   64   12 1    
    29   65   12 1    
    30   66   12 1    
    31   14   13 2    
    32   15   13 am   
    33   16   15 1    
    34   45   15 1    
    35   17   16 1    
    36   29   16 1    
    37   46   16 1    
    38   18   17 1    
    39   19   17 1    
    40   47   17 1    
    41   82   18 1    
    42   20   19 1    
    43   48   19 1    
    44   49   19 1    
    45   21   20 1    
    46   22   20 1    
    47   50   20 1    
    48   67   21 1    
    49   68   21 1    
    50   69   21 1    
    51   23   22 2    
    52   24   22 am   
    53   25   24 1    
    54   51   24 1    
    55   26   25 1    
    56   52   25 1    
    57   53   25 1    
    58   27   26 1    
    59   54   26 1    
    60   55   26 1    
    61   28   27 1    
    62   56   27 1    
    63   57   27 1    
    64   70   28 1    
    65   71   28 1    
    66   72   28 1    
    67   30   29 1    
    68   58   29 1    
    69   59   29 1    
    70   31   30 1    
    71   32   30 1    
    72   60   30 1    
    73   73   31 1    
    74   74   31 1    
    75   75   31 1    
    76   76   32 1    
    77   77   32 1    
    78   78   32 1    
    79   79   33 1    
    80   80   33 1    
    81   81   33 1    
@<TRIPOS>SUBSTRUCTURE
     1 AFJ501      1 GROUP   
@<TRIPOS>SET

