#    Name: 3oes_GNP_1_INTS_M
#    Modification time : Tue Mar 25 04:27:59 2014

@<TRIPOS>MOLECULE
3oes_GNP_1_INTS_M
   72     0    15     0     0
SMALL
NO_CHARGES


@<TRIPOS>ATOM
      1 N         -19.2110   24.3780    8.6600 N.am      2 SEC2        0.0000 
      2 N         -19.3330   23.4620    7.7710 N.am     12 SEL2        0.0000 
      3 N         -19.0890   25.2940    9.5490 N.am      7 SEP2        0.0000 
      4 Zn        -21.4770   22.4995    5.1860 Zn        4 ZIC7        0.0000 
      5 Zn        -20.8860   22.4680    5.9840 Zn       14 ZIL7        0.0000 
      6 Zn        -22.0680   22.5310    4.3880 Zn        9 ZIP7        0.0000 
      7 N         -21.8515   22.0345    7.1370 N.am      2 SEC2        0.0000 
      8 N         -20.8860   22.4680    5.9840 N.am     12 SEL2        0.0000 
      9 N         -22.8170   21.6010    8.2900 N.am      7 SEP2        0.0000 
     10 NZ        -17.7820   21.8700    4.7565 N.4       3 LYC4        0.0000 
     11 NZ        -18.3910   22.1430    5.8830 N.4      13 LYL4        0.0000 
     12 NZ        -17.1730   21.5970    3.6300 N.4       8 LYP4        0.0000 
     13 N         -17.7820   21.8700    4.7565 N.am      2 SEC2        0.0000 
     14 N         -18.3910   22.1430    5.8830 N.am     12 SEL2        0.0000 
     15 N         -17.1730   21.5970    3.6300 N.am      7 SEP2        0.0000 
     16 NZ        -17.8225   22.8045    3.3775 N.4       3 LYC4        0.0000 
     17 NZ        -18.4720   24.0120    3.1250 N.4      13 LYL4        0.0000 
     18 N         -18.1210   25.2735    2.1545 N.am      2 SEC2        0.0000 
     19 N         -18.4720   24.0120    3.1250 N.am     12 SEL2        0.0000 
     20 N         -17.7700   26.5350    1.1840 N.am      7 SEP2        0.0000 
     21 N         -19.0075   24.2835    1.6990 N.am      2 SEC2        0.0000 
     22 N         -19.5430   24.5550    0.2730 N.am      7 SEP2        0.0000 
     23 N         -17.8225   22.8045    3.3775 N.am      2 SEC2        0.0000 
     24 Zn        -21.5135   23.3345    3.9760 Zn        4 ZIC7        0.0000 
     25 Zn        -20.9590   24.1380    3.5640 Zn       14 ZIL7        0.0000 
     26 N         -21.6200   23.9475    2.2110 N.am      2 SEC2        0.0000 
     27 N         -20.9590   24.1380    3.5640 N.am     12 SEL2        0.0000 
     28 N         -22.2810   23.7570    0.8580 N.am      7 SEP2        0.0000 
     29 N         -18.6810   26.3525    2.3755 N.am      2 SEC2        0.0000 
     30 N         -19.5920   26.1700    3.5670 N.am     12 SEL2        0.0000 
     31 N         -22.5605   26.6360    1.3585 N.am      2 SEC2        0.0000 
     32 N         -21.6880   26.9870    2.4650 N.am     12 SEL2        0.0000 
     33 N         -23.4330   26.2850    0.2520 N.am      7 SEP2        0.0000 
     34 N         -22.3210   27.9445    1.8160 N.am      2 SEC2        0.0000 
     35 N         -22.9540   28.9020    1.1670 N.am      7 SEP2        0.0000 
     36 CA        -17.9265   27.8530    4.8900 C.3       5 GLC5        0.0000 
     37 CA        -19.3750   29.1000    4.4450 C.3      15 GLL5        0.0000 
     38 CA        -16.4780   26.6060    5.3350 C.3      10 GLP5        0.0000 
     39 CA        -20.2950   28.4855    6.2905 C.3       5 GLC5        0.0000 
     40 CA        -21.2150   27.8710    8.1360 C.3      10 GLP5        0.0000 
     41 N         -17.3530   31.0850    3.1630 N.am      2 SEC2        0.0000 
     42 N         -19.0020   31.2130    3.4370 N.am     12 SEL2        0.0000 
     43 N         -15.7040   30.9570    2.8890 N.am      7 SEP2        0.0000 
     44 CA        -22.1695   32.1910    1.4625 C.3       5 GLC5        0.0000 
     45 CA        -21.3560   31.4960    3.2840 C.3      15 GLL5        0.0000 
     46 CA        -22.9830   32.8860   -0.3590 C.3      10 GLP5        0.0000 
     47 O         -23.5960   32.7020    3.0495 O.2       1 ALC1        0.0000 
     48 O         -22.2190   32.6090    3.2970 O.2      11 ALL1        0.0000 
     49 O         -24.9730   32.7950    2.8020 O.2       6 ALP1        0.0000 
     50 CA        -21.4045   32.9850    1.4740 C.3       5 GLC5        0.0000 
     51 CA        -20.0080   31.8690    2.6900 C.3      15 GLL5        0.0000 
     52 CA        -22.8010   34.1010    0.2580 C.3      10 GLP5        0.0000 
     53 N         -18.6560   29.5205   -1.5415 N.am      2 SEC2        0.0000 
     54 N         -19.5550   30.3330   -0.5920 N.am     12 SEL2        0.0000 
     55 N         -17.7570   28.7080   -2.4910 N.am      7 SEP2        0.0000 
     56 CA        -17.3615   31.4255   -0.9120 C.3       5 GLC5        0.0000 
     57 CA        -19.1760   31.6530   -0.8250 C.3      15 GLL5        0.0000 
     58 CA        -15.5470   31.1980   -0.9990 C.3      10 GLP5        0.0000 
     59 CA        -20.5950   30.8045   -2.0675 C.3       5 GLC5        0.0000 
     60 CA        -22.0140   29.9560   -3.3100 C.3      10 GLP5        0.0000 
     61 N         -19.5980   31.3700   -4.0655 N.am      2 SEC2        0.0000 
     62 N         -18.5730   31.6670   -3.1120 N.am     12 SEL2        0.0000 
     63 N         -20.6230   31.0730   -5.0190 N.am      7 SEP2        0.0000 
     64 O         -17.9010   34.2955   -2.9415 O.2       1 ALC1        0.0000 
     65 O         -18.4580   33.6190   -1.8620 O.2      11 ALL1        0.0000 
     66 O         -17.3440   34.9720   -4.0210 O.2       6 ALP1        0.0000 
     67 O         -18.0675   36.2690   -1.8965 O.2       1 ALC1        0.0000 
     68 O         -18.3370   35.6250   -0.6680 O.2      11 ALL1        0.0000 
     69 O         -17.7980   36.9130   -3.1250 O.2       6 ALP1        0.0000 
     70 CA        -17.2885   31.9990    0.4125 C.3       5 GLC5        0.0000 
     71 CA        -19.2880   32.4140    0.3140 C.3      15 GLL5        0.0000 
     72 CA        -15.2890   31.5840    0.5110 C.3      10 GLP5        0.0000 
@<TRIPOS>BOND
@<TRIPOS>SUBSTRUCTURE
     1 ALC1       47 GROUP        1 X    ALC  0     ROOT ALC X 1
     2 SEC2        1 GROUP        1 X    SEC  0     **** SEC X 2
     3 LYC4       10 GROUP        1 X    LYC  0     **** LYC X 4
     4 ZIC7        4 GROUP        1 X    ZIC  0     **** ZIC X 5
     5 GLC5       36 GROUP        1 X    GLC  0     **** GLC X 6
     6 ALP1       49 GROUP        1 Y    ALP  0     ROOT ALP Y 8
     7 SEP2        3 GROUP        1 Y    SEP  0     **** SEP Y 9
     8 LYP4       12 GROUP        1 Y    LYP  0     **** LYP Y 11
     9 ZIP7        6 GROUP        1 Y    ZIP  0     **** ZIP Y 12
    10 GLP5       38 GROUP        1 Y    GLP  0     **** GLP Y 13
    11 ALL1       48 GROUP        1 Z    ALL  0     ROOT ALL Z 15
    12 SEL2        2 GROUP        1 Z    SEL  0     **** SEL Z 16
    13 LYL4       11 GROUP        1 Z    LYL  0     **** LYL Z 18
    14 ZIL7        5 GROUP        1 Z    ZIL  0     **** ZIL Z 19
    15 GLL5       37 GROUP        1 Z    GLL  0     **** GLL Z 20
@<TRIPOS>SET

