#    Name: 3oes_GNP_1_ligand
#    Modification time : Tue Mar 25 04:27:59 2014

@<TRIPOS>MOLECULE
3oes_GNP_1_ligand
   44    46     1     0     0
SMALL
NO_CHARGES


@<TRIPOS>ATOM
      1 PG        -19.5370   23.0410    6.3090 P.3       1 GNP201      0.0000 
      2 O1G       -19.3330   23.4620    7.7710 O.co2     1 GNP201      0.0000 
      3 O2G       -20.8860   22.4680    5.9840 O.co2     1 GNP201      0.0000 
      4 O3G       -18.3910   22.1430    5.8830 O.co2     1 GNP201      0.0000 
      5 N3B       -19.3970   24.4490    5.4740 N.4       1 GNP201      0.0000 
      6 PB        -19.6050   24.6270    3.8920 P.3       1 GNP201      0.0000 
      7 O1B       -18.4720   24.0120    3.1250 O.co2     1 GNP201      0.0000 
      8 O2B       -20.9590   24.1380    3.5640 O.co2     1 GNP201      0.0000 
      9 O3A       -19.5920   26.1700    3.5670 O.3       1 GNP201      0.0000 
     10 PA        -20.8350   27.0850    3.6570 P.3       1 GNP201      0.0000 
     11 O1A       -21.6880   26.9870    2.4650 O.co2     1 GNP201      0.0000 
     12 O2A       -21.6010   26.9510    4.9180 O.co2     1 GNP201      0.0000 
     13 O5'       -20.3480   28.6120    3.5520 O.3       1 GNP201      0.0000 
     14 C5'       -19.3750   29.1000    4.4450 C.3       1 GNP201      0.0000 
     15 C4'       -19.5500   30.5860    4.6150 C.3       1 GNP201      0.0000 
     16 O4'       -19.0020   31.2130    3.4370 O.3       1 GNP201      0.0000 
     17 C3'       -21.0050   31.0170    4.7030 C.3       1 GNP201      0.0000 
     18 O3'       -21.1740   32.0280    5.7000 O.3       1 GNP201      0.0000 
     19 C2'       -21.3560   31.4960    3.2840 C.3       1 GNP201      0.0000 
     20 O2'       -22.2190   32.6090    3.2970 O.3       1 GNP201      0.0000 
     21 C1'       -20.0080   31.8690    2.6900 C.3       1 GNP201      0.0000 
     22 N9        -19.7450   31.5440    1.2810 N.pl3     1 GNP201      0.0000 
     23 C8        -19.8640   30.3220    0.6590 C.2       1 GNP201      0.0000 
     24 N7        -19.5550   30.3330   -0.5920 N.2       1 GNP201      0.0000 
     25 C5        -19.1760   31.6530   -0.8250 C.2       1 GNP201      0.0000 
     26 C6        -18.7390   32.2540   -2.0200 C.2       1 GNP201      0.0000 
     27 O6        -18.5730   31.6670   -3.1120 O.2       1 GNP201      0.0000 
     28 N1        -18.4580   33.6190   -1.8620 N.am      1 GNP201      0.0000 
     29 C2        -18.6180   34.3060   -0.6680 C.2       1 GNP201      0.0000 
     30 N2        -18.3370   35.6250   -0.6680 N.pl3     1 GNP201      0.0000 
     31 N3        -19.0580   33.7550    0.4680 N.2       1 GNP201      0.0000 
     32 C4        -19.2880   32.4140    0.3140 C.2       1 GNP201      0.0000 
     33 H         -18.3538   28.9180    4.0798 H         1 GNP201      0.0000 
     34 H         -19.4565   28.6328    5.4372 H         1 GNP201      0.0000 
     35 H         -19.0284   30.9174    5.4846 H         1 GNP201      0.0000 
     36 H         -21.5901   30.1345    4.9002 H         1 GNP201      0.0000 
     37 H         -21.7316   30.6581    2.7431 H         1 GNP201      0.0000 
     38 H         -19.8707   32.9595    2.8321 H         1 GNP201      0.0000 
     39 H         -20.1713   29.5120    1.1789 H         1 GNP201      0.0000 
     40 H         -18.1053   34.1473   -2.7028 H         1 GNP201      0.0000 
     41 H         -18.4907   36.1076    0.1942 H         1 GNP201      0.0000 
     42 H         -17.9999   36.0031   -1.5302 H         1 GNP201      0.0000 
     43 H         -21.4766   32.8383    5.1981 H         1 GNP201      0.0000 
     44 H         -23.1237   32.2373    3.0890 H         1 GNP201      0.0000 
@<TRIPOS>BOND
     1    2    1 ar   
     2    3    1 ar   
     3    4    1 ar   
     4    5    1 1    
     5    6    5 1    
     6    7    6 ar   
     7    8    6 ar   
     8    9    6 1    
     9   10    9 1    
    10   11   10 ar   
    11   12   10 ar   
    12   13   10 1    
    13   14   13 1    
    14   15   14 1    
    15   33   14 1    
    16   34   14 1    
    17   16   15 1    
    18   17   15 1    
    19   35   15 1    
    20   21   16 1    
    21   18   17 1    
    22   19   17 1    
    23   36   17 1    
    24   43   18 1    
    25   20   19 1    
    26   21   19 1    
    27   37   19 1    
    28   44   20 1    
    29   22   21 1    
    30   38   21 1    
    31   23   22 1    
    32   32   22 1    
    33   24   23 2    
    34   39   23 1    
    35   25   24 1    
    36   26   25 1    
    37   32   25 2    
    38   27   26 2    
    39   28   26 am   
    40   29   28 1    
    41   40   28 1    
    42   30   29 1    
    43   31   29 2    
    44   41   30 1    
    45   42   30 1    
    46   32   31 1    
@<TRIPOS>SUBSTRUCTURE
     1 GNP201      1 GROUP   
@<TRIPOS>SET

