#    Name: 3ox2_79X_2_INTS_M
#    Modification time : Tue Mar 25 05:33:03 2014

@<TRIPOS>MOLECULE
3ox2_79X_2_INTS_M
   32     0     3     0     0
SMALL
NO_CHARGES


@<TRIPOS>ATOM
      1 CA         -2.5460   -3.3815  -14.1725 C.3       1 GLC5        0.0000 
      2 CA         -2.6300   -2.8800  -16.3120 C.3       3 GLL5        0.0000 
      3 CA         -2.4620   -3.8830  -12.0330 C.3       2 GLP5        0.0000 
      4 CA         -2.4995    1.0630  -15.3590 C.3       1 GLC5        0.0000 
      5 CA         -2.3820   -0.5190  -16.3310 C.3       3 GLL5        0.0000 
      6 CA         -2.6170    2.6450  -14.3870 C.3       2 GLP5        0.0000 
      7 CA         -3.0135   -6.6250  -14.2325 C.3       1 GLC5        0.0000 
      8 CA         -4.6080   -7.4620  -15.2280 C.3       3 GLL5        0.0000 
      9 CA         -1.4190   -5.7880  -13.2370 C.3       2 GLP5        0.0000 
     10 CA         -0.0995   -8.5210  -18.5700 C.3       1 GLC5        0.0000 
     11 CA         -1.4060  -10.0680  -17.8640 C.3       3 GLL5        0.0000 
     12 CA          1.2070   -6.9740  -19.2760 C.3       2 GLP5        0.0000 
     13 CA         -0.9690  -11.3155  -16.7270 C.3       1 GLC5        0.0000 
     14 CA         -0.5320  -12.5630  -15.5900 C.3       2 GLP5        0.0000 
     15 CA         -0.1110  -11.2850  -18.6830 C.3       1 GLC5        0.0000 
     16 CA          1.1840  -12.5020  -19.5020 C.3       2 GLP5        0.0000 
     17 CA         -2.6490  -10.0320  -19.0595 C.3       1 GLC5        0.0000 
     18 CA         -3.8920   -9.9960  -20.2550 C.3       2 GLP5        0.0000 
     19 CA         -6.4340   -9.6570  -13.0650 C.3       1 GLC5        0.0000 
     20 CA         -6.0940   -9.8330  -14.9450 C.3       3 GLL5        0.0000 
     21 CA         -6.7740   -9.4810  -11.1850 C.3       2 GLP5        0.0000 
     22 CA         -7.6725  -10.5590  -14.2645 C.3       1 GLC5        0.0000 
     23 CA         -9.2510  -11.2850  -13.5840 C.3       2 GLP5        0.0000 
     24 CA          0.4910   -1.7968  -16.6998 C.3       1 GLC5        0.0000 
     25 CA         -1.5700   -3.0070  -17.2180 C.3       3 GLL5        0.0000 
     26 CA          2.2030   -1.1510  -15.9630 C.3       2 GLP5        0.0000 
     27 CA         -0.9223   -0.3969  -15.3225 C.3       1 GLC5        0.0000 
     28 CA          0.1670    0.0530  -13.9910 C.3       2 GLP5        0.0000 
     29 CA         -1.6580   -5.2622  -15.1720 C.3       1 GLC5        0.0000 
     30 CA         -1.4120   -4.4200  -17.4900 C.3       3 GLL5        0.0000 
     31 CA         -2.1561   -6.3537  -14.8810 C.3       1 GLC5        0.0000 
     32 CA         -2.8700   -6.3220  -16.5040 C.3       3 GLL5        0.0000 
@<TRIPOS>BOND
@<TRIPOS>SUBSTRUCTURE
     1 GLC5        1 GROUP        1 X    GLC  0     ROOT GLC X 6
     2 GLP5        3 GROUP        1 Y    GLP  0     ROOT GLP Y 13
     3 GLL5        2 GROUP        1 Z    GLL  0     ROOT GLL Z 20
@<TRIPOS>SET

