#    Name: 3ox2_79X_2_ligand
#    Modification time : Tue Mar 25 05:33:03 2014

@<TRIPOS>MOLECULE
3ox2_79X_2_ligand
   35    38     1     0     0
SMALL
NO_CHARGES


@<TRIPOS>ATOM
      1 C1         -0.8720   -1.8780  -17.6550 C.ar      1 79X233      0.0000 
      2 N1         -3.2080   -4.1380  -16.1240 N.am      1 79X233      0.0000 
      3 O1         -0.6710    0.5620  -17.5850 O.3       1 79X233      0.0000 
      4 C2         -1.5700   -3.0070  -17.2180 C.ar      1 79X233      0.0000 
      5 O2         -5.0950   -4.4550  -14.5420 O.2       1 79X233      0.0000 
      6 C3         -2.6300   -2.8800  -16.3120 C.ar      1 79X233      0.0000 
      7 O3         -2.5770   -9.9220  -17.0670 O.3       1 79X233      0.0000 
      8 C4         -3.0700   -1.6440  -15.8810 C.ar      1 79X233      0.0000 
      9 O4         -4.7210   -9.8500  -15.3480 O.3       1 79X233      0.0000 
     10 C5         -2.3820   -0.5190  -16.3310 C.ar      1 79X233      0.0000 
     11 C6         -1.2970   -0.6120  -17.2020 C.ar      1 79X233      0.0000 
     12 C7         -1.4120   -4.4200  -17.4900 C.2       1 79X233      0.0000 
     13 C8         -2.3820   -5.0530  -16.7240 C.2       1 79X233      0.0000 
     14 C10        -4.1330   -4.8730  -15.2840 C.2       1 79X233      0.0000 
     15 C11        -3.9530   -6.3060  -15.6220 C.ar      1 79X233      0.0000 
     16 C12        -2.8700   -6.3220  -16.5040 C.ar      1 79X233      0.0000 
     17 C13        -2.3750   -7.5250  -16.9870 C.ar      1 79X233      0.0000 
     18 C14        -3.0110   -8.7060  -16.5920 C.ar      1 79X233      0.0000 
     19 C15        -4.1150   -8.6740  -15.7220 C.ar      1 79X233      0.0000 
     20 C16        -4.6080   -7.4620  -15.2280 C.ar      1 79X233      0.0000 
     21 C21        -1.4060  -10.0680  -17.8640 C.3       1 79X233      0.0000 
     22 C23        -6.0940   -9.8330  -14.9450 C.3       1 79X233      0.0000 
     23 H          -0.0809   -1.9606  -18.2807 H         1 79X233      0.0000 
     24 H          -3.8648   -1.5522  -15.2592 H         1 79X233      0.0000 
     25 H          -2.6879    0.4230  -16.0063 H         1 79X233      0.0000 
     26 H          -0.7885   -4.7863  -18.0574 H         1 79X233      0.0000 
     27 H          -1.5744   -7.5522  -17.6095 H         1 79X233      0.0000 
     28 H          -5.4054   -7.4368  -14.6125 H         1 79X233      0.0000 
     29 H          -0.5875   -9.7547  -17.3824 H         1 79X233      0.0000 
     30 H          -1.2480  -11.0215  -18.1208 H         1 79X233      0.0000 
     31 H          -1.4662   -9.5421  -18.7124 H         1 79X233      0.0000 
     32 H          -6.4190  -10.7451  -14.6950 H         1 79X233      0.0000 
     33 H          -6.2410   -9.2419  -14.1519 H         1 79X233      0.0000 
     34 H          -6.6910   -9.4988  -15.6743 H         1 79X233      0.0000 
     35 H          -1.4102    1.1604  -17.8942 H         1 79X233      0.0000 
@<TRIPOS>BOND
     1    4    1 ar   
     2   11    1 ar   
     3   23    1 1    
     4    6    2 1    
     5   13    2 1    
     6   14    2 am   
     7   11    3 1    
     8   35    3 1    
     9    6    4 ar   
    10   12    4 1    
    11   14    5 2    
    12    8    6 ar   
    13   18    7 1    
    14   21    7 1    
    15   10    8 ar   
    16   24    8 1    
    17   19    9 1    
    18   22    9 1    
    19   11   10 ar   
    20   25   10 1    
    21   13   12 2    
    22   26   12 1    
    23   16   13 1    
    24   15   14 1    
    25   16   15 ar   
    26   20   15 ar   
    27   17   16 ar   
    28   18   17 ar   
    29   27   17 1    
    30   19   18 ar   
    31   20   19 ar   
    32   28   20 1    
    33   29   21 1    
    34   30   21 1    
    35   31   21 1    
    36   32   22 1    
    37   33   22 1    
    38   34   22 1    
@<TRIPOS>SUBSTRUCTURE
     1 79X233      1 GROUP   
@<TRIPOS>SET

