#    Name: 1mg5_NAD_1_INTS_M
#    Modification time : Tue Mar 25 11:50:39 2014

@<TRIPOS>MOLECULE
1mg5_NAD_1_INTS_M
  102     0     9     0     0
SMALL
NO_CHARGES


@<TRIPOS>ATOM
      1 N          -0.9160   -7.0140   34.9735 N.am      2 SEC2        0.0000 
      2 N          -1.2470   -6.6880   33.5930 N.am      8 SEL2        0.0000 
      3 N          -0.5850   -7.3400   36.3540 N.am      5 SEP2        0.0000 
      4 N           2.8655   -1.4520   31.7415 N.am      2 SEC2        0.0000 
      5 N           1.7410   -1.5490   32.9240 N.am      8 SEL2        0.0000 
      6 N           3.9900   -1.3550   30.5590 N.am      5 SEP2        0.0000 
      7 O          -0.1080   -0.2995   35.9585 O.2       1 ALC1        0.0000 
      8 O           0.5380   -1.8330   35.6960 O.2       7 ALL1        0.0000 
      9 O          -0.7540    1.2340   36.2210 O.2       4 ALP1        0.0000 
     10 O           0.1140   -1.0220   36.7455 O.2       1 ALC1        0.0000 
     11 O          -0.3100   -0.2110   37.7950 O.2       4 ALP1        0.0000 
     12 O          -1.0690    0.5205   35.2180 O.2       1 ALC1        0.0000 
     13 O          -1.3840   -0.1930   34.2150 O.2       7 ALL1        0.0000 
     14 CA          2.9165   -0.2655   32.8680 C.3       3 GLC5        0.0000 
     15 CA          0.9520   -0.4490   33.3240 C.3       9 GLL5        0.0000 
     16 CA          4.8810   -0.0820   32.4120 C.3       6 GLP5        0.0000 
     17 CA          0.6490    5.8170   32.1035 C.3       3 GLC5        0.0000 
     18 CA          0.8550    3.8810   31.1600 C.3       9 GLL5        0.0000 
     19 CA          0.4430    7.7530   33.0470 C.3       6 GLP5        0.0000 
     20 CA          2.5930    4.5050   30.8460 C.3       3 GLC5        0.0000 
     21 CA          4.3310    5.1290   30.5320 C.3       6 GLP5        0.0000 
     22 O           0.4835    6.0450   30.1385 O.2       1 ALC1        0.0000 
     23 O           0.6040    4.5550   30.0450 O.2       7 ALL1        0.0000 
     24 O           0.3630    7.5350   30.2320 O.2       4 ALP1        0.0000 
     25 N           1.9585    5.7845   32.2615 N.am      2 SEC2        0.0000 
     26 N           1.2480    4.5030   32.2970 N.am      8 SEL2        0.0000 
     27 N           2.6690    7.0660   32.2260 N.am      5 SEP2        0.0000 
     28 CA         -0.4555    3.5930   33.3105 C.3       3 GLC5        0.0000 
     29 CA          1.4910    3.7920   33.4360 C.3       9 GLL5        0.0000 
     30 CA         -2.4020    3.3940   33.1850 C.3       6 GLP5        0.0000 
     31 CA          0.9670    5.7725   33.2415 C.3       3 GLC5        0.0000 
     32 CA          3.1345    4.4945   33.2245 C.3       3 GLC5        0.0000 
     33 CA          4.7780    5.1970   33.0130 C.3       6 GLP5        0.0000 
     34 CA          3.0160    2.5970   32.8270 C.3       3 GLC5        0.0000 
     35 CA          4.5410    1.4020   32.2180 C.3       6 GLP5        0.0000 
     36 CA         -0.7045    2.6420   32.8140 C.3       3 GLC5        0.0000 
     37 CA          0.9930    1.8900   32.4430 C.3       9 GLL5        0.0000 
     38 N           1.0680   -9.8275   32.0310 N.am      2 SEC2        0.0000 
     39 N           2.1190   -9.0010   32.1660 N.am      8 SEL2        0.0000 
     40 N           0.0170  -10.6540   31.8960 N.am      5 SEP2        0.0000 
     41 N           1.8960   -8.1625   35.4505 N.am      2 SEC2        0.0000 
     42 N           1.7990   -7.5650   34.1870 N.am      8 SEL2        0.0000 
     43 N           1.9930   -8.7600   36.7140 N.am      5 SEP2        0.0000 
     44 CA          4.5765   -8.0030   33.6760 C.3       3 GLC5        0.0000 
     45 CA          3.9800   -5.9800   33.1140 C.3       9 GLL5        0.0000 
     46 CA          5.1730  -10.0260   34.2380 C.3       6 GLP5        0.0000 
     47 CA          7.2920   -5.8540   32.7660 C.3       3 GLC5        0.0000 
     48 CA          5.3010   -5.6800   32.4230 C.3       9 GLL5        0.0000 
     49 CA          9.2830   -6.0280   33.1090 C.3       6 GLP5        0.0000 
     50 N           7.4010   -4.0885   29.9135 N.am      2 SEC2        0.0000 
     51 N           6.3520   -4.0170   30.9610 N.am      8 SEL2        0.0000 
     52 N           8.4500   -4.1600   28.8660 N.am      5 SEP2        0.0000 
     53 O           6.0110   -3.2045   32.2300 O.2       1 ALC1        0.0000 
     54 O           6.3520   -4.0170   30.9610 O.2       7 ALL1        0.0000 
     55 O           5.6700   -2.3920   33.4990 O.2       4 ALP1        0.0000 
     56 CA          3.8600   -7.1505   29.3065 C.3       3 GLC5        0.0000 
     57 CA          5.2920   -6.0530   30.0920 C.3       9 GLL5        0.0000 
     58 CA          2.4280   -8.2480   28.5210 C.3       6 GLP5        0.0000 
     59 N           7.1335   -4.8630   28.8570 N.am      2 SEC2        0.0000 
     60 N           5.8170   -5.5660   28.8480 N.am      8 SEL2        0.0000 
     61 O           5.9460   -6.4540   27.7415 O.2       1 ALC1        0.0000 
     62 O           5.8170   -5.5660   28.8480 O.2       7 ALL1        0.0000 
     63 O           6.0750   -7.3420   26.6350 O.2       4 ALP1        0.0000 
     64 CA          7.8030   -6.4915   31.9415 C.3       3 GLC5        0.0000 
     65 CA          6.3230   -6.9550   30.7740 C.3       9 GLL5        0.0000 
     66 N           4.4210  -13.7045   30.1005 N.am      2 SEC2        0.0000 
     67 N           4.3590  -12.5170   29.3420 N.am      8 SEL2        0.0000 
     68 N           4.4830  -14.8920   30.8590 N.am      5 SEP2        0.0000 
     69 O           2.5075  -12.6255   31.0535 O.2       1 ALC1        0.0000 
     70 O           3.1890  -11.1900   30.7910 O.2       7 ALL1        0.0000 
     71 O           1.8260  -14.0610   31.3160 O.2       4 ALP1        0.0000 
     72 CA          8.9855   -9.2600   31.0955 C.3       3 GLC5        0.0000 
     73 CA          7.6580   -8.8170   29.9350 C.3       9 GLL5        0.0000 
     74 CA         10.3130   -9.7030   32.2560 C.3       6 GLP5        0.0000 
     75 CA         -0.0405   -3.7233   35.4355 C.3       3 GLC5        0.0000 
     76 CA          1.2440   -2.7380   33.5970 C.3       9 GLL5        0.0000 
     77 CA         -0.7270   -4.9500   36.8490 C.3       6 GLP5        0.0000 
     78 CA         -1.7912   -1.8592   35.2048 C.3       3 GLC5        0.0000 
     79 CA          0.0480   -2.2550   34.4470 C.3       9 GLL5        0.0000 
     80 CA         -3.3880   -2.0580   36.3780 C.3       6 GLP5        0.0000 
     81 CA         -0.8660    3.4688   31.4438 C.3       3 GLC5        0.0000 
     82 CA          0.7230    2.4700   31.2250 C.3       9 GLL5        0.0000 
     83 CA         -2.5210    3.7620   31.6950 C.3       6 GLP5        0.0000 
     84 CA          2.6995    1.7910   32.0260 C.3       3 GLC5        0.0000 
     85 CA          2.1375    2.4558   29.7433 C.3       3 GLC5        0.0000 
     86 CA          3.4860    1.7360   28.2940 C.3       6 GLP5        0.0000 
     87 CA          4.6535   -3.7192   29.9208 C.3       3 GLC5        0.0000 
     88 CA          5.2340   -4.9100   31.1130 C.3       9 GLL5        0.0000 
     89 CA          4.0440   -1.9570   29.2390 C.3       6 GLP5        0.0000 
     90 CA          7.1167   -5.6405   28.9645 C.3       3 GLC5        0.0000 
     91 CA          8.4260   -4.7770   27.4960 C.3       6 GLP5        0.0000 
     92 CA          5.2633   -9.9100   32.2390 C.3       3 GLC5        0.0000 
     93 CA          5.3130   -9.1550   30.4870 C.3       9 GLL5        0.0000 
     94 CA          3.8907   -9.0210   29.3805 C.3       3 GLC5        0.0000 
     95 CA          8.0397  -11.0970   31.0812 C.3       3 GLC5        0.0000 
     96 CA          6.6370  -11.0630   29.6960 C.3       9 GLL5        0.0000 
     97 CA          8.9200  -11.6030   32.5590 C.3       6 GLP5        0.0000 
     98 CA          8.9280   -8.9765   28.5245 C.3       3 GLC5        0.0000 
     99 CA          7.6820  -10.1190   29.5110 C.3       9 GLL5        0.0000 
    100 CA         10.1860   -8.4850   27.3260 C.3       6 GLP5        0.0000 
    101 CA          1.9774   -1.0815   34.6985 C.3       3 GLC5        0.0000 
    102 CA          3.5030   -0.5360   35.6510 C.3       6 GLP5        0.0000 
@<TRIPOS>BOND
@<TRIPOS>SUBSTRUCTURE
     1 ALC1        7 GROUP        1 X    ALC  0     ROOT ALC X 1
     2 SEC2        1 GROUP        1 X    SEC  0     **** SEC X 2
     3 GLC5       14 GROUP        1 X    GLC  0     **** GLC X 6
     4 ALP1        9 GROUP        1 Y    ALP  0     ROOT ALP Y 8
     5 SEP2        3 GROUP        1 Y    SEP  0     **** SEP Y 9
     6 GLP5       16 GROUP        1 Y    GLP  0     **** GLP Y 13
     7 ALL1        8 GROUP        1 Z    ALL  0     ROOT ALL Z 15
     8 SEL2        2 GROUP        1 Z    SEL  0     **** SEL Z 16
     9 GLL5       15 GROUP        1 Z    GLL  0     **** GLL Z 20
@<TRIPOS>SET

