#    Name: 1mg5_NAD_1_ligand
#    Modification time : Tue Mar 25 11:50:39 2014

@<TRIPOS>MOLECULE
1mg5_NAD_1_ligand
   70    74     1     0     0
SMALL
NO_CHARGES


@<TRIPOS>ATOM
      1 PA         -0.4390   -6.0360   32.5450 P.3       1 NAD850      0.0000 
      2 O1A        -1.2070   -5.5630   31.3640 O.co2     1 NAD850      0.0000 
      3 O2A        -1.2470   -6.6880   33.5930 O.co2     1 NAD850      0.0000 
      4 O5B         0.3430   -4.8770   33.2880 O.3       1 NAD850      0.0000 
      5 C5B         0.8290   -3.7240   32.5030 C.3       1 NAD850      0.0000 
      6 C4B         1.2440   -2.7380   33.5970 C.3       1 NAD850      0.0000 
      7 O4B         1.7410   -1.5490   32.9240 O.3       1 NAD850      0.0000 
      8 C3B         0.0480   -2.2550   34.4470 C.3       1 NAD850      0.0000 
      9 O3B         0.5380   -1.8330   35.6960 O.3       1 NAD850      0.0000 
     10 C2B        -0.4370   -1.0660   33.6160 C.3       1 NAD850      0.0000 
     11 O2B        -1.3840   -0.1930   34.2150 O.3       1 NAD850      0.0000 
     12 C1B         0.9520   -0.4490   33.3240 C.3       1 NAD850      0.0000 
     13 N9A         0.8280    0.5350   32.2430 N.pl3     1 NAD850      0.0000 
     14 C8A         0.4260    0.3700   30.9500 C.2       1 NAD850      0.0000 
     15 N7A         0.3560    1.5410   30.2900 N.2       1 NAD850      0.0000 
     16 C5A         0.7230    2.4700   31.2250 C.ar      1 NAD850      0.0000 
     17 C6A         0.8550    3.8810   31.1600 C.ar      1 NAD850      0.0000 
     18 N6A         0.6040    4.5550   30.0450 N.pl3     1 NAD850      0.0000 
     19 N1A         1.2480    4.5030   32.2970 N.ar      1 NAD850      0.0000 
     20 C2A         1.4910    3.7920   33.4360 C.ar      1 NAD850      0.0000 
     21 N3A         1.3880    2.4930   33.5800 N.ar      1 NAD850      0.0000 
     22 C4A         0.9930    1.8900   32.4430 C.ar      1 NAD850      0.0000 
     23 O3          0.7230   -6.9860   31.9880 O.3       1 NAD850      0.0000 
     24 PN          1.9660   -7.6370   32.7260 P.3       1 NAD850      0.0000 
     25 O1N         2.1190   -9.0010   32.1660 O.co2     1 NAD850      0.0000 
     26 O2N         1.7990   -7.5650   34.1870 O.co2     1 NAD850      0.0000 
     27 O5D         3.1170   -6.6490   32.1860 O.3       1 NAD850      0.0000 
     28 C5D         3.9800   -5.9800   33.1140 C.3       1 NAD850      0.0000 
     29 C4D         5.3010   -5.6800   32.4230 C.3       1 NAD850      0.0000 
     30 O4D         5.9350   -6.9540   32.1440 O.3       1 NAD850      0.0000 
     31 C3D         5.2340   -4.9100   31.1130 C.3       1 NAD850      0.0000 
     32 O3D         6.3520   -4.0170   30.9610 O.3       1 NAD850      0.0000 
     33 C2D         5.2920   -6.0530   30.0920 C.3       1 NAD850      0.0000 
     34 O2D         5.8170   -5.5660   28.8480 O.3       1 NAD850      0.0000 
     35 C1D         6.3230   -6.9550   30.7740 C.3       1 NAD850      0.0000 
     36 N1N         6.3780   -8.3390   30.3210 N.pl3     1 NAD850      0.0000 
     37 C2N         5.3130   -9.1550   30.4870 C.ar      1 NAD850      0.0000 
     38 C3N         5.3940  -10.4330   29.9930 C.ar      1 NAD850      0.0000 
     39 C7N         4.2400  -11.4800   30.0050 C.2       1 NAD850      0.0000 
     40 O7N         4.3590  -12.5170   29.3420 O.2       1 NAD850      0.0000 
     41 N7N         3.1890  -11.1900   30.7910 N.am      1 NAD850      0.0000 
     42 C4N         6.6370  -11.0630   29.6960 C.ar      1 NAD850      0.0000 
     43 C5N         7.6820  -10.1190   29.5110 C.ar      1 NAD850      0.0000 
     44 C6N         7.6580   -8.8170   29.9350 C.ar      1 NAD850      0.0000 
     45 H           0.0487   -3.2946   31.9279 H         1 NAD850      0.0000 
     46 H           1.6817   -3.9825   31.9284 H         1 NAD850      0.0000 
     47 H           1.9762   -3.1569   34.2175 H         1 NAD850      0.0000 
     48 H          -0.6701   -2.9936   34.4546 H         1 NAD850      0.0000 
     49 H          -0.7558   -1.4899   32.6596 H         1 NAD850      0.0000 
     50 H           1.2982   -0.0099   34.2212 H         1 NAD850      0.0000 
     51 H           0.2137   -0.5087   30.5542 H         1 NAD850      0.0000 
     52 H           0.3026    4.0121   29.2611 H         1 NAD850      0.0000 
     53 H           0.7389    5.5449   30.0893 H         1 NAD850      0.0000 
     54 H           1.8001    4.3809   34.2999 H         1 NAD850      0.0000 
     55 H           4.1877   -6.5989   33.9894 H         1 NAD850      0.0000 
     56 H           3.5518   -5.0344   33.4529 H         1 NAD850      0.0000 
     57 H           5.9382   -5.1292   33.1178 H         1 NAD850      0.0000 
     58 H           4.2918   -4.4506   31.0389 H         1 NAD850      0.0000 
     59 H           4.3868   -6.5273   30.0531 H         1 NAD850      0.0000 
     60 H           7.2900   -6.4758   30.6846 H         1 NAD850      0.0000 
     61 H           4.4647   -8.8375   30.9667 H         1 NAD850      0.0000 
     62 H           2.4500  -11.8636   30.8038 H         1 NAD850      0.0000 
     63 H           3.2398  -10.3265   31.2928 H         1 NAD850      0.0000 
     64 H           6.7524  -12.0154   29.6292 H         1 NAD850      0.0000 
     65 H           8.5465  -10.4718   28.9984 H         1 NAD850      0.0000 
     66 H           8.4579   -8.2330   29.9783 H         1 NAD850      0.0000 
     67 H          -0.1610   -1.2128   36.0520 H         1 NAD850      0.0000 
     68 H          -1.1057   -0.1278   35.1733 H         1 NAD850      0.0000 
     69 H           6.5776   -3.7244   31.8902 H         1 NAD850      0.0000 
     70 H           5.7698   -6.3461   28.2242 H         1 NAD850      0.0000 
@<TRIPOS>BOND
     1    2    1 ar   
     2    3    1 ar   
     3    4    1 1    
     4   23    1 1    
     5    5    4 1    
     6    6    5 1    
     7   45    5 1    
     8   46    5 1    
     9    7    6 1    
    10    8    6 1    
    11   47    6 1    
    12   12    7 1    
    13    9    8 1    
    14   10    8 1    
    15   48    8 1    
    16   67    9 1    
    17   11   10 1    
    18   12   10 1    
    19   49   10 1    
    20   68   11 1    
    21   13   12 1    
    22   50   12 1    
    23   14   13 1    
    24   22   13 1    
    25   15   14 2    
    26   51   14 1    
    27   16   15 1    
    28   17   16 ar   
    29   22   16 ar   
    30   18   17 1    
    31   19   17 ar   
    32   52   18 1    
    33   53   18 1    
    34   20   19 ar   
    35   21   20 ar   
    36   54   20 1    
    37   22   21 ar   
    38   24   23 1    
    39   25   24 ar   
    40   26   24 ar   
    41   27   24 1    
    42   28   27 1    
    43   29   28 1    
    44   55   28 1    
    45   56   28 1    
    46   30   29 1    
    47   31   29 1    
    48   57   29 1    
    49   35   30 1    
    50   32   31 1    
    51   33   31 1    
    52   58   31 1    
    53   69   32 1    
    54   34   33 1    
    55   35   33 1    
    56   59   33 1    
    57   70   34 1    
    58   36   35 1    
    59   60   35 1    
    60   37   36 ar   
    61   44   36 ar   
    62   38   37 ar   
    63   61   37 1    
    64   39   38 1    
    65   42   38 ar   
    66   40   39 2    
    67   41   39 am   
    68   62   41 1    
    69   63   41 1    
    70   43   42 ar   
    71   64   42 1    
    72   44   43 ar   
    73   65   43 1    
    74   66   44 1    
@<TRIPOS>SUBSTRUCTURE
     1 NAD850      1 GROUP   
@<TRIPOS>SET

