#    Name: 3fmz_2T1_2_INTS_M
#    Modification time : Tue Mar 25 06:08:15 2014

@<TRIPOS>MOLECULE
3fmz_2T1_2_INTS_M
   74     0     6     0     0
SMALL
NO_CHARGES


@<TRIPOS>ATOM
      1 CA         18.6960  -65.8710   16.8830 C.3       2 GLC5        0.0000 
      2 CA         19.0800  -63.7750   16.1690 C.3       6 GLL5        0.0000 
      3 CA         18.3120  -67.9670   17.5970 C.3       4 GLP5        0.0000 
      4 CA         19.1605  -63.9170   18.0770 C.3       2 GLC5        0.0000 
      5 CA         19.2410  -64.0590   19.9850 C.3       4 GLP5        0.0000 
      6 CA         21.1580  -64.6080   12.7855 C.3       2 GLC5        0.0000 
      7 CA         19.6790  -64.9650   13.5910 C.3       6 GLL5        0.0000 
      8 CA         22.6370  -64.2510   11.9800 C.3       4 GLP5        0.0000 
      9 CA         19.4375  -64.6020   11.6935 C.3       2 GLC5        0.0000 
     10 CA         19.1960  -64.2390    9.7960 C.3       4 GLP5        0.0000 
     11 N          22.9695  -63.7910   18.7570 N.am      1 SEC2        0.0000 
     12 N          23.3260  -64.7800   17.9910 N.am      5 SEL2        0.0000 
     13 N          22.6130  -62.8020   19.5230 N.am      3 SEP2        0.0000 
     14 N          23.9000  -63.5525   17.3595 N.am      1 SEC2        0.0000 
     15 N          24.4740  -62.3250   16.7280 N.am      3 SEP2        0.0000 
     16 N          22.0375  -68.1805   13.2220 N.am      1 SEC2        0.0000 
     17 N          21.2380  -67.0590   14.2480 N.am      5 SEL2        0.0000 
     18 N          22.8370  -69.3020   12.1960 N.am      3 SEP2        0.0000 
     19 CA         21.9380  -64.2100   14.3690 C.3       2 GLC5        0.0000 
     20 CA         20.5030  -63.8720   15.6400 C.3       6 GLL5        0.0000 
     21 CA         23.3730  -64.5480   13.0980 C.3       4 GLP5        0.0000 
     22 CA         20.5480  -63.9500   17.6865 C.3       2 GLC5        0.0000 
     23 CA         20.5930  -64.0280   19.7330 C.3       4 GLP5        0.0000 
     24 CA         20.9235  -62.1410   14.5665 C.3       2 GLC5        0.0000 
     25 CA         21.3440  -60.4100   13.4930 C.3       4 GLP5        0.0000 
     26 CA         13.7665  -64.9860   18.8920 C.3       2 GLC5        0.0000 
     27 CA         15.1250  -64.1600   17.3310 C.3       6 GLL5        0.0000 
     28 CA         12.4080  -65.8120   20.4530 C.3       4 GLP5        0.0000 
     29 CA         13.1840  -63.4835   11.9260 C.3       2 GLC5        0.0000 
     30 CA         14.7950  -62.3060   12.8080 C.3       6 GLL5        0.0000 
     31 CA         11.5730  -64.6610   11.0440 C.3       4 GLP5        0.0000 
     32 CA         13.0280  -61.1220   12.5315 C.3       2 GLC5        0.0000 
     33 CA         11.2610  -59.9380   12.2550 C.3       4 GLP5        0.0000 
     34 CA         14.5825  -62.3480   10.6395 C.3       2 GLC5        0.0000 
     35 CA         14.3700  -62.3900    8.4710 C.3       4 GLP5        0.0000 
     36 CA         14.9515  -64.8805   14.8175 C.3       2 GLC5        0.0000 
     37 CA         15.6680  -62.9990   14.8490 C.3       6 GLL5        0.0000 
     38 CA         14.8770  -66.7880   14.5150 C.3       4 GLP5        0.0000 
     39 CA         15.4320  -61.5210   16.2520 C.3       2 GLC5        0.0000 
     40 CA         15.8380  -60.0690   17.3840 C.3       4 GLP5        0.0000 
     41 CA         12.2722  -62.6882   15.7762 C.3       2 GLC5        0.0000 
     42 CA         14.3840  -62.9470   15.3910 C.3       6 GLL5        0.0000 
     43 CA         10.2970  -62.1410   15.5450 C.3       4 GLP5        0.0000 
     44 CA         14.7475  -65.3150   15.7462 C.3       2 GLC5        0.0000 
     45 CA         14.1110  -63.5240   16.6240 C.3       6 GLL5        0.0000 
     46 CA         13.8545  -62.9690   18.6647 C.3       2 GLC5        0.0000 
     47 CA         13.0910  -62.0960   20.3520 C.3       4 GLP5        0.0000 
     48 CA         16.5237  -65.5617   14.5510 C.3       2 GLC5        0.0000 
     49 CA         18.0750  -63.7180   15.0220 C.3       6 GLL5        0.0000 
     50 CA         18.7673  -66.6400   14.8697 C.3       2 GLC5        0.0000 
     51 CA         18.2660  -64.9530   14.1520 C.3       6 GLL5        0.0000 
     52 CA         18.5620  -68.3210   15.8680 C.3       4 GLP5        0.0000 
     53 CA         23.8325  -68.2248   14.6790 C.3       2 GLC5        0.0000 
     54 CA         22.5670  -68.4590   16.0140 C.3       6 GLL5        0.0000 
     55 CA         24.9630  -68.6290   13.1050 C.3       4 GLP5        0.0000 
     56 CA         20.6320  -68.0708   16.0605 C.3       2 GLC5        0.0000 
     57 CA         26.2647  -69.5178   16.6857 C.3       2 GLC5        0.0000 
     58 CA         24.4630  -69.3210   17.2170 C.3       6 GLL5        0.0000 
     59 CA         27.9300  -70.3520   15.9140 C.3       4 GLP5        0.0000 
     60 CA         24.4415  -69.0265   14.9505 C.3       2 GLC5        0.0000 
     61 CA         15.7113  -65.3593   15.3465 C.3       2 GLC5        0.0000 
     62 CA         16.6860  -63.6420   15.5580 C.3       6 GLL5        0.0000 
     63 CA         17.6044  -61.8541   16.2619 C.3       2 GLC5        0.0000 
     64 CA         17.5770  -60.0140   16.9470 C.3       4 GLP5        0.0000 
     65 CA         16.1445  -66.1962   17.3857 C.3       2 GLC5        0.0000 
     66 CA         16.4050  -64.2190   16.7980 C.3       6 GLL5        0.0000 
     67 CA         16.5240  -68.2030   17.7070 C.3       4 GLP5        0.0000 
     68 CA         15.6747  -62.0498   17.1359 C.3       2 GLC5        0.0000 
     69 CA         16.4095  -63.5682   18.8137 C.3       2 GLC5        0.0000 
     70 CA         17.0540  -62.9470   20.5630 C.3       4 GLP5        0.0000 
     71 CA         16.8623  -60.8773   15.2688 C.3       2 GLC5        0.0000 
     72 CA         15.9210  -62.3570   13.5030 C.3       6 GLL5        0.0000 
     73 CA         17.5463  -62.8350   11.5990 C.3       2 GLC5        0.0000 
     74 CA         18.7290  -62.9610   10.0400 C.3       4 GLP5        0.0000 
@<TRIPOS>BOND
@<TRIPOS>SUBSTRUCTURE
     1 SEC2       11 GROUP        1 X    SEC  0     ROOT SEC X 2
     2 GLC5        1 GROUP        1 X    GLC  0     **** GLC X 6
     3 SEP2       13 GROUP        1 Y    SEP  0     ROOT SEP Y 9
     4 GLP5        3 GROUP        1 Y    GLP  0     **** GLP Y 13
     5 SEL2       12 GROUP        1 Z    SEL  0     ROOT SEL Z 16
     6 GLL5        2 GROUP        1 Z    GLL  0     **** GLL Z 20
@<TRIPOS>SET

