#    Name: 3fmz_2T1_2_ligand
#    Modification time : Tue Mar 25 06:08:15 2014

@<TRIPOS>MOLECULE
3fmz_2T1_2_ligand
   46    48     1     0     0
SMALL
NO_CHARGES


@<TRIPOS>ATOM
      1 N1         20.5220  -65.0370   14.7700 N.am      1 2T1184      0.0000 
      2 N3         22.0140  -66.1030   16.1270 N.am      1 2T1184      0.0000 
      3 C4         15.6680  -62.9990   14.8490 C.ar      1 2T1184      0.0000 
      4 C5         14.3840  -62.9470   15.3910 C.ar      1 2T1184      0.0000 
      5 C6         14.1110  -63.5240   16.6240 C.ar      1 2T1184      0.0000 
      6 C7         18.0750  -63.7180   15.0220 C.3       1 2T1184      0.0000 
      7 C8         19.0800  -63.7750   16.1690 C.3       1 2T1184      0.0000 
      8 C10        19.6790  -64.9650   13.5910 C.3       1 2T1184      0.0000 
      9 C13        22.8370  -67.1820   16.4920 C.ar      1 2T1184      0.0000 
     10 C15        23.9210  -66.9810   17.3380 C.ar      1 2T1184      0.0000 
     11 C17        22.5670  -68.4590   16.0140 C.ar      1 2T1184      0.0000 
     12 C21        24.2460  -65.6210   17.8770 C.2       1 2T1184      0.0000 
     13 O3         23.3260  -64.7800   17.9910 O.co2     1 2T1184      0.0000 
     14 O2         25.4290  -65.3710   18.2010 O.co2     1 2T1184      0.0000 
     15 C16        24.7360  -68.0460   17.6980 C.ar      1 2T1184      0.0000 
     16 C19        24.4630  -69.3210   17.2170 C.ar      1 2T1184      0.0000 
     17 C18        23.3770  -69.5270   16.3750 C.ar      1 2T1184      0.0000 
     18 C14        21.2610  -66.1120   15.0220 C.2       1 2T1184      0.0000 
     19 O1         21.2380  -67.0590   14.2480 O.2       1 2T1184      0.0000 
     20 C11        18.2660  -64.9530   14.1520 C.3       1 2T1184      0.0000 
     21 C9         20.5030  -63.8720   15.6400 C.3       1 2T1184      0.0000 
     22 C3         16.6860  -63.6420   15.5580 C.ar      1 2T1184      0.0000 
     23 C2         16.4050  -64.2190   16.7980 C.ar      1 2T1184      0.0000 
     24 C1         15.1250  -64.1600   17.3310 C.ar      1 2T1184      0.0000 
     25 C12        15.9210  -62.3570   13.5030 C.3       1 2T1184      0.0000 
     26 F1         16.3740  -61.1240   13.6780 F         1 2T1184      0.0000 
     27 F3         14.7950  -62.3060   12.8080 F         1 2T1184      0.0000 
     28 F2         16.8060  -63.0610   12.8130 F         1 2T1184      0.0000 
     29 H          22.0101  -65.2672   16.7682 H         1 2T1184      0.0000 
     30 H          13.6299  -62.4735   14.8674 H         1 2T1184      0.0000 
     31 H          13.1609  -63.4814   17.0141 H         1 2T1184      0.0000 
     32 H          18.2913  -62.8438   14.4291 H         1 2T1184      0.0000 
     33 H          18.8652  -64.6442   16.7908 H         1 2T1184      0.0000 
     34 H          18.9807  -62.8760   16.7774 H         1 2T1184      0.0000 
     35 H          19.7958  -65.8284   12.9686 H         1 2T1184      0.0000 
     36 H          19.8410  -64.0586   13.0444 H         1 2T1184      0.0000 
     37 H          21.7620  -68.6127   15.3891 H         1 2T1184      0.0000 
     38 H          25.5404  -67.8922   18.3195 H         1 2T1184      0.0000 
     39 H          25.0643  -70.1112   17.4841 H         1 2T1184      0.0000 
     40 H          23.1739  -70.4707   16.0197 H         1 2T1184      0.0000 
     41 H          17.5526  -64.9321   13.3354 H         1 2T1184      0.0000 
     42 H          18.1067  -65.8433   14.7505 H         1 2T1184      0.0000 
     43 H          20.7313  -62.9705   15.0960 H         1 2T1184      0.0000 
     44 H          21.1740  -63.9925   16.4742 H         1 2T1184      0.0000 
     45 H          17.1586  -64.6929   17.3201 H         1 2T1184      0.0000 
     46 H          14.9264  -64.5847   18.2451 H         1 2T1184      0.0000 
@<TRIPOS>BOND
     1    8    1 1    
     2   18    1 am   
     3   21    1 1    
     4    9    2 1    
     5   18    2 am   
     6   29    2 1    
     7    4    3 ar   
     8   22    3 ar   
     9   25    3 1    
    10    5    4 ar   
    11   30    4 1    
    12   24    5 ar   
    13   31    5 1    
    14    7    6 1    
    15   20    6 1    
    16   22    6 1    
    17   32    6 1    
    18   21    7 1    
    19   33    7 1    
    20   34    7 1    
    21   20    8 1    
    22   35    8 1    
    23   36    8 1    
    24   10    9 ar   
    25   11    9 ar   
    26   12   10 1    
    27   15   10 ar   
    28   17   11 ar   
    29   37   11 1    
    30   13   12 ar   
    31   14   12 ar   
    32   16   15 ar   
    33   38   15 1    
    34   17   16 ar   
    35   39   16 1    
    36   40   17 1    
    37   19   18 2    
    38   41   20 1    
    39   42   20 1    
    40   43   21 1    
    41   44   21 1    
    42   23   22 ar   
    43   24   23 ar   
    44   45   23 1    
    45   46   24 1    
    46   26   25 1    
    47   27   25 1    
    48   28   25 1    
@<TRIPOS>SUBSTRUCTURE
     1 2T1184      1 GROUP   
@<TRIPOS>SET

