#    Name: 3nax_MP7_1_INTS_M
#    Modification time : Tue Mar 25 01:10:01 2014

@<TRIPOS>MOLECULE
3nax_MP7_1_INTS_M
  113     0     9     0     0
SMALL
NO_CHARGES


@<TRIPOS>ATOM
      1 CA          6.1130   -2.3370   -0.9195 C.3       3 GLC5        0.0000 
      2 CA          5.4670   -3.5500    0.0470 C.3       9 GLL5        0.0000 
      3 CA          6.7590   -1.1240   -1.8860 C.3       6 GLP5        0.0000 
      4 CA          5.3380   -4.0060   -1.8630 C.3       3 GLC5        0.0000 
      5 CA          5.2090   -4.4620   -3.7730 C.3       6 GLP5        0.0000 
      6 N           6.5425   -4.6760    4.8950 N.am      2 SEC2        0.0000 
      7 N           8.0010   -4.7010    5.2310 N.am      8 SEL2        0.0000 
      8 N           5.0840   -4.6510    4.5590 N.am      5 SEP2        0.0000 
      9 CA         13.4870   -6.7665    3.3625 C.3       3 GLC5        0.0000 
     10 CA         11.8900   -5.8480    4.4660 C.3       9 GLL5        0.0000 
     11 CA         15.0840   -7.6850    2.2590 C.3       6 GLP5        0.0000 
     12 CA          9.4045   -1.9465    1.6875 C.3       3 GLC5        0.0000 
     13 CA          9.2360   -3.7440    2.9000 C.3       9 GLL5        0.0000 
     14 CA          9.5730   -0.1490    0.4750 C.3       6 GLP5        0.0000 
     15 CA          9.0390   -2.5900    4.4005 C.3       3 GLC5        0.0000 
     16 CA          8.8420   -1.4360    5.9010 C.3       6 GLP5        0.0000 
     17 CA          9.9185   -7.2240    0.8980 C.3       3 GLC5        0.0000 
     18 CA          8.6220   -5.7980    1.4870 C.3       9 GLL5        0.0000 
     19 CA         11.2150   -8.6500    0.3090 C.3       6 GLP5        0.0000 
     20 CA          8.3565   -8.2385    0.4015 C.3       3 GLC5        0.0000 
     21 CA          7.7750   -6.3810    0.4930 C.3       9 GLL5        0.0000 
     22 CA          8.9380  -10.0960    0.3100 C.3       6 GLP5        0.0000 
     23 CA          8.4270   -1.9235    0.9725 C.3       3 GLC5        0.0000 
     24 CA          7.2810   -3.6980    1.4700 C.3       9 GLL5        0.0000 
     25 CA          6.1105   -2.9685    3.1855 C.3       3 GLC5        0.0000 
     26 CA          4.9400   -2.2390    4.9010 C.3       6 GLP5        0.0000 
     27 CA          5.5485   -5.2730   -2.3345 C.3       3 GLC5        0.0000 
     28 CA          5.8880   -6.0840   -0.8960 C.3       9 GLL5        0.0000 
     29 CA          6.5160   -7.1870   -2.2670 C.3       3 GLC5        0.0000 
     30 CA          7.1440   -8.2900   -3.6380 C.3       6 GLP5        0.0000 
     31 CA          7.7265    0.1790    8.5785 C.3       3 GLC5        0.0000 
     32 CA          7.1050   -0.5660   10.5370 C.3       9 GLL5        0.0000 
     33 CA          8.3480    0.9240    6.6200 C.3       6 GLP5        0.0000 
     34 CA          8.2285   -1.5645    7.9085 C.3       3 GLC5        0.0000 
     35 CA          7.6150   -1.6930    9.9160 C.3       9 GLL5        0.0000 
     36 CA          6.4270   -2.3200   12.4295 C.3       3 GLC5        0.0000 
     37 CA          4.9650   -1.6030   11.0150 C.3       9 GLL5        0.0000 
     38 CA          7.8890   -3.0370   13.8440 C.3       6 GLP5        0.0000 
     39 O           8.9245    1.1445   10.3630 O.2       1 ALC1        0.0000 
     40 O           7.6540    0.6710   10.7570 O.2       7 ALL1        0.0000 
     41 O          10.1950    1.6180    9.9690 O.2       4 ALP1        0.0000 
     42 CA          4.6670   -5.5115   10.0630 C.3       3 GLC5        0.0000 
     43 CA          6.5410   -5.1090    9.1400 C.3       9 GLL5        0.0000 
     44 CA          2.7930   -5.9140   10.9860 C.3       6 GLP5        0.0000 
     45 CA          5.5800  -10.7510    6.8490 C.3       3 GLC5        0.0000 
     46 CA          6.6460   -9.9760    8.3400 C.3       9 GLL5        0.0000 
     47 CA          4.5140  -11.5260    5.3580 C.3       6 GLP5        0.0000 
     48 CA          4.7480  -12.1120    9.8710 C.3       3 GLC5        0.0000 
     49 CA          5.8420  -10.2240    9.4740 C.3       9 GLL5        0.0000 
     50 CA          3.6540  -14.0000   10.2680 C.3       6 GLP5        0.0000 
     51 CA          6.5480   -6.5850   11.6855 C.3       3 GLC5        0.0000 
     52 CA          6.0950   -7.9010   10.2340 C.3       9 GLL5        0.0000 
     53 CA          7.0010   -5.2690   13.1370 C.3       6 GLP5        0.0000 
     54 N           7.4495    3.7450   11.2460 N.am      2 SEC2        0.0000 
     55 N           6.7910    2.6390   11.8200 N.am      8 SEL2        0.0000 
     56 N           8.1080    4.8510   10.6720 N.am      5 SEP2        0.0000 
     57 N          10.3350   -8.2345    8.5620 N.am      2 SEC2        0.0000 
     58 N          10.1070   -7.0430    7.9940 N.am      8 SEL2        0.0000 
     59 N          10.5630   -9.4260    9.1300 N.am      5 SEP2        0.0000 
     60 CA          4.2123   -4.4095    0.2637 C.3       3 GLC5        0.0000 
     61 CA          6.4720   -4.2820    0.5040 C.3       9 GLL5        0.0000 
     62 CA          2.4550   -4.9030    0.2520 C.3       6 GLP5        0.0000 
     63 CA          4.7412   -2.4300    0.6313 C.3       3 GLC5        0.0000 
     64 CA          3.5130   -0.9440    0.9870 C.3       6 GLP5        0.0000 
     65 CA         11.9011   -5.0511    6.7830 C.3       3 GLC5        0.0000 
     66 CA          9.9290   -5.9150    5.9490 C.3       9 GLL5        0.0000 
     67 CA         12.5740   -4.1230    8.4340 C.3       6 GLP5        0.0000 
     68 CA          7.0978   -5.9335    2.5765 C.3       3 GLC5        0.0000 
     69 CA          5.7040   -6.7480    3.4350 C.3       6 GLP5        0.0000 
     70 CA          9.6141   -4.9145   -0.1638 C.3       3 GLC5        0.0000 
     71 CA          8.3610   -4.4400    1.9490 C.3       9 GLL5        0.0000 
     72 CA         11.0950   -4.0790   -1.4330 C.3       6 GLP5        0.0000 
     73 CA          4.3730   -5.3650   -0.0885 C.3       3 GLC5        0.0000 
     74 CA          7.2871   -4.8034   -1.5736 C.3       3 GLC5        0.0000 
     75 CA          7.7210   -4.4780   -3.5320 C.3       6 GLP5        0.0000 
     76 CA          6.2903   -5.3690    2.2110 C.3       3 GLC5        0.0000 
     77 CA          6.1326   -6.3889    1.5599 C.3       3 GLC5        0.0000 
     78 CA          6.6940   -5.5700    0.0380 C.3       9 GLL5        0.0000 
     79 CA          5.8966   -7.5849   -0.2761 C.3       3 GLC5        0.0000 
     80 CA          5.2320   -9.1400   -0.2370 C.3       6 GLP5        0.0000 
     81 CA          5.7515   -0.7345    8.9475 C.3       3 GLC5        0.0000 
     82 CA          5.8270   -0.5620   11.0670 C.3       9 GLL5        0.0000 
     83 CA          5.0370   -0.9050    7.0930 C.3       6 GLP5        0.0000 
     84 CA          7.4648   -2.0827   12.1015 C.3       3 GLC5        0.0000 
     85 CA          8.4303   -0.5933   11.7170 C.3       3 GLC5        0.0000 
     86 CA          9.8200   -0.0580   13.0750 C.3       6 GLP5        0.0000 
     87 CA          8.9087   -3.2582    9.9383 C.3       3 GLC5        0.0000 
     88 CA         10.6350   -4.2500    9.9900 C.3       6 GLP5        0.0000 
     89 CA          6.1098   -1.5857    8.4898 C.3       3 GLC5        0.0000 
     90 CA          6.5373   -4.0427   11.6310 C.3       3 GLC5        0.0000 
     91 CA          6.7500   -2.8400    9.8570 C.3       9 GLL5        0.0000 
     92 CA          5.1090   -1.5515    8.8985 C.3       3 GLC5        0.0000 
     93 CA          5.3970   -2.7930   10.3930 C.3       9 GLL5        0.0000 
     94 CA          4.8003    0.4642   10.0103 C.3       3 GLC5        0.0000 
     95 CA          3.8850    2.0120    9.1120 C.3       6 GLP5        0.0000 
     96 CA          7.0140   -5.4707   11.0660 C.3       3 GLC5        0.0000 
     97 CA          8.8310   -4.9612    9.4925 C.3       3 GLC5        0.0000 
     98 CA          8.4100   -7.7112   10.1052 C.3       3 GLC5        0.0000 
     99 CA          7.5130   -6.2360    8.8500 C.3       9 GLL5        0.0000 
    100 CA          9.6150   -8.4910   11.2530 C.3       6 GLP5        0.0000 
    101 CA          5.2230   -8.2222    7.8502 C.3       3 GLC5        0.0000 
    102 CA          6.8970   -7.6270    9.0650 C.3       9 GLL5        0.0000 
    103 CA          3.4090   -8.3040    7.1000 C.3       6 GLP5        0.0000 
    104 CA          8.2632   -8.9030    9.7455 C.3       3 GLC5        0.0000 
    105 CA          7.1770   -8.6540    8.1360 C.3       9 GLL5        0.0000 
    106 CA          6.4870  -11.8815    8.4570 C.3       3 GLC5        0.0000 
    107 CA          6.7300  -13.6630    8.0070 C.3       6 GLP5        0.0000 
    108 CA          4.8265   -9.2020    8.0035 C.3       3 GLC5        0.0000 
    109 CA          7.7200   -8.5207   10.7812 C.3       3 GLC5        0.0000 
    110 CA          5.5550   -9.2000   10.3850 C.3       9 GLL5        0.0000 
    111 CA          4.6170   -8.4272    8.7048 C.3       3 GLC5        0.0000 
    112 CA          6.6074   -9.9023   11.5619 C.3       3 GLC5        0.0000 
    113 CA          7.3180  -10.9980   13.0420 C.3       6 GLP5        0.0000 
@<TRIPOS>BOND
@<TRIPOS>SUBSTRUCTURE
     1 ALC1       39 GROUP        1 X    ALC  0     ROOT ALC X 1
     2 SEC2        6 GROUP        1 X    SEC  0     **** SEC X 2
     3 GLC5        1 GROUP        1 X    GLC  0     **** GLC X 6
     4 ALP1       41 GROUP        1 Y    ALP  0     ROOT ALP Y 8
     5 SEP2        8 GROUP        1 Y    SEP  0     **** SEP Y 9
     6 GLP5        3 GROUP        1 Y    GLP  0     **** GLP Y 13
     7 ALL1       40 GROUP        1 Z    ALL  0     ROOT ALL Z 15
     8 SEL2        7 GROUP        1 Z    SEL  0     **** SEL Z 16
     9 GLL5        2 GROUP        1 Z    GLL  0     **** GLL Z 20
@<TRIPOS>SET

