#    Name: 3nax_MP7_1_ligand
#    Modification time : Tue Mar 25 01:10:01 2014

@<TRIPOS>MOLECULE
3nax_MP7_1_ligand
   60    64     1     0     0
SMALL
NO_CHARGES


@<TRIPOS>ATOM
      1 C           9.9290   -5.9150    5.9490 C.2       1 MP7363      0.0000 
      2 F           5.4670   -3.5500    0.0470 F         1 MP7363      0.0000 
      3 N           9.8840   -4.6340    3.8610 N.am      1 MP7363      0.0000 
      4 O           8.0010   -4.7010    5.2310 O.2       1 MP7363      0.0000 
      5 C1         11.2040   -6.3060    5.6470 C.2       1 MP7363      0.0000 
      6 C2         11.8900   -5.8480    4.4660 C.2       1 MP7363      0.0000 
      7 C3         11.1880   -5.0580    3.5600 C.2       1 MP7363      0.0000 
      8 C4          9.1550   -5.0360    4.9810 C.2       1 MP7363      0.0000 
      9 C5          9.2360   -3.7440    2.9000 C.3       1 MP7363      0.0000 
     10 C6          8.3610   -4.4400    1.9490 C.ar      1 MP7363      0.0000 
     11 C7          8.6220   -5.7980    1.4870 C.ar      1 MP7363      0.0000 
     12 C8          7.7750   -6.3810    0.4930 C.ar      1 MP7363      0.0000 
     13 C9          6.6940   -5.5700    0.0380 C.ar      1 MP7363      0.0000 
     14 C10         6.4720   -4.2820    0.5040 C.ar      1 MP7363      0.0000 
     15 C11         7.2810   -3.6980    1.4700 C.ar      1 MP7363      0.0000 
     16 F12         5.8880   -6.0840   -0.8960 F         1 MP7363      0.0000 
     17 C13         5.8270   -0.5620   11.0670 C.ar      1 MP7363      0.0000 
     18 C14         7.1050   -0.5660   10.5370 C.ar      1 MP7363      0.0000 
     19 C15         7.6150   -1.6930    9.9160 C.ar      1 MP7363      0.0000 
     20 C16         6.7500   -2.8400    9.8570 C.ar      1 MP7363      0.0000 
     21 C17         5.3970   -2.7930   10.3930 C.ar      1 MP7363      0.0000 
     22 C18         4.9650   -1.6030   11.0150 C.ar      1 MP7363      0.0000 
     23 N19         5.5530    0.6990   11.6280 N.am      1 MP7363      0.0000 
     24 N20         7.6540    0.6710   10.7570 N.am      1 MP7363      0.0000 
     25 O21         7.3180   -3.8940    9.2120 O.3       1 MP7363      0.0000 
     26 C22         6.5410   -5.1090    9.1400 C.3       1 MP7363      0.0000 
     27 C23         7.5130   -6.2360    8.8500 C.3       1 MP7363      0.0000 
     28 C24         6.8970   -7.6270    9.0650 C.ar      1 MP7363      0.0000 
     29 C25         7.1770   -8.6540    8.1360 C.ar      1 MP7363      0.0000 
     30 C26         6.6460   -9.9760    8.3400 C.ar      1 MP7363      0.0000 
     31 C27         5.8420  -10.2240    9.4740 C.ar      1 MP7363      0.0000 
     32 C28         5.5550   -9.2000   10.3850 C.ar      1 MP7363      0.0000 
     33 C29         6.0950   -7.9010   10.2340 C.ar      1 MP7363      0.0000 
     34 C30         6.7030    1.4630   11.4520 C.2       1 MP7363      0.0000 
     35 O31         6.7910    2.6390   11.8200 O.2       1 MP7363      0.0000 
     36 N32         8.1230   -5.9280    7.5400 N.am      1 MP7363      0.0000 
     37 C33         9.3990   -6.3600    7.2440 C.2       1 MP7363      0.0000 
     38 O34        10.1070   -7.0430    7.9940 O.2       1 MP7363      0.0000 
     39 H          11.7229   -6.9561    6.2722 H         1 MP7363      0.0000 
     40 H          12.8534   -6.1051    4.3198 H         1 MP7363      0.0000 
     41 H          11.6191   -4.7827    2.6706 H         1 MP7363      0.0000 
     42 H          10.0122   -3.1749    2.3371 H         1 MP7363      0.0000 
     43 H           8.6453   -2.9723    3.4465 H         1 MP7363      0.0000 
     44 H           9.3975   -6.3124    1.8733 H         1 MP7363      0.0000 
     45 H           7.9312   -7.2914    0.1437 H         1 MP7363      0.0000 
     46 H           7.0957   -2.7652    1.8169 H         1 MP7363      0.0000 
     47 H           8.5303   -1.7333    9.5224 H         1 MP7363      0.0000 
     48 H           4.8040   -3.5966   10.3117 H         1 MP7363      0.0000 
     49 H           4.0256   -1.5561   11.4056 H         1 MP7363      0.0000 
     50 H           4.7563    0.9616   12.0348 H         1 MP7363      0.0000 
     51 H           8.5149    0.9718   10.5010 H         1 MP7363      0.0000 
     52 H           5.8120   -5.0676    8.3394 H         1 MP7363      0.0000 
     53 H           6.0414   -5.3173   10.0787 H         1 MP7363      0.0000 
     54 H           8.3270   -6.1125    9.6280 H         1 MP7363      0.0000 
     55 H           7.7534   -8.4705    7.3182 H         1 MP7363      0.0000 
     56 H           6.8524  -10.7071    7.6749 H         1 MP7363      0.0000 
     57 H           5.4657  -11.1683    9.6279 H         1 MP7363      0.0000 
     58 H           4.9343   -9.3915   11.1893 H         1 MP7363      0.0000 
     59 H           5.9329   -7.1811   10.9127 H         1 MP7363      0.0000 
     60 H           7.5620   -5.3900    6.8797 H         1 MP7363      0.0000 
@<TRIPOS>BOND
     1    5    1 2    
     2    8    1 1    
     3   37    1 1    
     4   14    2 1    
     5    7    3 1    
     6    8    3 am   
     7    9    3 1    
     8    8    4 2    
     9    6    5 1    
    10   39    5 1    
    11    7    6 2    
    12   40    6 1    
    13   41    7 1    
    14   10    9 1    
    15   42    9 1    
    16   43    9 1    
    17   11   10 ar   
    18   15   10 ar   
    19   12   11 ar   
    20   44   11 1    
    21   13   12 ar   
    22   45   12 1    
    23   14   13 ar   
    24   16   13 1    
    25   15   14 ar   
    26   46   15 1    
    27   18   17 ar   
    28   22   17 ar   
    29   23   17 1    
    30   19   18 ar   
    31   24   18 1    
    32   20   19 ar   
    33   47   19 1    
    34   21   20 ar   
    35   25   20 1    
    36   22   21 ar   
    37   48   21 1    
    38   49   22 1    
    39   34   23 am   
    40   50   23 1    
    41   34   24 am   
    42   51   24 1    
    43   26   25 1    
    44   27   26 1    
    45   52   26 1    
    46   53   26 1    
    47   28   27 1    
    48   36   27 1    
    49   54   27 1    
    50   29   28 ar   
    51   33   28 ar   
    52   30   29 ar   
    53   55   29 1    
    54   31   30 ar   
    55   56   30 1    
    56   32   31 ar   
    57   57   31 1    
    58   33   32 ar   
    59   58   32 1    
    60   59   33 1    
    61   35   34 2    
    62   37   36 am   
    63   60   36 1    
    64   38   37 2    
@<TRIPOS>SUBSTRUCTURE
     1 MP7363      1 GROUP   
@<TRIPOS>SET

