#    Name: 1a80_NDP_1_INTS_M
#    Modification time : Mon Mar 24 18:03:52 2014

@<TRIPOS>MOLECULE
1a80_NDP_1_INTS_M
  111     0    12     0     0
SMALL
NO_CHARGES


@<TRIPOS>ATOM
      1 N          10.0625   -3.7790   13.6695 N.am      2 SEC2        0.0000 
      2 N          11.1300   -2.9520   14.3830 N.am     10 SEL2        0.0000 
      3 N           8.9950   -4.6060   12.9560 N.am      6 SEP2        0.0000 
      4 N          12.0180   -4.1485   14.6240 N.am      2 SEC2        0.0000 
      5 N          12.9060   -5.3450   14.8650 N.am      6 SEP2        0.0000 
      6 N          10.5315    1.0410   13.4265 N.am      2 SEC2        0.0000 
      7 N          10.5660   -0.5450   13.8290 N.am     10 SEL2        0.0000 
      8 N          10.4970    2.6270   13.0240 N.am      6 SEP2        0.0000 
      9 CA         12.9700    1.5465   13.8275 C.3       4 GLC5        0.0000 
     10 CA         13.7070   -0.3960   13.2060 C.3      12 GLL5        0.0000 
     11 CA         12.2330    3.4890   14.4490 C.3       8 GLP5        0.0000 
     12 CA         15.3450    1.9875   13.0620 C.3       4 GLC5        0.0000 
     13 CA         15.9830    0.1780   12.1140 C.3      12 GLL5        0.0000 
     14 CA         14.7070    3.7970   14.0100 C.3       8 GLP5        0.0000 
     15 CA         14.7915    2.6365   10.5375 C.3       4 GLC5        0.0000 
     16 CA         15.6210    0.7400   10.7390 C.3      12 GLL5        0.0000 
     17 CA         13.9620    4.5330   10.3360 C.3       8 GLP5        0.0000 
     18 N          17.0440    0.8630    8.4270 N.am      2 SEC2        0.0000 
     19 N          16.7860    1.0890   10.0370 N.am     10 SEL2        0.0000 
     20 N          17.3020    0.6370    6.8170 N.am      6 SEP2        0.0000 
     21 N          10.8405    1.3010    7.8370 N.am      2 SEC2        0.0000 
     22 N          11.9830    0.5860    8.1370 N.am     10 SEL2        0.0000 
     23 N           9.6980    2.0160    7.5370 N.am      6 SEP2        0.0000 
     24 CA         11.2165   -1.9150    5.5235 C.3       4 GLC5        0.0000 
     25 CA         12.5380   -0.7650    6.0560 C.3      12 GLL5        0.0000 
     26 CA          9.8950   -3.0650    4.9910 C.3       8 GLP5        0.0000 
     27 O          10.8620   -0.7245    3.7815 O.2       1 ALC1        0.0000 
     28 O          11.4860   -0.4500    5.2840 O.2       9 ALL1        0.0000 
     29 O          10.2380   -0.9990    2.2790 O.2       5 ALP1        0.0000 
     30 O          10.3115    0.2815    5.4260 O.2       1 ALC1        0.0000 
     31 O           9.1370    1.0130    5.5680 O.2       5 ALP1        0.0000 
     32 CA         14.7975    0.0595    5.9780 C.3       4 GLC5        0.0000 
     33 CA         14.5380   -1.9090    6.3430 C.3      12 GLL5        0.0000 
     34 CA         15.0570    2.0280    5.6130 C.3       8 GLP5        0.0000 
     35 N          12.8000   -1.9680   18.9690 N.am      2 SEC2        0.0000 
     36 N          12.5890   -0.8940   18.1240 N.am     10 SEL2        0.0000 
     37 N          13.0110   -3.0420   19.8140 N.am      6 SEP2        0.0000 
     38 N           9.5770   -1.5770   17.4850 N.am      2 SEC2        0.0000 
     39 N          10.4660   -0.3510   17.0890 N.am     10 SEL2        0.0000 
     40 N           8.6880   -2.8030   17.8810 N.am      6 SEP2        0.0000 
     41 CA          9.6365   -1.4625   16.9365 C.3       4 GLC5        0.0000 
     42 CA          9.6560    0.7460   16.6760 C.3      12 GLL5        0.0000 
     43 CA          9.6170   -3.6710   17.1970 C.3       8 GLP5        0.0000 
     44 CA          8.8785   -0.7700   15.9370 C.3       4 GLC5        0.0000 
     45 CA          8.1010   -2.2860   15.1980 C.3       8 GLP5        0.0000 
     46 CA          8.9925    1.2870   14.6925 C.3       4 GLC5        0.0000 
     47 CA          8.3290    1.8280   12.7090 C.3       8 GLP5        0.0000 
     48 CA         10.9445    2.1175   15.5625 C.3       4 GLC5        0.0000 
     49 CA          7.3835    2.4650   17.7500 C.3       4 GLC5        0.0000 
     50 CA          9.3320    1.7420   17.7960 C.3      12 GLL5        0.0000 
     51 CA          5.4350    3.1880   17.7040 C.3       8 GLP5        0.0000 
     52 N          11.9705    4.5045   18.4050 N.am      2 SEC2        0.0000 
     53 N          11.1150    3.3520   17.7990 N.am     10 SEL2        0.0000 
     54 N          12.8260    5.6570   19.0110 N.am      6 SEP2        0.0000 
     55 CA         10.4425    3.8340   21.5230 C.3       4 GLC5        0.0000 
     56 CA          9.7060    2.9650   19.7330 C.3      12 GLL5        0.0000 
     57 CA         11.1790    4.7030   23.3130 C.3       8 GLP5        0.0000 
     58 O           7.9210    4.5375   20.2625 O.2       1 ALC1        0.0000 
     59 O           9.0340    4.1460   19.3690 O.2       9 ALL1        0.0000 
     60 O           6.8080    4.9290   21.1560 O.2       5 ALP1        0.0000 
     61 CA          7.9140    0.0955   20.2225 C.3       4 GLC5        0.0000 
     62 CA          8.6920    1.8680   20.0390 C.3      12 GLL5        0.0000 
     63 CA          7.1360   -1.6770   20.4060 C.3       8 GLP5        0.0000 
     64 CA          6.8670    2.2055   19.4585 C.3       4 GLC5        0.0000 
     65 CA          5.0420    2.5430   18.8780 C.3       8 GLP5        0.0000 
     66 CA          7.5690    2.3685   23.4160 C.3       4 GLC5        0.0000 
     67 CA          8.5420    0.8240   22.1460 C.3      12 GLL5        0.0000 
     68 CA          6.5960    3.9130   24.6860 C.3       8 GLP5        0.0000 
     69 N           9.2000    0.4740   26.2210 N.am      2 SEC2        0.0000 
     70 N           8.6610   -0.8670   25.3290 N.am     10 SEL2        0.0000 
     71 N           9.7390    1.8150   27.1130 N.am      6 SEP2        0.0000 
     72 N           8.1485   -1.7465   26.3445 N.am      2 SEC2        0.0000 
     73 N           7.6360   -2.6260   27.3600 N.am      6 SEP2        0.0000 
     74 O           6.2315    0.0785   25.6720 O.2       1 ALC1        0.0000 
     75 O           7.1390    0.6720   24.6420 O.2       9 ALL1        0.0000 
     76 O           5.3240   -0.5150   26.7020 O.2       5 ALP1        0.0000 
     77 O           6.5000    1.0695   23.5775 O.2       1 ALC1        0.0000 
     78 O           5.8610    1.4670   22.5130 O.2       5 ALP1        0.0000 
     79 CA         11.7575    1.9025   20.5045 C.3       4 GLC5        0.0000 
     80 CA         10.4230    0.2930   20.8770 C.3      12 GLL5        0.0000 
     81 CA         13.0920    3.5120   20.1320 C.3       8 GLP5        0.0000 
     82 NZ         16.8440    1.6950    7.5675 N.4       3 LYC4        0.0000 
     83 NZ         16.3860    2.7530    8.3180 N.4      11 LYL4        0.0000 
     84 NZ         16.9580    0.4260    5.5510 N.4       7 LYP4        0.0000 
     85 N          15.4725    3.4540    8.1970 N.am      2 SEC2        0.0000 
     86 N          16.3860    2.7530    8.3180 N.am     10 SEL2        0.0000 
     87 N          14.5590    4.1550    8.0760 N.am      6 SEP2        0.0000 
     88 N          16.8440    1.6950    7.5675 N.am      2 SEC2        0.0000 
     89 NZ         19.3605    2.4650    8.1455 N.4       3 LYC4        0.0000 
     90 NZ         18.4920    2.7120    9.5990 N.4      11 LYL4        0.0000 
     91 NZ         20.2290    2.2180    6.6920 N.4       7 LYP4        0.0000 
     92 NZ         16.8080    3.8095   12.0845 N.4       3 LYC4        0.0000 
     93 NZ         16.5040    3.4320   10.6530 N.4      11 LYL4        0.0000 
     94 NZ         17.1120    4.1870   13.5160 N.4       7 LYP4        0.0000 
     95 N          16.8080    3.8095   12.0845 N.am      2 SEC2        0.0000 
     96 N          16.5040    3.4320   10.6530 N.am     10 SEL2        0.0000 
     97 N          17.1120    4.1870   13.5160 N.am      6 SEP2        0.0000 
     98 N          15.5315    3.7935    9.3645 N.am      2 SEC2        0.0000 
     99 N          16.2030    4.6905   10.3610 N.am      2 SEC2        0.0000 
    100 N          15.9020    5.9490   10.0690 N.am      6 SEP2        0.0000 
    101 CA         11.7015   -1.1970    8.6970 C.3       4 GLC5        0.0000 
    102 CA         13.8800   -0.6610    8.0190 C.3      12 GLL5        0.0000 
    103 CA         10.1000   -1.9280    9.7050 C.3       8 GLP5        0.0000 
    104 CA         14.1565    0.7192    6.4881 C.3       4 GLC5        0.0000 
    105 CA         12.7260   -0.2710    7.3590 C.3      12 GLL5        0.0000 
    106 CA         11.5935    3.0848   19.6423 C.3       4 GLC5        0.0000 
    107 CA         10.4840    2.3500   18.5720 C.3      12 GLL5        0.0000 
    108 CA          9.3660    4.2073   17.7597 C.3       4 GLC5        0.0000 
    109 CA          8.9250    5.9090   16.5610 C.3       8 GLP5        0.0000 
    110 CA          7.9550   -0.6150   21.5412 C.3       4 GLC5        0.0000 
    111 CA          8.8225   -0.9025   21.0494 C.3       4 GLC5        0.0000 
@<TRIPOS>BOND
@<TRIPOS>SUBSTRUCTURE
     1 ALC1       27 GROUP        1 X    ALC  0     ROOT ALC X 1
     2 SEC2        1 GROUP        1 X    SEC  0     **** SEC X 2
     3 LYC4       82 GROUP        1 X    LYC  0     **** LYC X 4
     4 GLC5        9 GROUP        1 X    GLC  0     **** GLC X 6
     5 ALP1       29 GROUP        1 Y    ALP  0     ROOT ALP Y 8
     6 SEP2        3 GROUP        1 Y    SEP  0     **** SEP Y 9
     7 LYP4       84 GROUP        1 Y    LYP  0     **** LYP Y 11
     8 GLP5       11 GROUP        1 Y    GLP  0     **** GLP Y 13
     9 ALL1       28 GROUP        1 Z    ALL  0     ROOT ALL Z 15
    10 SEL2        2 GROUP        1 Z    SEL  0     **** SEL Z 16
    11 LYL4       83 GROUP        1 Z    LYL  0     **** LYL Z 18
    12 GLL5       10 GROUP        1 Z    GLL  0     **** GLL Z 20
@<TRIPOS>SET

