#    Name: 1a80_NDP_1_ligand
#    Modification time : Mon Mar 24 18:03:52 2014

@<TRIPOS>MOLECULE
1a80_NDP_1_ligand
   74    78     1     0     0
SMALL
NO_CHARGES


@<TRIPOS>ATOM
      1 PA         11.5770   -1.5380   14.3260 P.3       1 NDP300      0.0000 
      2 O1A        11.1300   -2.9520   14.3830 O.co2     1 NDP300      0.0000 
      3 O2A        10.5660   -0.5450   13.8290 O.co2     1 NDP300      0.0000 
      4 O5B        12.8200   -1.5180   13.4770 O.3       1 NDP300      0.0000 
      5 C5B        13.7070   -0.3960   13.2060 C.3       1 NDP300      0.0000 
      6 C4B        14.9140   -0.8630   12.3750 C.3       1 NDP300      0.0000 
      7 O4B        14.5130   -1.3250   11.0660 O.3       1 NDP300      0.0000 
      8 C3B        15.9830    0.1780   12.1140 C.3       1 NDP300      0.0000 
      9 O3B        17.2470   -0.4500   12.0740 O.3       1 NDP300      0.0000 
     10 C2B        15.6210    0.7400   10.7390 C.3       1 NDP300      0.0000 
     11 O2B        16.7860    1.0890   10.0370 O.3       1 NDP300      0.0000 
     12 C1B        14.9800   -0.4430   10.0460 C.3       1 NDP300      0.0000 
     13 N9A        13.8360   -0.0530    9.2350 N.pl3     1 NDP300      0.0000 
     14 C8A        12.6870    0.6780    9.2360 C.2       1 NDP300      0.0000 
     15 N7A        11.9830    0.5860    8.1370 N.2       1 NDP300      0.0000 
     16 C5A        12.7260   -0.2710    7.3590 C.ar      1 NDP300      0.0000 
     17 C6A        12.5380   -0.7650    6.0560 C.ar      1 NDP300      0.0000 
     18 N6A        11.4860   -0.4500    5.2840 N.pl3     1 NDP300      0.0000 
     19 N1A        13.4840   -1.5970    5.5750 N.ar      1 NDP300      0.0000 
     20 C2A        14.5380   -1.9090    6.3430 C.ar      1 NDP300      0.0000 
     21 N3A        14.8300   -1.4930    7.5720 N.ar      1 NDP300      0.0000 
     22 C4A        13.8800   -0.6610    8.0190 C.ar      1 NDP300      0.0000 
     23 O3         12.1710   -1.5010   15.7360 O.3       1 NDP300      0.0000 
     24 PN         11.9540   -0.3230   16.8890 P.3       1 NDP300      0.0000 
     25 O1N        12.5890   -0.8940   18.1240 O.co2     1 NDP300      0.0000 
     26 O2N        12.3580    1.0630   16.5320 O.co2     1 NDP300      0.0000 
     27 O5D        10.4660   -0.3510   17.0890 O.3       1 NDP300      0.0000 
     28 C5D         9.6560    0.7460   16.6760 C.3       1 NDP300      0.0000 
     29 C4D         9.3320    1.7420   17.7960 C.3       1 NDP300      0.0000 
     30 O4D         8.4680    1.1710   18.8240 O.3       1 NDP300      0.0000 
     31 C3D        10.4840    2.3500   18.5720 C.3       1 NDP300      0.0000 
     32 O3D        11.1150    3.3520   17.7990 O.3       1 NDP300      0.0000 
     33 C2D         9.7060    2.9650   19.7330 C.3       1 NDP300      0.0000 
     34 O2D         9.0340    4.1460   19.3690 O.3       1 NDP300      0.0000 
     35 C1D         8.6920    1.8680   20.0390 C.3       1 NDP300      0.0000 
     36 N1N         9.2350    0.9230   20.9860 N.pl3     1 NDP300      0.0000 
     37 C2N         8.5420    0.8240   22.1460 C.2       1 NDP300      0.0000 
     38 C3N         9.0060    0.0700   23.2070 C.2       1 NDP300      0.0000 
     39 C7N         8.2390   -0.0750   24.5050 C.2       1 NDP300      0.0000 
     40 O7N         8.6610   -0.8670   25.3290 O.2       1 NDP300      0.0000 
     41 N7N         7.1390    0.6720   24.6420 N.am      1 NDP300      0.0000 
     42 C4N        10.2260   -0.6050   23.1090 C.3       1 NDP300      0.0000 
     43 C5N        10.9640   -0.4930   21.9080 C.2       1 NDP300      0.0000 
     44 C6N        10.4230    0.2930   20.8770 C.2       1 NDP300      0.0000 
     45 P2B        17.0280    2.4930    9.6360 P.3       1 NDP300      0.0000 
     46 O1X        16.3860    2.7530    8.3180 O.co2     1 NDP300      0.0000 
     47 O2X        18.4920    2.7120    9.5990 O.co2     1 NDP300      0.0000 
     48 O3X        16.5040    3.4320   10.6530 O.co2     1 NDP300      0.0000 
     49 H          14.0862    0.0418   14.1333 H         1 NDP300      0.0000 
     50 H          13.1934    0.3875   12.6423 H         1 NDP300      0.0000 
     51 H          15.3942   -1.6998   12.9027 H         1 NDP300      0.0000 
     52 H          15.8971    0.9435   12.8274 H         1 NDP300      0.0000 
     53 H          14.9193    1.4984   10.8499 H         1 NDP300      0.0000 
     54 H          15.7230   -0.9313    9.4446 H         1 NDP300      0.0000 
     55 H          12.4234    1.2381   10.0353 H         1 NDP300      0.0000 
     56 H          11.4750   -0.8537    4.3692 H         1 NDP300      0.0000 
     57 H          10.8073    0.1602    5.6927 H         1 NDP300      0.0000 
     58 H          15.2642   -2.6112    5.8868 H         1 NDP300      0.0000 
     59 H           8.6840    0.3979   16.2561 H         1 NDP300      0.0000 
     60 H          10.1412    1.3229   15.8551 H         1 NDP300      0.0000 
     61 H           8.7699    2.5962   17.3473 H         1 NDP300      0.0000 
     62 H          11.0893    1.5934   18.9326 H         1 NDP300      0.0000 
     63 H          10.3510    3.0506   20.5614 H         1 NDP300      0.0000 
     64 H           7.8019    2.3168   20.3986 H         1 NDP300      0.0000 
     65 H           7.6297    1.3276   22.2529 H         1 NDP300      0.0000 
     66 H           6.6343    0.5593   25.4979 H         1 NDP300      0.0000 
     67 H           6.9195    1.2765   23.8763 H         1 NDP300      0.0000 
     68 H          10.0637   -1.7190   23.3388 H         1 NDP300      0.0000 
     69 H          10.9017   -0.2983   23.9862 H         1 NDP300      0.0000 
     70 H          11.8476   -0.9628   21.7996 H         1 NDP300      0.0000 
     71 H          10.9858    0.3795   19.9920 H         1 NDP300      0.0000 
     72 H          17.6850   -0.0974   11.2470 H         1 NDP300      0.0000 
     73 H          11.6761    2.8538   17.1379 H         1 NDP300      0.0000 
     74 H           8.3117    4.2537   20.0521 H         1 NDP300      0.0000 
@<TRIPOS>BOND
     1    2    1 ar   
     2    3    1 ar   
     3    4    1 1    
     4   23    1 1    
     5    5    4 1    
     6    6    5 1    
     7   49    5 1    
     8   50    5 1    
     9    7    6 1    
    10    8    6 1    
    11   51    6 1    
    12   12    7 1    
    13    9    8 1    
    14   10    8 1    
    15   52    8 1    
    16   72    9 1    
    17   11   10 1    
    18   12   10 1    
    19   53   10 1    
    20   45   11 1    
    21   13   12 1    
    22   54   12 1    
    23   14   13 1    
    24   22   13 1    
    25   15   14 2    
    26   55   14 1    
    27   16   15 1    
    28   17   16 ar   
    29   22   16 ar   
    30   18   17 1    
    31   19   17 ar   
    32   56   18 1    
    33   57   18 1    
    34   20   19 ar   
    35   21   20 ar   
    36   58   20 1    
    37   22   21 ar   
    38   24   23 1    
    39   25   24 ar   
    40   26   24 ar   
    41   27   24 1    
    42   28   27 1    
    43   29   28 1    
    44   59   28 1    
    45   60   28 1    
    46   30   29 1    
    47   31   29 1    
    48   61   29 1    
    49   35   30 1    
    50   32   31 1    
    51   33   31 1    
    52   62   31 1    
    53   73   32 1    
    54   34   33 1    
    55   35   33 1    
    56   63   33 1    
    57   74   34 1    
    58   36   35 1    
    59   64   35 1    
    60   37   36 1    
    61   44   36 1    
    62   38   37 2    
    63   65   37 1    
    64   39   38 1    
    65   42   38 1    
    66   40   39 2    
    67   41   39 am   
    68   66   41 1    
    69   67   41 1    
    70   43   42 1    
    71   68   42 1    
    72   69   42 1    
    73   44   43 2    
    74   70   43 1    
    75   71   44 1    
    76   46   45 ar   
    77   47   45 ar   
    78   48   45 ar   
@<TRIPOS>SUBSTRUCTURE
     1 NDP300      1 GROUP   
@<TRIPOS>SET

