#    Name: 4joo_1M4_1_INTS_M
#    Modification time : Tue Mar 25 06:10:32 2014

@<TRIPOS>MOLECULE
4joo_1M4_1_INTS_M
   46     0     9     0     0
SMALL
NO_CHARGES


@<TRIPOS>ATOM
      1 CA         25.4600   10.3090    8.4895 C.3       3 GLC5        0.0000 
      2 CA         23.6850   11.6130    8.1110 C.3       9 GLL5        0.0000 
      3 CA         27.2350    9.0050    8.8680 C.3       6 GLP5        0.0000 
      4 OD1        21.9230   15.0130   11.1450 O.co2     2 ASC3        0.0000 
      5 OD1        22.2650   15.8240    9.3570 O.co2     8 ASL3        0.0000 
      6 OD1        21.5710   15.4680   12.8410 O.co2     5 ASP3        0.0000 
      7 OD1        22.3550   13.5780   12.0350 O.co2     5 ASP3        0.0000 
      8 OD1        20.8395   17.6710   10.1795 O.co2     2 ASC3        0.0000 
      9 OD1        20.1880   18.8940   10.1040 O.co2     5 ASP3        0.0000 
     10 O          22.5625   14.0875   10.7915 O.2       1 ALC1        0.0000 
     11 O          22.7700   14.5970    9.5480 O.2       7 ALL1        0.0000 
     12 O          22.3550   13.5780   12.0350 O.2       4 ALP1        0.0000 
     13 O          21.5310   15.9580   11.5480 O.2       1 ALC1        0.0000 
     14 O          21.4910   16.4480   10.2550 O.2       7 ALL1        0.0000 
     15 O          21.5710   15.4680   12.8410 O.2       4 ALP1        0.0000 
     16 O          21.9230   15.0130   11.1450 O.2       1 ALC1        0.0000 
     17 O          20.8395   17.6710   10.1795 O.2       1 ALC1        0.0000 
     18 O          20.1880   18.8940   10.1040 O.2       4 ALP1        0.0000 
     19 CA         22.3285   19.6660    8.5705 C.3       3 GLC5        0.0000 
     20 CA         22.2500   17.6520    7.5800 C.3       9 GLL5        0.0000 
     21 CA         22.4070   21.6800    9.5610 C.3       6 GLP5        0.0000 
     22 CA         27.3970   15.3535   11.8810 C.3       3 GLC5        0.0000 
     23 CA         28.0570   16.4980   10.4030 C.3       9 GLL5        0.0000 
     24 CA         26.7370   14.2090   13.3590 C.3       6 GLP5        0.0000 
     25 CA         29.9675   16.4955    9.8990 C.3       3 GLC5        0.0000 
     26 CA         31.8780   16.4930    9.3950 C.3       6 GLP5        0.0000 
     27 CA         29.4275   15.0760   11.0955 C.3       3 GLC5        0.0000 
     28 CA         30.7980   13.6540   11.7880 C.3       6 GLP5        0.0000 
     29 CA         21.5905   11.3990   10.3810 C.3       3 GLC5        0.0000 
     30 CA         23.3730   11.2440    9.5880 C.3       9 GLL5        0.0000 
     31 CA         19.8080   11.5540   11.1740 C.3       6 GLP5        0.0000 
     32 CA         22.3145    8.6945    6.3160 C.3       3 GLC5        0.0000 
     33 CA         23.2330   10.4600    7.1940 C.3       9 GLL5        0.0000 
     34 CA         21.3960    6.9290    5.4380 C.3       6 GLP5        0.0000 
     35 CA         23.7515   10.2745    5.4645 C.3       3 GLC5        0.0000 
     36 CA         24.2700   10.0890    3.7350 C.3       6 GLP5        0.0000 
     37 CA         24.1705    8.7220    7.2505 C.3       3 GLC5        0.0000 
     38 CA         25.1080    6.9840    7.3070 C.3       6 GLP5        0.0000 
     39 CA         25.9513   12.2447   10.0505 C.3       3 GLC5        0.0000 
     40 CA         25.7590   12.8500    8.4570 C.3       9 GLL5        0.0000 
     41 CA         26.4880   11.0360   11.5060 C.3       6 GLP5        0.0000 
     42 CA         26.8994   12.5990   10.4204 C.3       3 GLC5        0.0000 
     43 CA         27.1410   15.0340    9.6220 C.3       9 GLL5        0.0000 
     44 CA         26.6801   14.4977   11.3794 C.3       3 GLC5        0.0000 
     45 CA         27.8280   13.8320    9.3390 C.3       9 GLL5        0.0000 
     46 CA         25.0085   11.2323   10.1777 C.3       3 GLC5        0.0000 
@<TRIPOS>BOND
@<TRIPOS>SUBSTRUCTURE
     1 ALC1       10 GROUP        1 X    ALC  0     ROOT ALC X 1
     2 ASC3        4 GROUP        1 X    ASC  0     **** ASC X 3
     3 GLC5        1 GROUP        1 X    GLC  0     **** GLC X 6
     4 ALP1       12 GROUP        1 Y    ALP  0     ROOT ALP Y 8
     5 ASP3        6 GROUP        1 Y    ASP  0     **** ASP Y 10
     6 GLP5        3 GROUP        1 Y    GLP  0     **** GLP Y 13
     7 ALL1       11 GROUP        1 Z    ALL  0     ROOT ALL Z 15
     8 ASL3        5 GROUP        1 Z    ASL  0     **** ASL Z 17
     9 GLL5        2 GROUP        1 Z    GLL  0     **** GLL Z 20
@<TRIPOS>SET

