#    Name: 4joo_1M4_1_ligand
#    Modification time : Tue Mar 25 06:10:32 2014

@<TRIPOS>MOLECULE
4joo_1M4_1_ligand
   37    39     1     0     0
SMALL
NO_CHARGES


@<TRIPOS>ATOM
      1 C1         25.0700   14.0570    8.7330 C.ar      1 1M4503      0.0000 
      2 C2         25.7590   12.8500    8.4570 C.ar      1 1M4503      0.0000 
      3 C3         27.1330   12.7480    8.7560 C.ar      1 1M4503      0.0000 
      4 C4         27.8280   13.8320    9.3390 C.ar      1 1M4503      0.0000 
      5 C5         27.1410   15.0340    9.6220 C.ar      1 1M4503      0.0000 
      6 C6         25.7620   15.1400    9.3190 C.ar      1 1M4503      0.0000 
      7 C7         23.5820   14.1840    8.3890 C.3       1 1M4503      0.0000 
      8 C8         22.9810   12.9320    7.7120 C.3       1 1M4503      0.0000 
      9 C9         23.6850   11.6130    8.1110 C.3       1 1M4503      0.0000 
     10 O10        25.0890   11.7810    7.8950 O.3       1 1M4503      0.0000 
     11 C11        23.4210   15.4070    7.4710 C.2       1 1M4503      0.0000 
     12 N12        22.6260   16.3370    8.1220 N.am      1 1M4503      0.0000 
     13 C13        22.2650   15.8240    9.3570 C.cat     1 1M4503      0.0000 
     14 N14        22.7700   14.5970    9.5480 N.pl3     1 1M4503      0.0000 
     15 O15        23.9210   15.5760    6.3590 O.2       1 1M4503      0.0000 
     16 N16        21.4910   16.4480   10.2550 N.pl3     1 1M4503      0.0000 
     17 C17        22.2500   17.6520    7.5800 C.3       1 1M4503      0.0000 
     18 BR1        28.0570   16.4980   10.4030 Br        1 1M4503      0.0000 
     19 C18        23.3730   11.2440    9.5880 C.3       1 1M4503      0.0000 
     20 C19        23.2330   10.4600    7.1940 C.3       1 1M4503      0.0000 
     21 H          27.6358   11.8774    8.5486 H         1 1M4503      0.0000 
     22 H          28.8201   13.7469    9.5542 H         1 1M4503      0.0000 
     23 H          25.2632   16.0103    9.5271 H         1 1M4503      0.0000 
     24 H          23.0458   13.0516    6.6236 H         1 1M4503      0.0000 
     25 H          21.9193   12.8600    7.9779 H         1 1M4503      0.0000 
     26 H          22.6619   14.0136   10.3024 H         1 1M4503      0.0000 
     27 H          21.1575   17.3540    9.9944 H         1 1M4503      0.0000 
     28 H          21.3161   15.9519   11.1054 H         1 1M4503      0.0000 
     29 H          23.0516   18.2210    7.3965 H         1 1M4503      0.0000 
     30 H          21.7463   17.5691    6.7201 H         1 1M4503      0.0000 
     31 H          21.6674   18.1618    8.2130 H         1 1M4503      0.0000 
     32 H          23.8195   10.3916    9.8601 H         1 1M4503      0.0000 
     33 H          23.6836   11.9527   10.2214 H         1 1M4503      0.0000 
     34 H          22.3923   11.1231    9.7414 H         1 1M4503      0.0000 
     35 H          23.4450   10.6439    6.2342 H         1 1M4503      0.0000 
     36 H          23.6803    9.5981    7.4331 H         1 1M4503      0.0000 
     37 H          22.2469   10.3043    7.2517 H         1 1M4503      0.0000 
@<TRIPOS>BOND
     1    2    1 ar   
     2    6    1 ar   
     3    7    1 1    
     4    3    2 ar   
     5   10    2 1    
     6    4    3 ar   
     7   21    3 1    
     8    5    4 ar   
     9   22    4 1    
    10    6    5 ar   
    11   18    5 1    
    12   23    6 1    
    13    8    7 1    
    14   11    7 1    
    15   14    7 1    
    16    9    8 1    
    17   24    8 1    
    18   25    8 1    
    19   10    9 1    
    20   19    9 1    
    21   20    9 1    
    22   12   11 am   
    23   15   11 2    
    24   13   12 1    
    25   17   12 1    
    26   14   13 ar   
    27   16   13 ar   
    28   26   14 1    
    29   27   16 1    
    30   28   16 1    
    31   29   17 1    
    32   30   17 1    
    33   31   17 1    
    34   32   19 1    
    35   33   19 1    
    36   34   19 1    
    37   35   20 1    
    38   36   20 1    
    39   37   20 1    
@<TRIPOS>SUBSTRUCTURE
     1 1M4503      1 GROUP   
@<TRIPOS>SET

