#    Name: 4i9h_1E4_3_INTS_M
#    Modification time : Tue Mar 25 02:38:43 2014

@<TRIPOS>MOLECULE
4i9h_1E4_3_INTS_M
  105     0    12     0     0
SMALL
NO_CHARGES


@<TRIPOS>ATOM
      1 CA         21.5995   41.2480   48.7410 C.3       4 GLC5        0.0000 
      2 CA         20.2200   40.0550   49.5390 C.3      12 GLL5        0.0000 
      3 CA         22.9790   42.4410   47.9430 C.3       8 GLP5        0.0000 
      4 CA         18.9965   39.4380   52.5240 C.3       4 GLC5        0.0000 
      5 CA         20.8300   39.1970   51.7640 C.3      12 GLL5        0.0000 
      6 CA         17.1630   39.6790   53.2840 C.3       8 GLP5        0.0000 
      7 CA         21.5245   32.5640   47.3050 C.3       4 GLC5        0.0000 
      8 CA         21.8040   34.7100   47.7690 C.3      12 GLL5        0.0000 
      9 CA         21.2450   30.4180   46.8410 C.3       8 GLP5        0.0000 
     10 CA         25.9325   31.7805   44.5135 C.3       4 GLC5        0.0000 
     11 CA         24.5180   33.4540   44.5900 C.3      12 GLL5        0.0000 
     12 CA         27.3470   30.1070   44.4370 C.3       8 GLP5        0.0000 
     13 CA         30.4485   33.5630   48.0130 C.3       4 GLC5        0.0000 
     14 CA         28.9970   34.1670   47.1910 C.3      12 GLL5        0.0000 
     15 CA         31.9000   32.9590   48.8350 C.3       8 GLP5        0.0000 
     16 CA         30.1775   29.2360   39.9930 C.3       4 GLC5        0.0000 
     17 CA         30.7190   31.1470   40.9170 C.3      12 GLL5        0.0000 
     18 CA         29.6360   27.3250   39.0690 C.3       8 GLP5        0.0000 
     19 CA         21.6200   32.2830   46.0080 C.3       4 GLC5        0.0000 
     20 CA         21.9950   34.1480   45.1750 C.3      12 GLL5        0.0000 
     21 CA         22.8415   36.4890   53.5345 C.3       4 GLC5        0.0000 
     22 CA         21.3600   36.7270   52.4540 C.3      12 GLL5        0.0000 
     23 CA         24.3230   36.2510   54.6150 C.3       8 GLP5        0.0000 
     24 CA         22.0315   35.0555   51.9935 C.3       4 GLC5        0.0000 
     25 CA         22.7030   33.3840   51.5330 C.3       8 GLP5        0.0000 
     26 CA         20.0150   35.8680   53.1985 C.3       4 GLC5        0.0000 
     27 CA         18.6700   35.0090   53.9430 C.3       8 GLP5        0.0000 
     28 CA         22.8645   37.2845   51.5795 C.3       4 GLC5        0.0000 
     29 CA         24.3690   37.8420   50.7050 C.3       8 GLP5        0.0000 
     30 CA         21.2880   41.6825   47.6505 C.3       4 GLC5        0.0000 
     31 CA         19.5970   40.9240   47.3580 C.3      12 GLL5        0.0000 
     32 CA         18.0505   41.3965   52.9560 C.3       4 GLC5        0.0000 
     33 CA         18.9380   43.1140   52.6280 C.3      12 GLL5        0.0000 
     34 CA         19.7750   43.1995   54.3330 C.3       4 GLC5        0.0000 
     35 CA         20.6120   43.2850   56.0380 C.3       8 GLP5        0.0000 
     36 CA         21.9120   44.5995   51.8365 C.3       4 GLC5        0.0000 
     37 CA         19.9270   44.6300   52.6010 C.3      12 GLL5        0.0000 
     38 CA         23.8970   44.5690   51.0720 C.3       8 GLP5        0.0000 
     39 CA         20.9020   44.9975   54.0195 C.3       4 GLC5        0.0000 
     40 CA         21.8770   45.3650   55.4380 C.3       8 GLP5        0.0000 
     41 NZ         19.4655   45.0700   44.5785 N.4       3 LYC4        0.0000 
     42 NZ         19.1110   44.9010   45.9710 N.4      11 LYL4        0.0000 
     43 NZ         20.7720   46.0090   42.6760 N.4       7 LYP4        0.0000 
     44 N          19.4655   45.0700   44.5785 N.am      2 SEC2        0.0000 
     45 N          19.1110   44.9010   45.9710 N.am     10 SEL2        0.0000 
     46 N          19.8200   45.2390   43.1860 N.am      6 SEP2        0.0000 
     47 NZ         33.4140   28.4070   39.1310 N.4       3 LYC4        0.0000 
     48 NZ         32.6950   29.6070   39.5530 N.4      11 LYL4        0.0000 
     49 NZ         35.4490   27.3250   38.5410 N.4       7 LYP4        0.0000 
     50 N          33.4140   28.4070   39.1310 N.am      2 SEC2        0.0000 
     51 N          32.6950   29.6070   39.5530 N.am     10 SEL2        0.0000 
     52 N          34.1330   27.2070   38.7090 N.am      6 SEP2        0.0000 
     53 N          31.4570   28.8745   39.8210 N.am      2 SEC2        0.0000 
     54 N          30.2190   28.1420   40.0890 N.am      6 SEP2        0.0000 
     55 NZ         20.7775   46.1770   44.3970 N.4       3 LYC4        0.0000 
     56 NZ         20.7830   46.3450   46.1180 N.4      11 LYL4        0.0000 
     57 N          35.1670   29.7550   39.4665 N.am      2 SEC2        0.0000 
     58 N          34.2850   31.0390   40.0900 N.am     10 SEL2        0.0000 
     59 N          36.0490   28.4710   38.8430 N.am      6 SEP2        0.0000 
     60 O          19.9785   33.9725   49.3655 O.2       1 ALC1        0.0000 
     61 O          20.5170   34.1270   47.9410 O.2       9 ALL1        0.0000 
     62 O          19.4400   33.8180   50.7900 O.2       5 ALP1        0.0000 
     63 O          24.6380   35.4205   47.1505 O.2       1 ALC1        0.0000 
     64 O          23.3030   35.9170   46.1800 O.2       9 ALL1        0.0000 
     65 O          25.9730   34.9240   48.1210 O.2       5 ALP1        0.0000 
     66 CA         18.5312   39.4098   50.6478 C.3       4 GLC5        0.0000 
     67 CA         16.7150   38.6490   51.0640 C.3       8 GLP5        0.0000 
     68 CA         22.1867   40.9083   51.1365 C.3       4 GLC5        0.0000 
     69 CA         20.4750   40.2860   50.9240 C.3      12 GLL5        0.0000 
     70 CA         23.7210   42.0750   50.9290 C.3       8 GLP5        0.0000 
     71 CA         22.3708   39.7638   52.4460 C.3       4 GLC5        0.0000 
     72 CA         24.0890   39.7860   53.5480 C.3       8 GLP5        0.0000 
     73 CA         22.4305   38.0102   50.0763 C.3       4 GLC5        0.0000 
     74 CA         20.3160   38.7260   49.0350 C.3      12 GLL5        0.0000 
     75 CA         18.7102   38.3429   50.7071 C.3       4 GLC5        0.0000 
     76 CA         20.6680   37.6310   49.8600 C.3      12 GLL5        0.0000 
     77 CA         22.6217   38.1940   51.1067 C.3       4 GLC5        0.0000 
     78 CA         20.9190   37.8950   51.2530 C.3      12 GLL5        0.0000 
     79 CA         22.6142   38.5485   52.7007 C.3       4 GLC5        0.0000 
     80 CA         22.2852   34.3315   49.9090 C.3       4 GLC5        0.0000 
     81 CA         21.9310   35.8480   48.8010 C.3      12 GLL5        0.0000 
     82 CA         23.3807   36.1455   48.9170 C.3       4 GLC5        0.0000 
     83 CA         24.8940   37.0120   49.5490 C.3       8 GLP5        0.0000 
     84 CA         28.5478   31.4258   43.8820 C.3       4 GLC5        0.0000 
     85 CA         29.2180   33.0340   43.7670 C.3      12 GLL5        0.0000 
     86 CA         30.5495   32.8637   46.5495 C.3       4 GLC5        0.0000 
     87 CA         29.5570   33.3570   45.0820 C.3      12 GLL5        0.0000 
     88 CA         32.0110   32.1080   47.5810 C.3       8 GLP5        0.0000 
     89 CA         27.3416   31.9653   44.5634 C.3       4 GLC5        0.0000 
     90 CA         27.2900   34.1150   45.5740 C.3      12 GLL5        0.0000 
     91 CA         28.7097   31.9626   46.5392 C.3       4 GLC5        0.0000 
     92 CA         28.3770   30.0320   46.7240 C.3       8 GLP5        0.0000 
     93 CA         28.0119   34.1899   48.1553 C.3       4 GLC5        0.0000 
     94 CA         28.6190   33.8820   45.9540 C.3      12 GLL5        0.0000 
     95 CA         27.5480   34.2970   49.8330 C.3       8 GLP5        0.0000 
     96 CA         29.5115   35.4836   46.6842 C.3       4 GLC5        0.0000 
     97 CA         30.4300   36.9500   47.0000 C.3       8 GLP5        0.0000 
     98 CA         21.5635   44.5105   49.8178 C.3       4 GLC5        0.0000 
     99 CA         19.9070   44.9460   50.8600 C.3      12 GLL5        0.0000 
    100 CA         22.9030   43.5020   49.0240 C.3       8 GLP5        0.0000 
    101 CA         22.1035   47.4380   49.4580 C.3       4 GLC5        0.0000 
    102 CA         20.5410   46.0920   50.3630 C.3      12 GLL5        0.0000 
    103 CA         23.6800   48.6760   49.2530 C.3       8 GLP5        0.0000 
    104 CA         21.3115   44.2806   48.8249 C.3       4 GLC5        0.0000 
    105 CA         20.5130   46.3080   48.9630 C.3      12 GLL5        0.0000 
@<TRIPOS>BOND
@<TRIPOS>SUBSTRUCTURE
     1 ALC1       60 GROUP        1 X    ALC  0     ROOT ALC X 1
     2 SEC2       44 GROUP        1 X    SEC  0     **** SEC X 2
     3 LYC4       41 GROUP        1 X    LYC  0     **** LYC X 4
     4 GLC5        1 GROUP        1 X    GLC  0     **** GLC X 6
     5 ALP1       62 GROUP        1 Y    ALP  0     ROOT ALP Y 8
     6 SEP2       46 GROUP        1 Y    SEP  0     **** SEP Y 9
     7 LYP4       43 GROUP        1 Y    LYP  0     **** LYP Y 11
     8 GLP5        3 GROUP        1 Y    GLP  0     **** GLP Y 13
     9 ALL1       61 GROUP        1 Z    ALL  0     ROOT ALL Z 15
    10 SEL2       45 GROUP        1 Z    SEL  0     **** SEL Z 16
    11 LYL4       42 GROUP        1 Z    LYL  0     **** LYL Z 18
    12 GLL5        2 GROUP        1 Z    GLL  0     **** GLL Z 20
@<TRIPOS>SET

