#    Name: 4i9h_1E4_3_ligand
#    Modification time : Tue Mar 25 02:38:43 2014

@<TRIPOS>MOLECULE
4i9h_1E4_3_ligand
   80    83     1     0     0
SMALL
NO_CHARGES


@<TRIPOS>ATOM
      1 C1         20.4750   40.2860   50.9240 C.ar      1 1E4401      0.0000 
      2 C2         20.2200   40.0550   49.5390 C.ar      1 1E4401      0.0000 
      3 C3         20.3160   38.7260   49.0350 C.ar      1 1E4401      0.0000 
      4 C4         20.6680   37.6310   49.8600 C.ar      1 1E4401      0.0000 
      5 C5         20.9190   37.8950   51.2530 C.ar      1 1E4401      0.0000 
      6 C6         20.8300   39.1970   51.7640 C.ar      1 1E4401      0.0000 
      7 O9         20.6930   36.4370   49.1350 O.3       1 1E4401      0.0000 
      8 C10        21.9310   35.8480   48.8010 C.3       1 1E4401      0.0000 
      9 C11        21.8040   34.7100   47.7690 C.3       1 1E4401      0.0000 
     10 C14        22.0520   35.2270   46.3140 C.3       1 1E4401      0.0000 
     11 C15        23.1980   34.1540   44.1690 C.3       1 1E4401      0.0000 
     12 C16        24.5180   33.4540   44.5900 C.3       1 1E4401      0.0000 
     13 O17        25.5880   33.9960   43.7810 O.3       1 1E4401      0.0000 
     14 C20        26.8990   33.8010   44.2540 C.ar      1 1E4401      0.0000 
     15 C21        27.8660   33.2630   43.3570 C.ar      1 1E4401      0.0000 
     16 C22        29.2180   33.0340   43.7670 C.ar      1 1E4401      0.0000 
     17 C23        29.5570   33.3570   45.0820 C.ar      1 1E4401      0.0000 
     18 C24        28.6190   33.8820   45.9540 C.ar      1 1E4401      0.0000 
     19 C25        27.2900   34.1150   45.5740 C.ar      1 1E4401      0.0000 
     20 C29        30.2790   32.4550   42.8870 C.ar      1 1E4401      0.0000 
     21 F30        28.9970   34.1670   47.1910 F         1 1E4401      0.0000 
     22 C31        31.6630   32.5770   43.1050 C.ar      1 1E4401      0.0000 
     23 C32        32.5730   31.9700   42.2080 C.ar      1 1E4401      0.0000 
     24 C33        32.1090   31.2380   41.0900 C.ar      1 1E4401      0.0000 
     25 C34        30.7190   31.1470   40.9170 C.ar      1 1E4401      0.0000 
     26 N35        29.8580   31.7330   41.7860 N.ar      1 1E4401      0.0000 
     27 C39        33.0230   30.5840   40.1340 C.2       1 1E4401      0.0000 
     28 C40        21.9950   34.1480   45.1750 C.3       1 1E4401      0.0000 
     29 CL4        21.3600   36.7270   52.4540 Cl        1 1E4401      0.0000 
     30 O42        19.8720   41.1820   48.7410 O.3       1 1E4401      0.0000 
     31 C43        19.5970   40.9240   47.3580 C.3       1 1E4401      0.0000 
     32 N47        20.3870   41.5660   51.4360 N.am      1 1E4401      0.0000 
     33 C48        19.8000   41.8490   52.6380 C.2       1 1E4401      0.0000 
     34 C49        18.9380   43.1140   52.6280 C.3       1 1E4401      0.0000 
     35 O50        20.2060   41.3940   53.7060 O.2       1 1E4401      0.0000 
     36 S51        19.9270   44.6300   52.6010 S.3       1 1E4401      0.0000 
     37 C54        19.9070   44.9460   50.8600 C.ar      1 1E4401      0.0000 
     38 C55        20.5410   46.0920   50.3630 C.ar      1 1E4401      0.0000 
     39 C56        20.5130   46.3080   48.9630 C.ar      1 1E4401      0.0000 
     40 C57        19.8590   45.3830   48.1120 C.ar      1 1E4401      0.0000 
     41 C58        19.2540   44.2730   48.7140 C.ar      1 1E4401      0.0000 
     42 N59        19.2760   44.0570   50.0540 N.ar      1 1E4401      0.0000 
     43 C63        19.8190   45.5760   46.6500 C.2       1 1E4401      0.0000 
     44 O64        19.1110   44.9010   45.9710 O.co2     1 1E4401      0.0000 
     45 O65        32.6950   29.6070   39.5530 O.co2     1 1E4401      0.0000 
     46 O66        20.7830   46.3450   46.1180 O.co2     1 1E4401      0.0000 
     47 O67        34.2850   31.0390   40.0900 O.co2     1 1E4401      0.0000 
     48 O71        20.5170   34.1270   47.9410 O.3       1 1E4401      0.0000 
     49 O74        21.6750   32.9030   45.7460 O.3       1 1E4401      0.0000 
     50 O75        23.3030   35.9170   46.1800 O.3       1 1E4401      0.0000 
     51 O77        22.7090   33.4860   43.0260 O.3       1 1E4401      0.0000 
     52 H          20.1214   38.5598   48.0332 H         1 1E4401      0.0000 
     53 H          21.0224   39.3745   52.7575 H         1 1E4401      0.0000 
     54 H          22.4406   35.4187   49.6909 H         1 1E4401      0.0000 
     55 H          22.6425   36.5889   48.3757 H         1 1E4401      0.0000 
     56 H          22.5894   33.9885   47.9995 H         1 1E4401      0.0000 
     57 H          21.2304   35.9465   46.0807 H         1 1E4401      0.0000 
     58 H          23.4120   35.1870   43.9191 H         1 1E4401      0.0000 
     59 H          24.3902   32.3893   44.4308 H         1 1E4401      0.0000 
     60 H          24.6707   33.6487   45.6454 H         1 1E4401      0.0000 
     61 H          27.5902   33.0337   42.3956 H         1 1E4401      0.0000 
     62 H          30.5286   33.1992   45.4060 H         1 1E4401      0.0000 
     63 H          26.6204   34.5005   46.2293 H         1 1E4401      0.0000 
     64 H          32.0136   33.1013   43.9072 H         1 1E4401      0.0000 
     65 H          33.5820   32.0618   42.3703 H         1 1E4401      0.0000 
     66 H          30.3611   30.6131   40.0968 H         1 1E4401      0.0000 
     67 H          21.0867   34.4813   44.5475 H         1 1E4401      0.0000 
     68 H          20.7931   42.3574   50.8691 H         1 1E4401      0.0000 
     69 H          18.3510   43.2364   53.5169 H         1 1E4401      0.0000 
     70 H          18.3378   43.2134   51.7451 H         1 1E4401      0.0000 
     71 H          21.0032   46.7450   50.9740 H         1 1E4401      0.0000 
     72 H          20.9655   47.1327   48.5661 H         1 1E4401      0.0000 
     73 H          18.7648   43.5857   48.0841 H         1 1E4401      0.0000 
     74 H          20.3851   40.5227   46.8912 H         1 1E4401      0.0000 
     75 H          18.8335   40.2884   47.2434 H         1 1E4401      0.0000 
     76 H          19.3587   41.7604   46.8644 H         1 1E4401      0.0000 
     77 H          20.3818   34.0860   48.9310 H         1 1E4401      0.0000 
     78 H          21.1999   33.1235   46.5978 H         1 1E4401      0.0000 
     79 H          23.9267   35.4452   46.8033 H         1 1E4401      0.0000 
     80 H          23.4925   33.4239   42.4077 H         1 1E4401      0.0000 
@<TRIPOS>BOND
     1    2    1 ar   
     2    6    1 ar   
     3   32    1 1    
     4    3    2 ar   
     5   30    2 1    
     6    4    3 ar   
     7   52    3 1    
     8    5    4 ar   
     9    7    4 1    
    10    6    5 ar   
    11   29    5 1    
    12   53    6 1    
    13    8    7 1    
    14    9    8 1    
    15   54    8 1    
    16   55    8 1    
    17   10    9 1    
    18   48    9 1    
    19   56    9 1    
    20   28   10 1    
    21   50   10 1    
    22   57   10 1    
    23   12   11 1    
    24   28   11 1    
    25   51   11 1    
    26   58   11 1    
    27   13   12 1    
    28   59   12 1    
    29   60   12 1    
    30   14   13 1    
    31   15   14 ar   
    32   19   14 ar   
    33   16   15 ar   
    34   61   15 1    
    35   17   16 ar   
    36   20   16 1    
    37   18   17 ar   
    38   62   17 1    
    39   19   18 ar   
    40   21   18 1    
    41   63   19 1    
    42   22   20 ar   
    43   26   20 ar   
    44   23   22 ar   
    45   64   22 1    
    46   24   23 ar   
    47   65   23 1    
    48   25   24 ar   
    49   27   24 1    
    50   26   25 ar   
    51   66   25 1    
    52   45   27 ar   
    53   47   27 ar   
    54   49   28 1    
    55   67   28 1    
    56   31   30 1    
    57   74   31 1    
    58   75   31 1    
    59   76   31 1    
    60   33   32 am   
    61   68   32 1    
    62   34   33 1    
    63   35   33 2    
    64   36   34 1    
    65   69   34 1    
    66   70   34 1    
    67   37   36 1    
    68   38   37 ar   
    69   42   37 ar   
    70   39   38 ar   
    71   71   38 1    
    72   40   39 ar   
    73   72   39 1    
    74   41   40 ar   
    75   43   40 1    
    76   42   41 ar   
    77   73   41 1    
    78   44   43 ar   
    79   46   43 ar   
    80   77   48 1    
    81   78   49 1    
    82   79   50 1    
    83   80   51 1    
@<TRIPOS>SUBSTRUCTURE
     1 1E4401      1 GROUP   
@<TRIPOS>SET

