#    Name: 3pqf_NAD_1_INTS_M
#    Modification time : Tue Mar 25 08:19:14 2014

@<TRIPOS>MOLECULE
3pqf_NAD_1_INTS_M
   66     0     9     0     0
SMALL
NO_CHARGES


@<TRIPOS>ATOM
      1 N           4.7380  -26.9175   26.1270 N.am      2 SEC2        0.0000 
      2 N           3.3850  -27.3410   26.6830 N.am      8 SEL2        0.0000 
      3 N           6.0910  -26.4940   25.5710 N.am      5 SEP2        0.0000 
      4 CA          5.9200  -33.0225   26.0190 C.3       3 GLC5        0.0000 
      5 CA          4.0220  -32.0530   26.5130 C.3       9 GLL5        0.0000 
      6 CA          7.8180  -33.9920   25.5250 C.3       6 GLP5        0.0000 
      7 CA          5.1325  -33.2210   27.9715 C.3       3 GLC5        0.0000 
      8 CA          6.2430  -34.3890   29.4300 C.3       6 GLP5        0.0000 
      9 O           4.3145  -32.8375   23.6385 O.2       1 ALC1        0.0000 
     10 O           3.4460  -31.7750   24.1920 O.2       7 ALL1        0.0000 
     11 O           5.1830  -33.9000   23.0850 O.2       4 ALP1        0.0000 
     12 O           3.5535  -33.9360   23.6745 O.2       1 ALC1        0.0000 
     13 O           1.9240  -33.9720   24.2640 O.2       7 ALL1        0.0000 
     14 O           2.7480  -34.5885   23.3150 O.2       1 ALC1        0.0000 
     15 O           3.5720  -35.2050   22.3660 O.2       4 ALP1        0.0000 
     16 CA          5.6655  -34.1160   25.8095 C.3       3 GLC5        0.0000 
     17 CA          3.5130  -34.2400   26.0940 C.3       9 GLL5        0.0000 
     18 CA          4.8600  -35.0050   27.4585 C.3       3 GLC5        0.0000 
     19 CA          6.2070  -35.7700   28.8230 C.3       6 GLP5        0.0000 
     20 CA          5.0320  -39.2920   28.4335 C.3       3 GLC5        0.0000 
     21 CA          3.6870  -39.0150   27.1000 C.3       9 GLL5        0.0000 
     22 CA          6.3770  -39.5690   29.7670 C.3       6 GLP5        0.0000 
     23 CA          7.2060  -38.3295   26.1955 C.3       3 GLC5        0.0000 
     24 CA          5.4490  -38.2820   25.6230 C.3       9 GLL5        0.0000 
     25 CA          8.9630  -38.3770   26.7680 C.3       6 GLP5        0.0000 
     26 CA          5.7150  -37.6530   23.7230 C.3       3 GLC5        0.0000 
     27 CA          5.9810  -37.0240   21.8230 C.3       6 GLP5        0.0000 
     28 CA          3.7630  -39.0500   24.9045 C.3       3 GLC5        0.0000 
     29 CA          2.0770  -39.8180   24.1860 C.3       6 GLP5        0.0000 
     30 CA          5.8280  -37.0260   27.2230 C.3       3 GLC5        0.0000 
     31 CA          5.9130  -38.9255   27.6950 C.3       3 GLC5        0.0000 
     32 CA          2.6185  -37.0785   25.0970 C.3       3 GLC5        0.0000 
     33 CA          3.8440  -36.7130   26.4400 C.3       9 GLL5        0.0000 
     34 CA          1.3930  -37.4440   23.7540 C.3       6 GLP5        0.0000 
     35 N           7.1115  -27.0010   27.8485 N.am      2 SEC2        0.0000 
     36 N           5.9230  -27.8210   28.3470 N.am      8 SEL2        0.0000 
     37 N           8.3000  -26.1810   27.3500 N.am      5 SEP2        0.0000 
     38 N           6.6570  -28.8510   27.6765 N.am      2 SEC2        0.0000 
     39 N           7.3910  -29.8810   27.0060 N.am      5 SEP2        0.0000 
     40 CA          5.2975  -31.4650   33.3820 C.3       3 GLC5        0.0000 
     41 CA          4.6830  -30.1420   32.0810 C.3       9 GLL5        0.0000 
     42 CA          5.9120  -32.7880   34.6830 C.3       6 GLP5        0.0000 
     43 O           1.2590  -31.1840   32.1555 O.2       1 ALC1        0.0000 
     44 O           2.5360  -30.8740   31.1790 O.2       7 ALL1        0.0000 
     45 O          -0.0180  -31.4940   33.1320 O.2       4 ALP1        0.0000 
     46 O           1.2360  -31.3400   33.4890 O.2       1 ALC1        0.0000 
     47 O           2.4900  -31.1860   33.8460 O.2       7 ALL1        0.0000 
     48 CA          4.9090  -31.0360   34.3975 C.3       3 GLC5        0.0000 
     49 CA          3.9060  -29.2840   34.1120 C.3       9 GLL5        0.0000 
     50 O           6.5745  -23.1105   32.7715 O.2       1 ALC1        0.0000 
     51 O           5.4370  -23.4750   33.9620 O.2       7 ALL1        0.0000 
     52 O           7.7120  -22.7460   31.5810 O.2       4 ALP1        0.0000 
     53 O           6.8545  -22.6270   34.0440 O.2       1 ALC1        0.0000 
     54 O           8.2720  -21.7790   34.1260 O.2       4 ALP1        0.0000 
     55 CA          4.5649  -30.2592   25.4615 C.3       3 GLC5        0.0000 
     56 CA          3.7190  -31.0690   27.6270 C.3       9 GLL5        0.0000 
     57 CA          5.7390  -28.7090   24.6530 C.3       6 GLP5        0.0000 
     58 CA          2.1587  -35.6493   24.7815 C.3       3 GLC5        0.0000 
     59 CA          2.3360  -33.4690   25.5240 C.3       9 GLL5        0.0000 
     60 CA          2.7592  -39.0910   25.6568 C.3       3 GLC5        0.0000 
     61 CA          3.1960  -37.7130   27.1550 C.3       9 GLL5        0.0000 
     62 CA          3.3792  -38.6445   29.1988 C.3       3 GLC5        0.0000 
     63 CA          3.3170  -38.9250   31.2700 C.3       6 GLP5        0.0000 
     64 CA          4.9249  -36.6543   27.8034 C.3       3 GLC5        0.0000 
     65 CA          3.6525  -32.1063   31.9415 C.3       3 GLC5        0.0000 
     66 CA          3.3700  -34.1980   31.8730 C.3       6 GLP5        0.0000 
@<TRIPOS>BOND
@<TRIPOS>SUBSTRUCTURE
     1 ALC1        9 GROUP        1 X    ALC  0     ROOT ALC X 1
     2 SEC2        1 GROUP        1 X    SEC  0     **** SEC X 2
     3 GLC5        4 GROUP        1 X    GLC  0     **** GLC X 6
     4 ALP1       11 GROUP        1 Y    ALP  0     ROOT ALP Y 8
     5 SEP2        3 GROUP        1 Y    SEP  0     **** SEP Y 9
     6 GLP5        6 GROUP        1 Y    GLP  0     **** GLP Y 13
     7 ALL1       10 GROUP        1 Z    ALL  0     ROOT ALL Z 15
     8 SEL2        2 GROUP        1 Z    SEL  0     **** SEL Z 16
     9 GLL5        5 GROUP        1 Z    GLL  0     **** GLL Z 20
@<TRIPOS>SET

