#    Name: 3pqf_NAD_1_ligand
#    Modification time : Tue Mar 25 08:19:14 2014

@<TRIPOS>MOLECULE
3pqf_NAD_1_ligand
   70    74     1     0     0
SMALL
NO_CHARGES


@<TRIPOS>ATOM
      1 PA          3.0730  -28.5020   27.5580 P.3       1 NAD352      0.0000 
      2 O1A         1.6160  -28.8140   27.5710 O.co2     1 NAD352      0.0000 
      3 O2A         3.3850  -27.3410   26.6830 O.co2     1 NAD352      0.0000 
      4 O5B         3.8760  -29.8020   27.0470 O.3       1 NAD352      0.0000 
      5 C5B         3.7190  -31.0690   27.6270 C.3       1 NAD352      0.0000 
      6 C4B         4.0220  -32.0530   26.5130 C.3       1 NAD352      0.0000 
      7 O4B         4.1020  -33.3640   27.0340 O.3       1 NAD352      0.0000 
      8 C3B         2.9110  -32.0580   25.4700 C.3       1 NAD352      0.0000 
      9 O3B         3.4460  -31.7750   24.1920 O.3       1 NAD352      0.0000 
     10 C2B         2.3360  -33.4690   25.5240 C.3       1 NAD352      0.0000 
     11 O2B         1.9240  -33.9720   24.2640 O.3       1 NAD352      0.0000 
     12 C1B         3.5130  -34.2400   26.0940 C.3       1 NAD352      0.0000 
     13 N9A         3.1490  -35.5490   26.6740 N.pl3     1 NAD352      0.0000 
     14 C8A         2.1010  -35.8360   27.5150 C.2       1 NAD352      0.0000 
     15 N7A         2.1410  -37.1610   27.8000 N.2       1 NAD352      0.0000 
     16 C5A         3.1960  -37.7130   27.1550 C.ar      1 NAD352      0.0000 
     17 C6A         3.6870  -39.0150   27.1000 C.ar      1 NAD352      0.0000 
     18 N6A         2.9510  -40.0000   27.6210 N.pl3     1 NAD352      0.0000 
     19 N1A         4.8170  -39.2920   26.3330 N.ar      1 NAD352      0.0000 
     20 C2A         5.4490  -38.2820   25.6230 C.ar      1 NAD352      0.0000 
     21 N3A         4.9500  -36.9920   25.6870 N.ar      1 NAD352      0.0000 
     22 C4A         3.8440  -36.7130   26.4400 C.ar      1 NAD352      0.0000 
     23 O3          3.5740  -28.2560   29.0680 O.3       1 NAD352      0.0000 
     24 PN          4.9510  -27.4970   29.4210 P.3       1 NAD352      0.0000 
     25 O1N         4.6450  -26.0860   29.7590 O.co2     1 NAD352      0.0000 
     26 O2N         5.9230  -27.8210   28.3470 O.co2     1 NAD352      0.0000 
     27 O5D         5.3610  -28.2040   30.8150 O.3       1 NAD352      0.0000 
     28 C5D         5.4900  -29.6080   30.9000 C.3       1 NAD352      0.0000 
     29 C4D         4.6830  -30.1420   32.0810 C.3       1 NAD352      0.0000 
     30 O4D         5.0510  -29.5020   33.2950 O.3       1 NAD352      0.0000 
     31 C3D         3.1870  -29.8870   31.9390 C.3       1 NAD352      0.0000 
     32 O3D         2.5360  -30.8740   31.1790 O.3       1 NAD352      0.0000 
     33 C2D         2.7170  -29.8760   33.3750 C.3       1 NAD352      0.0000 
     34 O2D         2.4900  -31.1860   33.8460 O.3       1 NAD352      0.0000 
     35 C1D         3.9060  -29.2840   34.1120 C.3       1 NAD352      0.0000 
     36 N1N         3.6440  -27.8420   34.3030 N.pl3     1 NAD352      0.0000 
     37 C2N         4.3630  -26.9040   33.6090 C.ar      1 NAD352      0.0000 
     38 C3N         4.1200  -25.5410   33.7900 C.ar      1 NAD352      0.0000 
     39 C7N         5.0660  -24.5150   33.2150 C.2       1 NAD352      0.0000 
     40 O7N         5.5230  -24.6700   31.8870 O.2       1 NAD352      0.0000 
     41 N7N         5.4370  -23.4750   33.9620 N.am      1 NAD352      0.0000 
     42 C4N         3.1380  -25.1440   34.6960 C.ar      1 NAD352      0.0000 
     43 C5N         2.4180  -26.1070   35.3990 C.ar      1 NAD352      0.0000 
     44 C6N         2.6820  -27.4560   35.1960 C.ar      1 NAD352      0.0000 
     45 H           2.7083  -31.2504   27.9681 H         1 NAD352      0.0000 
     46 H           4.4184  -31.2496   28.4326 H         1 NAD352      0.0000 
     47 H           4.9353  -31.7667   26.0277 H         1 NAD352      0.0000 
     48 H           2.1598  -31.3762   25.7816 H         1 NAD352      0.0000 
     49 H           1.5666  -33.4713   26.2713 H         1 NAD352      0.0000 
     50 H           4.2140  -34.3918   25.2570 H         1 NAD352      0.0000 
     51 H           1.4595  -35.2027   27.8378 H         1 NAD352      0.0000 
     52 H           3.3390  -40.9195   27.5585 H         1 NAD352      0.0000 
     53 H           2.0780  -39.7296   28.0268 H         1 NAD352      0.0000 
     54 H           6.2781  -38.4897   25.0562 H         1 NAD352      0.0000 
     55 H           6.5352  -29.9192   31.0464 H         1 NAD352      0.0000 
     56 H           5.1229  -30.1127   29.9938 H         1 NAD352      0.0000 
     57 H           4.8271  -31.2099   32.1575 H         1 NAD352      0.0000 
     58 H           3.0689  -28.8912   31.5537 H         1 NAD352      0.0000 
     59 H           1.9037  -29.2236   33.4716 H         1 NAD352      0.0000 
     60 H           3.9859  -29.7758   35.0540 H         1 NAD352      0.0000 
     61 H           5.0973  -27.1980   32.9401 H         1 NAD352      0.0000 
     62 H           6.0756  -22.8335   33.5370 H         1 NAD352      0.0000 
     63 H           5.0433  -23.4300   34.8801 H         1 NAD352      0.0000 
     64 H           2.9469  -24.1477   34.8439 H         1 NAD352      0.0000 
     65 H           1.6923  -25.8185   36.0671 H         1 NAD352      0.0000 
     66 H           2.1449  -28.1625   35.7258 H         1 NAD352      0.0000 
     67 H           4.0048  -32.5721   23.9632 H         1 NAD352      0.0000 
     68 H           2.7489  -34.3689   23.8616 H         1 NAD352      0.0000 
     69 H           2.0556  -31.4408   31.8482 H         1 NAD352      0.0000 
     70 H           1.5215  -31.2076   34.0937 H         1 NAD352      0.0000 
@<TRIPOS>BOND
     1    2    1 ar   
     2    3    1 ar   
     3    4    1 1    
     4   23    1 1    
     5    5    4 1    
     6    6    5 1    
     7   45    5 1    
     8   46    5 1    
     9    7    6 1    
    10    8    6 1    
    11   47    6 1    
    12   12    7 1    
    13    9    8 1    
    14   10    8 1    
    15   48    8 1    
    16   67    9 1    
    17   11   10 1    
    18   12   10 1    
    19   49   10 1    
    20   68   11 1    
    21   13   12 1    
    22   50   12 1    
    23   14   13 1    
    24   22   13 1    
    25   15   14 2    
    26   51   14 1    
    27   16   15 1    
    28   17   16 ar   
    29   22   16 ar   
    30   18   17 1    
    31   19   17 ar   
    32   52   18 1    
    33   53   18 1    
    34   20   19 ar   
    35   21   20 ar   
    36   54   20 1    
    37   22   21 ar   
    38   24   23 1    
    39   25   24 ar   
    40   26   24 ar   
    41   27   24 1    
    42   28   27 1    
    43   29   28 1    
    44   55   28 1    
    45   56   28 1    
    46   30   29 1    
    47   31   29 1    
    48   57   29 1    
    49   35   30 1    
    50   32   31 1    
    51   33   31 1    
    52   58   31 1    
    53   69   32 1    
    54   34   33 1    
    55   35   33 1    
    56   59   33 1    
    57   70   34 1    
    58   36   35 1    
    59   60   35 1    
    60   37   36 ar   
    61   44   36 ar   
    62   38   37 ar   
    63   61   37 1    
    64   39   38 1    
    65   42   38 ar   
    66   40   39 2    
    67   41   39 am   
    68   62   41 1    
    69   63   41 1    
    70   43   42 ar   
    71   64   42 1    
    72   44   43 ar   
    73   65   43 1    
    74   66   44 1    
@<TRIPOS>SUBSTRUCTURE
     1 NAD352      1 GROUP   
@<TRIPOS>SET

