#    Name: 1UN9_1_CAVITY_N1_6.mol2
#    Modification time : Tue Mar 11 13:45:24 2014

@<TRIPOS>MOLECULE
1UN9_1_CAVITY_N1_6.mol2
   90     0     6     0     0
SMALL
NO_CHARGES


@<TRIPOS>ATOM
      1 CA         13.6076   75.2601  188.1897 C.3       5 GLY6        0.0000 
      2 O          11.6992   74.5663  187.5761 O.2       2 ALA2        0.0000 
      3 OG         13.0553   73.9438  187.7292 O.2       1 SER1        0.0000 
      4 OG         13.6817   78.8754  187.5384 O.2       1 SER1        0.0000 
      5 CA         15.0378   78.2528  187.6915 C.3       5 GLY6        0.0000 
      6 NZ         11.7733   78.1816  186.9247 N.2       4 LYS4        0.0000 
      7 CA         13.1294   77.5590  187.0779 C.3       5 GLY6        0.0000 
      8 OG         14.4855   76.9365  187.2310 O.2       1 SER1        0.0000 
      9 NZ         11.2210   76.8652  186.4642 N.2       4 LYS4        0.0000 
     10 O          12.5771   76.2427  186.6173 O.2       2 ALA2        0.0000 
     11 OG         13.9332   75.6201  186.7704 O.2       1 SER1        0.0000 
     12 NZ         10.6687   75.5489  186.0036 N.2       4 LYS4        0.0000 
     13 OG         12.0248   74.9263  186.1568 O.2       1 SER1        0.0000 
     14 OG         13.3808   74.3037  186.3099 O.2       1 SER1        0.0000 
     15 OG         14.7369   73.6812  186.4630 O.2       1 SER1        0.0000 
     16 NZ         10.1163   74.2325  185.5431 N.2       4 LYS4        0.0000 
     17 OG         11.4724   73.6099  185.6962 O.2       1 SER1        0.0000 
     18 OG         14.5596   80.5518  186.5796 O.2       1 SER1        0.0000 
     19 CA         15.9157   79.9292  186.7328 C.3       5 GLY6        0.0000 
     20 OG         14.0073   79.2354  186.1191 O.2       1 SER1        0.0000 
     21 CA         15.3633   78.6128  186.2722 C.3       5 GLY6        0.0000 
     22 OG         12.0989   78.5416  185.5054 O.2       1 SER1        0.0000 
     23 DU         13.4549   77.9190  185.6585 H         6 CUB7        0.0000 
     24 OG         14.8110   77.2965  185.8117 O.2       1 SER1        0.0000 
     25 NZ         10.1904   77.8478  184.8917 N.2       4 LYS4        0.0000 
     26 NZ         11.5465   77.2252  185.0449 N.2       4 LYS4        0.0000 
     27 DU         12.9026   76.6026  185.1980 H         6 CUB7        0.0000 
     28 OG         14.2587   75.9801  185.3511 O.2       1 SER1        0.0000 
     29 NZ          8.2820   77.1540  184.2781 N.2       4 LYS4        0.0000 
     30 NZ          9.6381   76.5314  184.4312 N.2       4 LYS4        0.0000 
     31 NZ         10.9942   75.9088  184.5843 N.2       4 LYS4        0.0000 
     32 DU         12.3503   75.2863  184.7374 H         6 CUB7        0.0000 
     33 OG         13.7064   74.6637  184.8906 O.2       1 SER1        0.0000 
     34 OG         15.0625   74.0412  185.0437 O.2       1 SER1        0.0000 
     35 CA          9.0858   75.2150  183.9706 C.3       5 GLY6        0.0000 
     36 NZ         10.4419   74.5925  184.1238 N.2       4 LYS4        0.0000 
     37 OD1        11.7980   73.9699  184.2769 O.3       3 ASP3        0.0000 
     38 OD1        13.1540   73.3473  184.4300 O.3       3 ASP3        0.0000 
     39 OD1        14.5101   72.7248  184.5831 O.3       3 ASP3        0.0000 
     40 OG         15.8662   72.1022  184.7363 O.2       1 SER1        0.0000 
     41 OG         15.4374   82.2281  185.6209 O.2       1 SER1        0.0000 
     42 OG         14.8851   80.9117  185.1603 O.2       1 SER1        0.0000 
     43 OG         12.9767   80.2179  184.5467 O.2       1 SER1        0.0000 
     44 CA         14.3328   79.5954  184.6998 C.3       5 GLY6        0.0000 
     45 DU         11.0683   79.5241  183.9330 H         6 CUB7        0.0000 
     46 DU         12.4244   78.9016  184.0861 H         6 CUB7        0.0000 
     47 DU         13.7805   78.2790  184.2392 H         6 CUB7        0.0000 
     48 CA         15.1366   77.6564  184.3924 C.3       5 GLY6        0.0000 
     49 DU         11.8721   77.5852  183.6256 H         6 CUB7        0.0000 
     50 DU         13.2281   76.9626  183.7787 H         6 CUB7        0.0000 
     51 OG         14.5842   76.3401  183.9318 O.2       1 SER1        0.0000 
     52 DU         11.3197   76.2688  183.1650 H         6 CUB7        0.0000 
     53 DU         12.6758   75.6463  183.3181 H         6 CUB7        0.0000 
     54 DU         14.0319   75.0237  183.4713 H         6 CUB7        0.0000 
     55 OG         15.3880   74.4011  183.6244 O.2       1 SER1        0.0000 
     56 CA         16.7441   73.7786  183.7775 C.3       5 GLY6        0.0000 
     57 DU         10.7674   74.9524  182.7045 H         6 CUB7        0.0000 
     58 OD1        12.1235   74.3299  182.8576 O.3       3 ASP3        0.0000 
     59 OD1        13.4796   73.7073  183.0107 O.3       3 ASP3        0.0000 
     60 OD1        14.8357   73.0848  183.1638 O.3       3 ASP3        0.0000 
     61 CA         16.1917   72.4622  183.3170 C.3       5 GLY6        0.0000 
     62 CA         17.5478   71.8396  183.4701 C.3       5 GLY6        0.0000 
     63 CA          8.8590   74.2586  182.0908 C.3       5 GLY6        0.0000 
     64 NZ         10.2151   73.6361  182.2439 N.2       4 LYS4        0.0000 
     65 NZ         16.9955   70.5233  183.0095 N.2       4 LYS4        0.0000 
     66 OG         18.3516   69.9007  183.1627 O.2       1 SER1        0.0000 
     67 N          19.7077   69.2781  183.3158 N.2       2 ALA2        0.0000 
     68 OG         17.7993   68.5843  182.7021 O.2       1 SER1        0.0000 
     69 OG         19.1554   67.9618  182.8552 O.2       1 SER1        0.0000 
     70 CA         13.8546   81.8943  183.5879 C.3       5 GLY6        0.0000 
     71 CA         15.2106   81.2717  183.7410 C.3       5 GLY6        0.0000 
     72 DU         13.3022   80.5779  183.1273 H         6 CUB7        0.0000 
     73 CA         14.6583   79.9553  183.2805 C.3       5 GLY6        0.0000 
     74 DU         14.1060   78.6390  182.8199 H         6 CUB7        0.0000 
     75 OG         15.4621   78.0164  182.9730 O.2       1 SER1        0.0000 
     76 OG         13.5537   77.3226  182.3594 O.2       1 SER1        0.0000 
     77 OG         14.9098   76.7000  182.5125 O.2       1 SER1        0.0000 
     78 DU         13.0013   76.0062  181.8988 H         6 CUB7        0.0000 
     79 OG         14.3574   75.3837  182.0519 O.2       1 SER1        0.0000 
     80 OG         17.0696   74.1386  182.3582 O.2       1 SER1        0.0000 
     81 OD1        12.4490   74.6899  181.4383 O.3       3 ASP3        0.0000 
     82 OD1        13.8051   74.0673  181.5914 O.3       3 ASP3        0.0000 
     83 OG         15.1612   73.4447  181.7445 O.2       1 SER1        0.0000 
     84 OD1        16.5173   72.8222  181.8976 O.3       3 ASP3        0.0000 
     85 CA         17.8734   72.1996  182.0508 C.3       5 GLY6        0.0000 
     86 OD1        13.2528   72.7509  181.1308 O.3       3 ASP3        0.0000 
     87 OD1        14.6089   72.1284  181.2840 O.3       3 ASP3        0.0000 
     88 N          18.6771   70.2607  181.7433 N.2       2 ALA2        0.0000 
     89 OD1        18.1248   68.9443  181.2828 O.3       3 ASP3        0.0000 
     90 OG         16.8428   73.1822  180.4783 O.2       1 SER1        0.0000 
@<TRIPOS>BOND
@<TRIPOS>SUBSTRUCTURE
     1 SER1        3 GROUP   
     2 ALA2        2 GROUP   
     3 ASP3       37 GROUP   
     4 LYS4        6 GROUP   
     5 GLY6        1 GROUP   
     6 CUB7       23 GROUP   
@<TRIPOS>SET

