#    Name: 1un9_ANP_1_INTS_M
#    Modification time : Tue Mar 25 06:45:09 2014

@<TRIPOS>MOLECULE
1un9_ANP_1_INTS_M
   41     0    12     0     0
SMALL
NO_CHARGES


@<TRIPOS>ATOM
      1 N          17.3515   74.8080  180.9735 N.am      2 SEC2        0.0000 
      2 N          17.4700   73.2090  180.8390 N.am     10 SEL2        0.0000 
      3 N          17.2330   76.4070  181.1080 N.am      6 SEP2        0.0000 
      4 Zn         16.4300   70.7635  179.5215 Zn        3 ZIC7        0.0000 
      5 Zn         17.2020   71.5880  178.8690 Zn       11 ZIL7        0.0000 
      6 Zn         15.6580   69.9390  180.1740 Zn        7 ZIP7        0.0000 
      7 Zn         12.5510   72.0715  182.3965 Zn        3 ZIC7        0.0000 
      8 Zn         12.8150   72.9040  181.7790 Zn       11 ZIL7        0.0000 
      9 Zn         12.2870   71.2390  183.0140 Zn        7 ZIP7        0.0000 
     10 N          13.9925   71.4970  186.3280 N.am      2 SEC2        0.0000 
     11 N          15.5870   71.4240  185.6580 N.am     10 SEL2        0.0000 
     12 N          12.3980   71.5700  186.9980 N.am      6 SEP2        0.0000 
     13 N          16.8330   74.1400  185.2600 N.am      2 SEC2        0.0000 
     14 N          16.4020   73.4060  184.1900 N.am     10 SEL2        0.0000 
     15 N          17.2640   74.8740  186.3300 N.am      6 SEP2        0.0000 
     16 Zn         13.4560   71.5140  183.1150 Zn        3 ZIC7        0.0000 
     17 Zn         14.6250   71.7890  183.2160 Zn       11 ZIL7        0.0000 
     18 N          13.1670   72.4740  186.0560 N.am      2 SEC2        0.0000 
     19 N          13.9360   73.3780  185.1140 N.am     10 SEL2        0.0000 
     20 N          11.4515   75.4565  188.6875 N.am      2 SEC2        0.0000 
     21 N          11.8400   75.4990  187.2390 N.am     10 SEL2        0.0000 
     22 N          11.0630   75.4140  190.1360 N.am      6 SEP2        0.0000 
     23 N          11.9610   79.3010  188.6215 N.am      2 SEC2        0.0000 
     24 N          12.0910   77.9200  187.7360 N.am     10 SEL2        0.0000 
     25 N          11.8310   80.6820  189.5070 N.am      6 SEP2        0.0000 
     26 O          10.7945   78.0915  188.2290 O.2       1 ALC1        0.0000 
     27 O          12.0910   77.9200  187.7360 O.2       9 ALL1        0.0000 
     28 O           9.4980   78.2630  188.7220 O.2       5 ALP1        0.0000 
     29 CA         15.0070   78.4285  188.1330 C.3       4 GLC5        0.0000 
     30 CA         13.9490   77.8890  186.3030 C.3      12 GLL5        0.0000 
     31 CA         16.0650   78.9680  189.9630 C.3       8 GLP5        0.0000 
     32 O          15.8740   84.0555  182.5650 O.2       1 ALC1        0.0000 
     33 O          15.5290   83.3090  183.8240 O.2       9 ALL1        0.0000 
     34 O          16.2190   84.8020  181.3060 O.2       5 ALP1        0.0000 
     35 CA         16.1125   79.8910  183.4860 C.3       4 GLC5        0.0000 
     36 CA         14.1780   80.2060  182.4880 C.3      12 GLL5        0.0000 
     37 CA         18.0470   79.5760  184.4840 C.3       8 GLP5        0.0000 
     38 CA         14.2058   83.4675  184.4890 C.3       4 GLC5        0.0000 
     39 CA         14.9580   81.2360  184.9770 C.3      12 GLL5        0.0000 
     40 CA         13.4060   85.2970  184.6150 C.3       8 GLP5        0.0000 
     41 CA         16.3839   80.1683  184.5350 C.3       4 GLC5        0.0000 
@<TRIPOS>BOND
@<TRIPOS>SUBSTRUCTURE
     1 ALC1       26 GROUP        1 X    ALC  0     ROOT ALC X 1
     2 SEC2        1 GROUP        1 X    SEC  0     **** SEC X 2
     3 ZIC7        4 GROUP        1 X    ZIC  0     **** ZIC X 5
     4 GLC5       29 GROUP        1 X    GLC  0     **** GLC X 6
     5 ALP1       28 GROUP        1 Y    ALP  0     ROOT ALP Y 8
     6 SEP2        3 GROUP        1 Y    SEP  0     **** SEP Y 9
     7 ZIP7        6 GROUP        1 Y    ZIP  0     **** ZIP Y 12
     8 GLP5       31 GROUP        1 Y    GLP  0     **** GLP Y 13
     9 ALL1       27 GROUP        1 Z    ALL  0     ROOT ALL Z 15
    10 SEL2        2 GROUP        1 Z    SEL  0     **** SEL Z 16
    11 ZIL7        5 GROUP        1 Z    ZIL  0     **** ZIL Z 19
    12 GLL5       30 GROUP        1 Z    GLL  0     **** GLL Z 20
@<TRIPOS>SET

