#    Name: 1un9_ANP_1_ligand
#    Modification time : Tue Mar 25 06:45:09 2014

@<TRIPOS>MOLECULE
1un9_ANP_1_ligand
   43    45     1     0     0
SMALL
NO_CHARGES


@<TRIPOS>ATOM
      1 PG         16.4720   72.7230  179.7050 P.3       1 ANP1551     0.0000 
      2 O1G        17.4700   73.2090  180.8390 O.co2     1 ANP1551     0.0000 
      3 O2G        16.1460   73.9520  178.7420 O.co2     1 ANP1551     0.0000 
      4 O3G        17.2020   71.5880  178.8690 O.co2     1 ANP1551     0.0000 
      5 PB         14.3800   72.7110  181.9230 P.3       1 ANP1551     0.0000 
      6 O1B        12.8150   72.9040  181.7790 O.co2     1 ANP1551     0.0000 
      7 O2B        15.0380   74.1330  182.1590 O.co2     1 ANP1551     0.0000 
      8 N3B        15.0380   72.0310  180.4470 N.4       1 ANP1551     0.0000 
      9 PA         15.1600   72.4910  184.5620 P.3       1 ANP1551     0.0000 
     10 O1A        15.5870   71.4240  185.6580 O.co2     1 ANP1551     0.0000 
     11 O2A        16.4020   73.4060  184.1900 O.co2     1 ANP1551     0.0000 
     12 O3A        14.6250   71.7890  183.2160 O.3       1 ANP1551     0.0000 
     13 O5'        13.9360   73.3780  185.1140 O.3       1 ANP1551     0.0000 
     14 C5'        13.7020   74.6950  184.6280 C.3       1 ANP1551     0.0000 
     15 C4'        13.7030   75.6970  185.7790 C.3       1 ANP1551     0.0000 
     16 O4'        14.4490   76.8740  185.4490 O.3       1 ANP1551     0.0000 
     17 C3'        12.3010   76.1940  186.0940 C.3       1 ANP1551     0.0000 
     18 O3'        11.8400   75.4990  187.2390 O.3       1 ANP1551     0.0000 
     19 C2'        12.4530   77.6780  186.3860 C.3       1 ANP1551     0.0000 
     20 O2'        12.0910   77.9200  187.7360 O.3       1 ANP1551     0.0000 
     21 C1'        13.9490   77.8890  186.3030 C.3       1 ANP1551     0.0000 
     22 N9         14.3970   79.2650  185.9710 N.pl3     1 ANP1551     0.0000 
     23 C8         14.8790   80.1870  186.8550 C.2       1 ANP1551     0.0000 
     24 N7         15.2240   81.3870  186.2790 N.2       1 ANP1551     0.0000 
     25 C5         14.9580   81.2360  184.9770 C.ar      1 ANP1551     0.0000 
     26 C6         15.0530   82.0400  183.7490 C.ar      1 ANP1551     0.0000 
     27 N6         15.5290   83.3090  183.8240 N.pl3     1 ANP1551     0.0000 
     28 N1         14.6560   81.4730  182.5800 N.ar      1 ANP1551     0.0000 
     29 C2         14.1780   80.2060  182.4880 C.ar      1 ANP1551     0.0000 
     30 N3         14.0420   79.3710  183.5370 N.ar      1 ANP1551     0.0000 
     31 C4         14.4360   79.8830  184.8090 C.ar      1 ANP1551     0.0000 
     32 H          12.7311   74.7750  184.1172 H         1 ANP1551     0.0000 
     33 H          14.4755   75.0092  183.9118 H         1 ANP1551     0.0000 
     34 H          14.0970   75.2311  186.6616 H         1 ANP1551     0.0000 
     35 H          11.6965   76.0627  185.2432 H         1 ANP1551     0.0000 
     36 H          11.9715   78.2409  185.6863 H         1 ANP1551     0.0000 
     37 H          14.3276   77.6526  187.3506 H         1 ANP1551     0.0000 
     38 H          14.9740   80.0114  187.8291 H         1 ANP1551     0.0000 
     39 H          15.5923   83.8070  182.9592 H         1 ANP1551     0.0000 
     40 H          15.7743   83.6337  184.7375 H         1 ANP1551     0.0000 
     41 H          13.8923   79.8516  181.5202 H         1 ANP1551     0.0000 
     42 H          11.3897   74.6809  186.8812 H         1 ANP1551     0.0000 
     43 H          11.0969   78.0275  187.7220 H         1 ANP1551     0.0000 
@<TRIPOS>BOND
     1    2    1 ar   
     2    3    1 ar   
     3    4    1 ar   
     4    8    1 1    
     5    6    5 ar   
     6    7    5 ar   
     7    8    5 1    
     8   12    5 1    
     9   10    9 ar   
    10   11    9 ar   
    11   12    9 1    
    12   13    9 1    
    13   14   13 1    
    14   15   14 1    
    15   32   14 1    
    16   33   14 1    
    17   16   15 1    
    18   17   15 1    
    19   34   15 1    
    20   21   16 1    
    21   18   17 1    
    22   19   17 1    
    23   35   17 1    
    24   42   18 1    
    25   20   19 1    
    26   21   19 1    
    27   36   19 1    
    28   43   20 1    
    29   22   21 1    
    30   37   21 1    
    31   23   22 1    
    32   31   22 1    
    33   24   23 2    
    34   38   23 1    
    35   25   24 1    
    36   26   25 ar   
    37   31   25 ar   
    38   27   26 1    
    39   28   26 ar   
    40   39   27 1    
    41   40   27 1    
    42   29   28 ar   
    43   30   29 ar   
    44   41   29 1    
    45   31   30 ar   
@<TRIPOS>SUBSTRUCTURE
     1 ANP1551     1 GROUP   
@<TRIPOS>SET

