#    Name: 4dbv_NDP_2_INTS_M
#    Modification time : Mon Apr  7 22:29:34 2014

@<TRIPOS>MOLECULE
4dbv_NDP_2_INTS_M
   65     0     9     0     0
SMALL
NO_CHARGES


@<TRIPOS>ATOM
      1 N          39.5325   20.6480   26.0455 N.am      2 SEC2        0.0000 
      2 N          38.9960   22.0790   26.1720 N.am      8 SEL2        0.0000 
      3 N          40.0690   19.2170   25.9190 N.am      5 SEP2        0.0000 
      4 N          40.1880   23.0730   25.8545 N.am      2 SEC2        0.0000 
      5 N          41.3800   24.0670   25.5370 N.am      5 SEP2        0.0000 
      6 CA         33.6205   19.1400   26.0225 C.3       3 GLC5        0.0000 
      7 CA         34.6730   20.8050   25.8400 C.3       9 GLL5        0.0000 
      8 CA         32.5680   17.4750   26.2050 C.3       6 GLP5        0.0000 
      9 O          34.0890   19.8935   23.2100 O.2       1 ALC1        0.0000 
     10 O          35.0520   20.9380   23.4760 O.2       7 ALL1        0.0000 
     11 O          33.1260   18.8490   22.9440 O.2       4 ALP1        0.0000 
     12 CA         32.5680   19.3795   25.5975 C.3       3 GLC5        0.0000 
     13 CA         32.5680   21.2840   24.9900 C.3       9 GLL5        0.0000 
     14 CA         31.3585   20.2990   26.6040 C.3       3 GLC5        0.0000 
     15 CA         30.1490   19.3140   28.2180 C.3       6 GLP5        0.0000 
     16 CA         25.7830   21.2080   24.8745 C.3       3 GLC5        0.0000 
     17 CA         27.7180   21.2820   25.7350 C.3       9 GLL5        0.0000 
     18 CA         23.8480   21.1340   24.0140 C.3       6 GLP5        0.0000 
     19 O          25.2880   21.5815   26.2885 O.2       1 ALC1        0.0000 
     20 O          26.7090   22.0370   26.1670 O.2       7 ALL1        0.0000 
     21 O          23.8670   21.1260   26.4100 O.2       4 ALP1        0.0000 
     22 CA         29.4110   18.5285   23.3970 C.3       3 GLC5        0.0000 
     23 CA         28.4970   19.2810   24.8370 C.3       9 GLL5        0.0000 
     24 CA         30.3250   17.7760   21.9570 C.3       6 GLP5        0.0000 
     25 CA         29.3230   19.2975   26.5275 C.3       3 GLC5        0.0000 
     26 CA         31.3235   19.2150   25.7035 C.3       3 GLC5        0.0000 
     27 CA         30.0790   20.9550   25.2020 C.3       9 GLL5        0.0000 
     28 N          39.5665   18.8365   28.5925 N.am      2 SEC2        0.0000 
     29 N          38.8420   20.0470   28.8510 N.am      8 SEL2        0.0000 
     30 N          40.2910   17.6260   28.3340 N.am      5 SEP2        0.0000 
     31 N          45.6260   21.0520   32.6660 N.am      2 SEC2        0.0000 
     32 N          44.0850   20.8830   32.7510 N.am      8 SEL2        0.0000 
     33 N          47.1670   21.2210   32.5810 N.am      5 SEP2        0.0000 
     34 CA         43.2795   20.0015   35.8275 C.3       3 GLC5        0.0000 
     35 CA         42.2290   19.3430   34.4440 C.3       9 GLL5        0.0000 
     36 CA         44.3300   20.6600   37.2110 C.3       6 GLP5        0.0000 
     37 CA         42.9285   18.8465   36.4225 C.3       3 GLC5        0.0000 
     38 CA         41.2830   18.8220   35.3300 C.3       9 GLL5        0.0000 
     39 CA         44.5740   18.8710   37.5150 C.3       6 GLP5        0.0000 
     40 CA         42.4185   16.9800   35.4795 C.3       3 GLC5        0.0000 
     41 CA         43.5540   15.1380   35.6290 C.3       6 GLP5        0.0000 
     42 CA         40.2250   18.4765   33.3140 C.3       3 GLC5        0.0000 
     43 CA         39.9360   19.1860   35.2390 C.3       9 GLL5        0.0000 
     44 CA         40.5140   17.7670   31.3890 C.3       6 GLP5        0.0000 
     45 N          31.3095   23.7990   22.1360 N.am      2 SEC2        0.0000 
     46 N          31.8610   25.1060   22.9200 N.am      8 SEL2        0.0000 
     47 N          30.7580   22.4920   21.3520 N.am      5 SEP2        0.0000 
     48 CA         33.6080   20.6988   27.8933 C.3       3 GLC5        0.0000 
     49 CA         32.1970   20.2790   29.3530 C.3       6 GLP5        0.0000 
     50 CA         36.4085   20.1559   25.2156 C.3       3 GLC5        0.0000 
     51 CA         37.8900   18.9010   24.8870 C.3       6 GLP5        0.0000 
     52 CA         28.8029   21.9486   23.5666 C.3       3 GLC5        0.0000 
     53 CA         29.0470   21.7250   25.7060 C.3       9 GLL5        0.0000 
     54 CA         28.3750   22.6680   21.6720 C.3       6 GLP5        0.0000 
     55 CA         29.6899   20.2716   26.8396 C.3       3 GLC5        0.0000 
     56 CA         34.7390   21.8015   32.5375 C.3       3 GLC5        0.0000 
     57 CA         36.5830   20.5120   32.3410 C.3       9 GLL5        0.0000 
     58 CA         32.9360   22.4270   32.3660 C.3       6 GLP5        0.0000 
     59 CA         36.7927   20.7612   35.5652 C.3       3 GLC5        0.0000 
     60 CA         37.8670   21.9320   33.7380 C.3       9 GLL5        0.0000 
     61 CA         35.5920   20.3230   37.2190 C.3       6 GLP5        0.0000 
     62 CA         40.8495   19.1148   32.3990 C.3       3 GLC5        0.0000 
     63 CA         40.5100   20.6580   33.3740 C.3       9 GLL5        0.0000 
     64 CA         41.8075   18.0843   33.2500 C.3       3 GLC5        0.0000 
     65 CA         41.8590   17.0860   31.6130 C.3       6 GLP5        0.0000 
@<TRIPOS>BOND
@<TRIPOS>SUBSTRUCTURE
     1 ALC1        9 GROUP        1 X    ALC  0     ROOT ALC X 1
     2 SEC2        1 GROUP        1 X    SEC  0     **** SEC X 2
     3 GLC5        6 GROUP        1 X    GLC  0     **** GLC X 6
     4 ALP1       11 GROUP        1 Y    ALP  0     ROOT ALP Y 8
     5 SEP2        3 GROUP        1 Y    SEP  0     **** SEP Y 9
     6 GLP5        8 GROUP        1 Y    GLP  0     **** GLP Y 13
     7 ALL1       10 GROUP        1 Z    ALL  0     ROOT ALL Z 15
     8 SEL2        2 GROUP        1 Z    SEL  0     **** SEL Z 16
     9 GLL5        7 GROUP        1 Z    GLL  0     **** GLL Z 20
@<TRIPOS>SET

