#    Name: 4dbv_NDP_2_ligand
#    Modification time : Mon Apr  7 22:29:35 2014

@<TRIPOS>MOLECULE
4dbv_NDP_2_ligand
   74    78     1     0     0
SMALL
NO_CHARGES


@<TRIPOS>ATOM
      1 PA         37.8340   22.5550   26.9240 P.3       1 NDP336      0.0000 
      2 O1A        37.3090   23.8640   26.4920 O.co2     1 NDP336      0.0000 
      3 O2A        38.9960   22.0790   26.1720 O.co2     1 NDP336      0.0000 
      4 O5B        36.7550   21.3740   26.7040 O.3       1 NDP336      0.0000 
      5 C5B        35.3650   21.4320   27.0270 C.3       1 NDP336      0.0000 
      6 C4B        34.6730   20.8050   25.8400 C.3       1 NDP336      0.0000 
      7 O4B        33.2680   20.7340   26.1050 O.3       1 NDP336      0.0000 
      8 C3B        34.8350   21.7030   24.6550 C.3       1 NDP336      0.0000 
      9 O3B        35.0520   20.9380   23.4760 O.3       1 NDP336      0.0000 
     10 C2B        33.5050   22.3920   24.5830 C.3       1 NDP336      0.0000 
     11 O2B        33.3030   22.9730   23.2940 O.3       1 NDP336      0.0000 
     12 C1B        32.5680   21.2840   24.9900 C.3       1 NDP336      0.0000 
     13 N9A        31.1930   21.6700   25.4080 N.pl3     1 NDP336      0.0000 
     14 C8A        30.8210   22.7990   26.0460 C.2       1 NDP336      0.0000 
     15 N7A        29.4930   22.8470   26.2630 N.2       1 NDP336      0.0000 
     16 C5A        29.0470   21.7250   25.7060 C.ar      1 NDP336      0.0000 
     17 C6A        27.7180   21.2820   25.7350 C.ar      1 NDP336      0.0000 
     18 N6A        26.7090   22.0370   26.1670 N.pl3     1 NDP336      0.0000 
     19 N1A        27.5000   20.0340   25.2830 N.ar      1 NDP336      0.0000 
     20 C2A        28.4970   19.2810   24.8370 C.ar      1 NDP336      0.0000 
     21 N3A        29.7550   19.7220   24.7690 N.ar      1 NDP336      0.0000 
     22 C4A        30.0790   20.9550   25.2020 C.ar      1 NDP336      0.0000 
     23 O3         38.2570   22.4670   28.4420 O.3       1 NDP336      0.0000 
     24 PN         38.9720   21.4050   29.3970 P.3       1 NDP336      0.0000 
     25 O1N        40.3130   21.9050   29.7820 O.co2     1 NDP336      0.0000 
     26 O2N        38.8420   20.0470   28.8510 O.co2     1 NDP336      0.0000 
     27 O5D        38.1530   21.4600   30.7580 O.3       1 NDP336      0.0000 
     28 C5D        36.9350   20.6960   30.8810 C.3       1 NDP336      0.0000 
     29 C4D        36.5830   20.5120   32.3410 C.3       1 NDP336      0.0000 
     30 O4D        37.6810   19.7730   32.9080 O.3       1 NDP336      0.0000 
     31 C3D        36.5010   21.8400   33.0770 C.3       1 NDP336      0.0000 
     32 O3D        35.4620   21.8190   34.0700 O.3       1 NDP336      0.0000 
     33 C2D        37.8670   21.9320   33.7380 C.3       1 NDP336      0.0000 
     34 O2D        37.8710   22.8110   34.8830 O.3       1 NDP336      0.0000 
     35 C1D        38.1200   20.4670   34.0850 C.3       1 NDP336      0.0000 
     36 N1N        39.5400   20.1080   34.2580 N.pl3     1 NDP336      0.0000 
     37 C2N        40.5100   20.6580   33.3740 C.2       1 NDP336      0.0000 
     38 C3N        41.8600   20.2670   33.4440 C.2       1 NDP336      0.0000 
     39 C7N        42.9100   20.7900   32.4230 C.2       1 NDP336      0.0000 
     40 O7N        44.0850   20.8830   32.7510 O.2       1 NDP336      0.0000 
     41 N7N        42.5140   21.2060   31.2290 N.am      1 NDP336      0.0000 
     42 C4N        42.2290   19.3430   34.4440 C.3       1 NDP336      0.0000 
     43 C5N        41.2830   18.8220   35.3300 C.2       1 NDP336      0.0000 
     44 C6N        39.9360   19.1860   35.2390 C.2       1 NDP336      0.0000 
     45 P2B        33.2330   24.6190   23.2130 P.3       1 NDP336      0.0000 
     46 O1X        34.2880   25.0970   22.0760 O.co2     1 NDP336      0.0000 
     47 O2X        33.8180   25.4050   24.5300 O.co2     1 NDP336      0.0000 
     48 O3X        31.8610   25.1060   22.9200 O.co2     1 NDP336      0.0000 
     49 H          35.0168   22.4459   27.1326 H         1 NDP336      0.0000 
     50 H          35.1303   20.8558   27.9064 H         1 NDP336      0.0000 
     51 H          35.0877   19.8597   25.6350 H         1 NDP336      0.0000 
     52 H          35.5823   22.4132   24.8531 H         1 NDP336      0.0000 
     53 H          33.5030   23.1307   25.3817 H         1 NDP336      0.0000 
     54 H          32.5459   20.5524   24.2000 H         1 NDP336      0.0000 
     55 H          31.4532   23.5100   26.3224 H         1 NDP336      0.0000 
     56 H          26.9527   22.9467   26.5031 H         1 NDP336      0.0000 
     57 H          25.7988   21.6260   26.1162 H         1 NDP336      0.0000 
     58 H          28.2892   18.2853   24.5200 H         1 NDP336      0.0000 
     59 H          37.0421   19.7043   30.4244 H         1 NDP336      0.0000 
     60 H          36.0979   21.2033   30.3857 H         1 NDP336      0.0000 
     61 H          35.6782   19.9838   32.4324 H         1 NDP336      0.0000 
     62 H          36.4120   22.6149   32.3742 H         1 NDP336      0.0000 
     63 H          38.5702   22.2089   32.9807 H         1 NDP336      0.0000 
     64 H          37.5336   20.1910   34.9125 H         1 NDP336      0.0000 
     65 H          40.2132   21.3511   32.6759 H         1 NDP336      0.0000 
     66 H          43.2373   21.4922   30.6006 H         1 NDP336      0.0000 
     67 H          41.5277   21.1961   31.0644 H         1 NDP336      0.0000 
     68 H          43.1038   19.7995   35.0566 H         1 NDP336      0.0000 
     69 H          42.7911   18.4625   33.9365 H         1 NDP336      0.0000 
     70 H          41.5820   18.1587   36.0626 H         1 NDP336      0.0000 
     71 H          39.2478   18.7875   35.8769 H         1 NDP336      0.0000 
     72 H          34.3103   20.2674   23.4626 H         1 NDP336      0.0000 
     73 H          34.8422   22.5599   33.8116 H         1 NDP336      0.0000 
     74 H          36.9086   22.9117   35.1352 H         1 NDP336      0.0000 
@<TRIPOS>BOND
     1    2    1 ar   
     2    3    1 ar   
     3    4    1 1    
     4   23    1 1    
     5    5    4 1    
     6    6    5 1    
     7   49    5 1    
     8   50    5 1    
     9    7    6 1    
    10    8    6 1    
    11   51    6 1    
    12   12    7 1    
    13    9    8 1    
    14   10    8 1    
    15   52    8 1    
    16   72    9 1    
    17   11   10 1    
    18   12   10 1    
    19   53   10 1    
    20   45   11 1    
    21   13   12 1    
    22   54   12 1    
    23   14   13 1    
    24   22   13 1    
    25   15   14 2    
    26   55   14 1    
    27   16   15 1    
    28   17   16 ar   
    29   22   16 ar   
    30   18   17 1    
    31   19   17 ar   
    32   56   18 1    
    33   57   18 1    
    34   20   19 ar   
    35   21   20 ar   
    36   58   20 1    
    37   22   21 ar   
    38   24   23 1    
    39   25   24 ar   
    40   26   24 ar   
    41   27   24 1    
    42   28   27 1    
    43   29   28 1    
    44   59   28 1    
    45   60   28 1    
    46   30   29 1    
    47   31   29 1    
    48   61   29 1    
    49   35   30 1    
    50   32   31 1    
    51   33   31 1    
    52   62   31 1    
    53   73   32 1    
    54   34   33 1    
    55   35   33 1    
    56   63   33 1    
    57   74   34 1    
    58   36   35 1    
    59   64   35 1    
    60   37   36 1    
    61   44   36 1    
    62   38   37 2    
    63   65   37 1    
    64   39   38 1    
    65   42   38 1    
    66   40   39 2    
    67   41   39 am   
    68   66   41 1    
    69   67   41 1    
    70   43   42 1    
    71   68   42 1    
    72   69   42 1    
    73   44   43 2    
    74   70   43 1    
    75   71   44 1    
    76   46   45 ar   
    77   47   45 ar   
    78   48   45 ar   
@<TRIPOS>SUBSTRUCTURE
     1 NDP336      1 GROUP   
@<TRIPOS>SET

