#    Name: 3qxp_X64_1_INTS_M
#    Modification time : Tue Mar 25 10:21:34 2014

@<TRIPOS>MOLECULE
3qxp_X64_1_INTS_M
   56     0     9     0     0
SMALL
NO_CHARGES


@<TRIPOS>ATOM
      1 N         -64.5390   83.0480   87.8170 N.am      2 SEC2        0.0000 
      2 N         -65.6110   82.3360   86.6820 N.am      8 SEL2        0.0000 
      3 N         -63.4670   83.7600   88.9520 N.am      5 SEP2        0.0000 
      4 O         -66.9845   82.1905   89.4755 O.2       1 ALC1        0.0000 
      5 O         -67.0930   81.4520   88.2430 O.2       7 ALL1        0.0000 
      6 O         -66.8760   82.9290   90.7080 O.2       4 ALP1        0.0000 
      7 O         -61.7645   79.6600   79.7615 O.2       1 ALC1        0.0000 
      8 O         -61.5230   81.0200   79.0780 O.2       7 ALL1        0.0000 
      9 O         -62.0060   78.3000   80.4450 O.2       4 ALP1        0.0000 
     10 CA        -65.3075   83.6170   83.3140 C.3       3 GLC5        0.0000 
     11 CA        -63.5890   82.6490   83.8470 C.3       9 GLL5        0.0000 
     12 CA        -67.0260   84.5850   82.7810 C.3       6 GLP5        0.0000 
     13 CA        -66.6270   75.4565   83.8160 C.3       3 GLC5        0.0000 
     14 CA        -67.8350   77.2040   83.4390 C.3       9 GLL5        0.0000 
     15 CA        -65.4190   73.7090   84.1930 C.3       6 GLP5        0.0000 
     16 CA        -65.4795   78.1725   85.0895 C.3       3 GLC5        0.0000 
     17 CA        -67.5430   78.0570   84.5330 C.3       9 GLL5        0.0000 
     18 CA        -63.4160   78.2880   85.6460 C.3       6 GLP5        0.0000 
     19 CA        -63.5605   79.8715   84.3490 C.3       3 GLC5        0.0000 
     20 CA        -63.7050   81.4550   83.0520 C.3       9 GLL5        0.0000 
     21 CA        -62.0835   79.4180   82.2885 C.3       3 GLC5        0.0000 
     22 CA        -62.8280   81.2250   81.9640 C.3       9 GLL5        0.0000 
     23 CA        -61.3390   77.6110   82.6130 C.3       6 GLP5        0.0000 
     24 N         -59.6425   80.1380   82.0645 N.am      2 SEC2        0.0000 
     25 N         -59.6680   81.0040   80.8160 N.am      8 SEL2        0.0000 
     26 N         -59.6170   79.2720   83.3130 N.am      5 SEP2        0.0000 
     27 N         -58.6875   83.6080   79.3465 N.am      2 SEC2        0.0000 
     28 N         -60.1690   83.1090   79.7940 N.am      8 SEL2        0.0000 
     29 N         -57.2060   84.1070   78.8990 N.am      5 SEP2        0.0000 
     30 CA        -66.6740   82.8340   83.6670 C.3       3 GLC5        0.0000 
     31 CA        -66.3220   81.0830   84.5530 C.3       9 GLL5        0.0000 
     32 CA        -67.6105   82.5250   85.5730 C.3       3 GLC5        0.0000 
     33 CA        -68.8990   83.9670   86.5930 C.3       6 GLP5        0.0000 
     34 CA        -65.5345   80.0215   86.1215 C.3       3 GLC5        0.0000 
     35 CA        -64.7470   78.9600   87.6900 C.3       6 GLP5        0.0000 
     36 CA        -67.9075   82.5367   86.5600 C.3       3 GLC5        0.0000 
     37 CA        -67.1770   80.7140   86.0170 C.3       9 GLL5        0.0000 
     38 CA        -65.8315   80.0332   87.1085 C.3       3 GLC5        0.0000 
     39 CA        -66.6550   81.4990   87.0370 C.3       9 GLL5        0.0000 
     40 CA        -67.5330   77.3338   86.3067 C.3       3 GLC5        0.0000 
     41 CA        -68.5410   78.9520   85.0580 C.3       9 GLL5        0.0000 
     42 CA        -67.0240   76.1630   87.8180 C.3       6 GLP5        0.0000 
     43 CA        -70.7387   79.6977   82.6385 C.3       3 GLC5        0.0000 
     44 CA        -69.8670   78.9620   84.4450 C.3       9 GLL5        0.0000 
     45 CA        -71.4770   80.8710   81.3850 C.3       6 GLP5        0.0000 
     46 CA        -70.1887   76.6388   84.4870 C.3       3 GLC5        0.0000 
     47 CA        -70.1340   78.0870   83.3390 C.3       9 GLL5        0.0000 
     48 CA        -70.3770   74.7530   85.0820 C.3       6 GLP5        0.0000 
     49 CA        -69.1950   76.1935   84.4591 C.3       3 GLC5        0.0000 
     50 CA        -69.1310   77.2180   82.8400 C.3       9 GLL5        0.0000 
     51 CA        -60.8993   83.9688   84.6103 C.3       3 GLC5        0.0000 
     52 CA        -61.7030   83.3650   82.4240 C.3       9 GLL5        0.0000 
     53 CA        -59.6580   84.4560   86.2530 C.3       6 GLP5        0.0000 
     54 CA        -60.5040   82.2931   83.4776 C.3       3 GLC5        0.0000 
     55 CA        -62.5780   83.5980   83.5110 C.3       9 GLL5        0.0000 
     56 CA        -58.8360   81.4030   84.1810 C.3       6 GLP5        0.0000 
@<TRIPOS>BOND
@<TRIPOS>SUBSTRUCTURE
     1 ALC1        4 GROUP        1 X    ALC  0     ROOT ALC X 1
     2 SEC2        1 GROUP        1 X    SEC  0     **** SEC X 2
     3 GLC5       10 GROUP        1 X    GLC  0     **** GLC X 6
     4 ALP1        6 GROUP        1 Y    ALP  0     ROOT ALP Y 8
     5 SEP2        3 GROUP        1 Y    SEP  0     **** SEP Y 9
     6 GLP5       12 GROUP        1 Y    GLP  0     **** GLP Y 13
     7 ALL1        5 GROUP        1 Z    ALL  0     ROOT ALL Z 15
     8 SEL2        2 GROUP        1 Z    SEL  0     **** SEL Z 16
     9 GLL5       11 GROUP        1 Z    GLL  0     **** GLL Z 20
@<TRIPOS>SET

