#    Name: 3qxp_X64_1_ligand
#    Modification time : Tue Mar 25 10:21:34 2014

@<TRIPOS>MOLECULE
3qxp_X64_1_ligand
   41    43     1     0     0
SMALL
NO_CHARGES


@<TRIPOS>ATOM
      1 N01       -65.6110   82.3360   86.6820 N.2       1 X64300      0.0000 
      2 N02       -64.3620   82.9200   84.8760 N.pl3     1 X64300      0.0000 
      3 N03       -67.0930   81.4520   88.2430 N.pl3     1 X64300      0.0000 
      4 N04       -61.5230   81.0200   79.0780 N.pl3     1 X64300      0.0000 
      5 N05       -70.8140   79.7350   84.8620 N.pl3     1 X64300      0.0000 
      6 C06       -67.1770   80.7140   86.0170 C.2       1 X64300      0.0000 
      7 C07       -66.6550   81.4990   87.0370 C.2       1 X64300      0.0000 
      8 C08       -65.3280   82.2110   85.4020 C.2       1 X64300      0.0000 
      9 C09       -63.5890   82.6490   83.8470 C.ar      1 X64300      0.0000 
     10 C10       -68.2060   79.7820   86.1420 C.2       1 X64300      0.0000 
     11 C11       -68.5410   78.9520   85.0580 C.ar      1 X64300      0.0000 
     12 C12       -69.8670   78.9620   84.4450 C.ar      1 X64300      0.0000 
     13 C13       -70.1340   78.0870   83.3390 C.ar      1 X64300      0.0000 
     14 C14       -69.1310   77.2180   82.8400 C.ar      1 X64300      0.0000 
     15 C15       -67.8350   77.2040   83.4390 C.ar      1 X64300      0.0000 
     16 C16       -67.5430   78.0570   84.5330 C.ar      1 X64300      0.0000 
     17 C17       -63.7050   81.4550   83.0520 C.ar      1 X64300      0.0000 
     18 C18       -62.8280   81.2250   81.9640 C.ar      1 X64300      0.0000 
     19 C19       -61.8290   82.1720   81.6510 C.ar      1 X64300      0.0000 
     20 C20       -61.7030   83.3650   82.4240 C.ar      1 X64300      0.0000 
     21 C21       -62.5780   83.5980   83.5110 C.ar      1 X64300      0.0000 
     22 O22       -68.7700   79.6170   87.2320 O.2       1 X64300      0.0000 
     23 O23       -59.6680   81.0040   80.8160 O.2       1 X64300      0.0000 
     24 O24       -60.1690   83.1090   79.7940 O.2       1 X64300      0.0000 
     25 O25       -72.0370   79.2720   84.9330 O.2       1 X64300      0.0000 
     26 O26       -70.5850   80.9830   85.1900 O.2       1 X64300      0.0000 
     27 S27       -66.3220   81.0830   84.5530 S.3       1 X64300      0.0000 
     28 S28       -60.7120   81.8530   80.2990 S.o2      1 X64300      0.0000 
     29 H         -64.1623   83.9023   85.3735 H         1 X64300      0.0000 
     30 H         -66.6475   82.0634   88.8971 H         1 X64300      0.0000 
     31 H         -67.8387   80.8084   88.4156 H         1 X64300      0.0000 
     32 H         -61.5761   81.4801   78.1918 H         1 X64300      0.0000 
     33 H         -61.8933   80.1250   79.3269 H         1 X64300      0.0000 
     34 H         -71.0625   78.0961   82.9104 H         1 X64300      0.0000 
     35 H         -69.3305   76.6022   82.0546 H         1 X64300      0.0000 
     36 H         -67.1189   76.5757   83.0748 H         1 X64300      0.0000 
     37 H         -66.6153   78.0435   84.9609 H         1 X64300      0.0000 
     38 H         -64.4290   80.7739   83.2824 H         1 X64300      0.0000 
     39 H         -62.9198   80.3745   81.4078 H         1 X64300      0.0000 
     40 H         -60.9824   84.0443   82.1891 H         1 X64300      0.0000 
     41 H         -62.4892   84.4535   84.0646 H         1 X64300      0.0000 
@<TRIPOS>BOND
     1    7    1 1    
     2    8    1 2    
     3    8    2 1    
     4    9    2 1    
     5   29    2 1    
     6    7    3 1    
     7   30    3 1    
     8   31    3 1    
     9   28    4 1    
    10   32    4 1    
    11   33    4 1    
    12   12    5 1    
    13   25    5 2    
    14   26    5 2    
    15    7    6 2    
    16   10    6 1    
    17   27    6 1    
    18   27    8 1    
    19   17    9 ar   
    20   21    9 ar   
    21   11   10 1    
    22   22   10 2    
    23   12   11 ar   
    24   16   11 ar   
    25   13   12 ar   
    26   14   13 ar   
    27   34   13 1    
    28   15   14 ar   
    29   35   14 1    
    30   16   15 ar   
    31   36   15 1    
    32   37   16 1    
    33   18   17 ar   
    34   38   17 1    
    35   19   18 ar   
    36   39   18 1    
    37   20   19 ar   
    38   28   19 1    
    39   21   20 ar   
    40   40   20 1    
    41   41   21 1    
    42   28   23 2    
    43   28   24 2    
@<TRIPOS>SUBSTRUCTURE
     1 X64300      1 GROUP   
@<TRIPOS>SET

