#    Name: 1pqc_444_3_INTS_M
#    Modification time : Mon Mar 24 22:06:28 2014

@<TRIPOS>MOLECULE
1pqc_444_3_INTS_M
   83     0     6     0     0
SMALL
NO_CHARGES


@<TRIPOS>ATOM
      1 CA         41.7780   77.2415   71.0755 C.3       2 GLC5        0.0000 
      2 CA         40.2040   78.6770   70.7600 C.3       6 GLL5        0.0000 
      3 CA         43.3520   75.8060   71.3910 C.3       4 GLP5        0.0000 
      4 CA         36.2030   77.1950   72.0155 C.3       2 GLC5        0.0000 
      5 CA         37.9270   78.3010   71.6430 C.3       6 GLL5        0.0000 
      6 CA         34.4790   76.0890   72.3880 C.3       4 GLP5        0.0000 
      7 CA         38.4240   77.2240   73.4065 C.3       2 GLC5        0.0000 
      8 CA         38.1730   79.1560   72.7440 C.3       6 GLL5        0.0000 
      9 CA         38.6750   75.2920   74.0690 C.3       4 GLP5        0.0000 
     10 CA         41.1675   83.4640   71.4040 C.3       2 GLC5        0.0000 
     11 CA         39.2440   82.9870   72.4140 C.3       6 GLL5        0.0000 
     12 CA         43.0910   83.9410   70.3940 C.3       4 GLP5        0.0000 
     13 CA         41.5245   84.4990   70.9375 C.3       2 GLC5        0.0000 
     14 CA         39.9580   85.0570   71.4810 C.3       6 GLL5        0.0000 
     15 CA         40.7885   84.3675   75.3380 C.3       2 GLC5        0.0000 
     16 CA         40.2950   84.8010   73.5920 C.3       6 GLL5        0.0000 
     17 CA         41.2820   83.9340   77.0840 C.3       4 GLP5        0.0000 
     18 CA         37.8925   85.6720   74.8885 C.3       2 GLC5        0.0000 
     19 CA         38.3130   85.0940   72.9190 C.3       6 GLL5        0.0000 
     20 CA         37.4720   86.2500   76.8580 C.3       4 GLP5        0.0000 
     21 CA         36.8165   86.0365   72.4885 C.3       2 GLC5        0.0000 
     22 CA         35.3200   86.9790   72.0580 C.3       4 GLP5        0.0000 
     23 CA         38.0065   82.7635   76.7870 C.3       2 GLC5        0.0000 
     24 CA         36.8830   82.7070   75.1670 C.3       6 GLL5        0.0000 
     25 CA         39.1300   82.8200   78.4070 C.3       4 GLP5        0.0000 
     26 CA         33.9630   82.4345   71.2720 C.3       2 GLC5        0.0000 
     27 CA         35.0380   81.9540   73.1520 C.3       6 GLL5        0.0000 
     28 CA         32.8880   82.9150   69.3920 C.3       4 GLP5        0.0000 
     29 CA         33.5170   82.5080   76.9090 C.3       2 GLC5        0.0000 
     30 CA         33.0390   82.4550   74.8340 C.3       6 GLL5        0.0000 
     31 CA         33.9950   82.5610   78.9840 C.3       4 GLP5        0.0000 
     32 CA         29.7785   81.3445   73.8285 C.3       2 GLC5        0.0000 
     33 CA         30.8270   83.1960   74.1600 C.3       6 GLL5        0.0000 
     34 CA         28.7300   79.4930   73.4970 C.3       4 GLP5        0.0000 
     35 CA         30.4105   84.6730   75.4955 C.3       2 GLC5        0.0000 
     36 CA         29.9940   86.1500   76.8310 C.3       4 GLP5        0.0000 
     37 CA         30.2310   82.1595   75.9860 C.3       2 GLC5        0.0000 
     38 CA         29.6350   81.1230   77.8120 C.3       4 GLP5        0.0000 
     39 CA         33.5990   85.2525   72.3285 C.3       2 GLC5        0.0000 
     40 CA         32.5010   84.3490   73.5010 C.3       6 GLL5        0.0000 
     41 CA         34.6970   86.1560   71.1560 C.3       4 GLP5        0.0000 
     42 N          33.1485   84.3320   76.0635 N.am      1 SEC2        0.0000 
     43 N          32.8160   83.0680   76.1320 N.am      5 SEL2        0.0000 
     44 N          33.4810   85.5960   75.9950 N.am      3 SEP2        0.0000 
     45 CA         33.4135   78.7110   72.8290 C.3       2 GLC5        0.0000 
     46 CA         33.0540   80.2240   74.0450 C.3       6 GLL5        0.0000 
     47 CA         33.7730   77.1980   71.6130 C.3       4 GLP5        0.0000 
     48 CA         33.0040   78.2730   74.9300 C.3       2 GLC5        0.0000 
     49 CA         32.9540   76.3220   75.8150 C.3       4 GLP5        0.0000 
     50 CA         32.9860   78.4340   75.9910 C.3       2 GLC5        0.0000 
     51 CA         33.0180   80.5460   76.1670 C.3       6 GLL5        0.0000 
     52 CA         34.6950   79.8310   76.7405 C.3       2 GLC5        0.0000 
     53 CA         36.3720   79.1160   77.3140 C.3       4 GLP5        0.0000 
     54 CA         33.0910   79.6920   77.6920 C.3       2 GLC5        0.0000 
     55 CA         33.1640   78.8380   79.2170 C.3       4 GLP5        0.0000 
     56 CA         33.5065   81.5535   77.5755 C.3       2 GLC5        0.0000 
     57 CA         41.9052   79.7363   70.0472 C.3       2 GLC5        0.0000 
     58 CA         40.4710   79.5280   71.8570 C.3       6 GLL5        0.0000 
     59 CA         43.4730   80.3700   68.7860 C.3       4 GLP5        0.0000 
     60 CA         38.9270   76.4638   71.4317 C.3       2 GLC5        0.0000 
     61 CA         39.1060   74.5920   71.6890 C.3       4 GLP5        0.0000 
     62 CA         41.7315   84.2485   72.4760 C.3       2 GLC5        0.0000 
     63 CA         43.5890   83.8550   71.8570 C.3       4 GLP5        0.0000 
     64 CA         39.7888   86.4914   72.8382 C.3       2 GLC5        0.0000 
     65 CA         39.4530   84.4830   72.5980 C.3       6 GLL5        0.0000 
     66 CA         40.4210   88.0430   72.8090 C.3       4 GLP5        0.0000 
     67 CA         38.3296   85.7745   71.0501 C.3       2 GLC5        0.0000 
     68 CA         37.6500   86.6170   69.6210 C.3       4 GLP5        0.0000 
     69 CA         36.2820   80.9237   76.3045 C.3       2 GLC5        0.0000 
     70 CA         36.8320   84.4907   76.0765 C.3       2 GLC5        0.0000 
     71 CA         35.5010   82.7560   75.4230 C.3       6 GLL5        0.0000 
     72 CA         34.3740   84.5780   74.9995 C.3       2 GLC5        0.0000 
     73 CA         33.7320   86.5850   75.0780 C.3       4 GLP5        0.0000 
     74 CA         33.1370   85.0745   74.4901 C.3       2 GLC5        0.0000 
     75 CA         32.5665   83.0138   71.2495 C.3       2 GLC5        0.0000 
     76 CA         31.1943   84.7761   72.3147 C.3       2 GLC5        0.0000 
     77 CA         32.1760   82.4990   72.5770 C.3       6 GLL5        0.0000 
     78 CA         30.3060   86.4280   71.4740 C.3       4 GLP5        0.0000 
     79 CA         30.0012   83.0176   72.8849 C.3       2 GLC5        0.0000 
     80 CA         28.1760   83.2110   72.4980 C.3       4 GLP5        0.0000 
     81 CA         30.3729   80.1084   74.1475 C.3       2 GLC5        0.0000 
     82 CA         31.2270   80.8240   75.0720 C.3       6 GLL5        0.0000 
     83 CA         30.8209   80.9636   76.5703 C.3       2 GLC5        0.0000 
@<TRIPOS>BOND
@<TRIPOS>SUBSTRUCTURE
     1 SEC2       42 GROUP        1 X    SEC  0     ROOT SEC X 2
     2 GLC5        1 GROUP        1 X    GLC  0     **** GLC X 6
     3 SEP2       44 GROUP        1 Y    SEP  0     ROOT SEP Y 9
     4 GLP5        3 GROUP        1 Y    GLP  0     **** GLP Y 13
     5 SEL2       43 GROUP        1 Z    SEL  0     ROOT SEL Z 16
     6 GLL5        2 GROUP        1 Z    GLL  0     **** GLL Z 20
@<TRIPOS>SET

