#    Name: 1pqc_444_3_ligand
#    Modification time : Mon Mar 24 22:06:28 2014

@<TRIPOS>MOLECULE
1pqc_444_3_ligand
   43    44     1     0     0
SMALL
NO_CHARGES


@<TRIPOS>ATOM
      1 O13        39.2860   80.2540   75.4030 O.2       1 4443500     0.0000 
      2 S12        39.7750   80.8450   74.2030 S.o2      1 4443500     0.0000 
      3 O14        41.2150   81.0380   74.2170 O.2       1 4443500     0.0000 
      4 C01        39.4510   79.7450   72.8510 C.ar      1 4443500     0.0000 
      5 C02        40.4710   79.5280   71.8570 C.ar      1 4443500     0.0000 
      6 C03        40.2040   78.6770   70.7600 C.ar      1 4443500     0.0000 
      7 C04        38.9340   78.0630   70.6520 C.ar      1 4443500     0.0000 
      8 C05        37.9270   78.3010   71.6430 C.ar      1 4443500     0.0000 
      9 C06        38.1730   79.1560   72.7440 C.ar      1 4443500     0.0000 
     10 N15        38.8490   82.2860   73.7380 N.pl3     1 4443500     0.0000 
     11 C16        39.2440   82.9870   72.4140 C.3       1 4443500     0.0000 
     12 C19        39.4530   84.4830   72.5980 C.3       1 4443500     0.0000 
     13 F22        39.9580   85.0570   71.4810 F         1 4443500     0.0000 
     14 F21        40.2950   84.8010   73.5920 F         1 4443500     0.0000 
     15 F20        38.3130   85.0940   72.9190 F         1 4443500     0.0000 
     16 C23        37.3740   82.2860   73.9140 C.ar      1 4443500     0.0000 
     17 C24        36.8830   82.7070   75.1670 C.ar      1 4443500     0.0000 
     18 C25        35.5010   82.7560   75.4230 C.ar      1 4443500     0.0000 
     19 C28        36.4280   81.9100   72.8940 C.ar      1 4443500     0.0000 
     20 C27        35.0380   81.9540   73.1520 C.ar      1 4443500     0.0000 
     21 C26        34.5310   82.3860   74.4190 C.ar      1 4443500     0.0000 
     22 C33        33.0390   82.4550   74.8340 C.3       1 4443500     0.0000 
     23 C34        32.1270   83.1030   73.7730 C.3       1 4443500     0.0000 
     24 F36        30.8270   83.1960   74.1600 F         1 4443500     0.0000 
     25 F37        32.5010   84.3490   73.5010 F         1 4443500     0.0000 
     26 F35        32.1760   82.4990   72.5770 F         1 4443500     0.0000 
     27 O42        32.8160   83.0680   76.1320 O.3       1 4443500     0.0000 
     28 C38        32.5550   81.0230   75.0030 C.3       1 4443500     0.0000 
     29 F39        33.0540   80.2240   74.0450 F         1 4443500     0.0000 
     30 F40        33.0180   80.5460   76.1670 F         1 4443500     0.0000 
     31 F41        31.2270   80.8240   75.0720 F         1 4443500     0.0000 
     32 H          41.3683   79.9869   71.9541 H         1 4443500     0.0000 
     33 H          40.9165   78.5079   70.0562 H         1 4443500     0.0000 
     34 H          38.7263   77.4458   69.8668 H         1 4443500     0.0000 
     35 H          37.0161   77.8413   71.5465 H         1 4443500     0.0000 
     36 H          37.4577   79.3369   73.4279 H         1 4443500     0.0000 
     37 H          38.4527   82.8146   71.6805 H         1 4443500     0.0000 
     38 H          40.1643   82.5311   72.0410 H         1 4443500     0.0000 
     39 H          37.5469   82.9821   75.9038 H         1 4443500     0.0000 
     40 H          35.1563   83.0607   76.3430 H         1 4443500     0.0000 
     41 H          36.7751   81.6115   71.9828 H         1 4443500     0.0000 
     42 H          34.3741   81.6722   72.4214 H         1 4443500     0.0000 
     43 H          31.8852   83.4302   76.0834 H         1 4443500     0.0000 
@<TRIPOS>BOND
     1    2    1 2    
     2    3    2 2    
     3    4    2 1    
     4   10    2 1    
     5    5    4 ar   
     6    9    4 ar   
     7    6    5 ar   
     8   32    5 1    
     9    7    6 ar   
    10   33    6 1    
    11    8    7 ar   
    12   34    7 1    
    13    9    8 ar   
    14   35    8 1    
    15   36    9 1    
    16   11   10 1    
    17   16   10 1    
    18   12   11 1    
    19   37   11 1    
    20   38   11 1    
    21   13   12 1    
    22   14   12 1    
    23   15   12 1    
    24   17   16 ar   
    25   19   16 ar   
    26   18   17 ar   
    27   39   17 1    
    28   21   18 ar   
    29   40   18 1    
    30   20   19 ar   
    31   41   19 1    
    32   21   20 ar   
    33   42   20 1    
    34   22   21 1    
    35   23   22 1    
    36   27   22 1    
    37   28   22 1    
    38   24   23 1    
    39   25   23 1    
    40   26   23 1    
    41   43   27 1    
    42   29   28 1    
    43   30   28 1    
    44   31   28 1    
@<TRIPOS>SUBSTRUCTURE
     1 4443500     1 GROUP   
@<TRIPOS>SET

