#    Name: 3q44_D50_1_INTS_M
#    Modification time : Tue Mar 25 08:53:06 2014

@<TRIPOS>MOLECULE
3q44_D50_1_INTS_M
   94     0    15     0     0
SMALL
NO_CHARGES


@<TRIPOS>ATOM
      1 CA         18.3650    8.5595    5.7535 C.3       5 GLC5        0.0000 
      2 CA         17.2420    9.0780    7.0360 C.3      15 GLL5        0.0000 
      3 CA         19.4880    8.0410    4.4710 C.3      10 GLP5        0.0000 
      4 CA         18.9450   10.0290    7.2810 C.3       5 GLC5        0.0000 
      5 CA         20.6480   10.9800    7.5260 C.3      10 GLP5        0.0000 
      6 O          15.5980   11.9470    9.7605 O.2       1 ALC1        0.0000 
      7 O          15.4250   10.7780   10.5820 O.2      11 ALL1        0.0000 
      8 O          15.7710   13.1160    8.9390 O.2       6 ALP1        0.0000 
      9 N          12.8990    9.0140   12.1640 N.am      2 SEC2        0.0000 
     10 N          13.9390    9.6190   11.7240 N.am     12 SEL2        0.0000 
     11 N          11.8590    8.4090   12.6040 N.am      7 SEP2        0.0000 
     12 OD1        10.4305   13.3465   12.9240 O.co2     3 ASC3        0.0000 
     13 OD1        11.2460   12.7430   11.9840 O.co2    13 ASL3        0.0000 
     14 OD1         9.6150   13.9500   13.8640 O.co2     8 ASP3        0.0000 
     15 OD1         9.6865   12.5650   13.0730 O.co2     3 ASC3        0.0000 
     16 OD1         8.1270   12.3870   14.1620 O.co2     8 ASP3        0.0000 
     17 OD1        11.2675   13.8700   11.2650 O.co2     3 ASC3        0.0000 
     18 OD1        11.2890   14.9970   10.5460 O.co2     8 ASP3        0.0000 
     19 OD1        10.1660   13.6695   11.1570 O.co2     3 ASC3        0.0000 
     20 OD1         9.0860   14.5960   10.3300 O.co2     8 ASP3        0.0000 
     21 OD1        10.3955   11.6790   11.3760 O.co2     3 ASC3        0.0000 
     22 OD1         9.5450   10.6150   10.7680 O.co2     8 ASP3        0.0000 
     23 O          10.4305   13.3465   12.9240 O.2       1 ALC1        0.0000 
     24 O          11.2460   12.7430   11.9840 O.2      11 ALL1        0.0000 
     25 O           9.6150   13.9500   13.8640 O.2       6 ALP1        0.0000 
     26 O          11.2675   13.8700   11.2650 O.2       1 ALC1        0.0000 
     27 O          11.2890   14.9970   10.5460 O.2       6 ALP1        0.0000 
     28 O          10.3955   11.6790   11.3760 O.2       1 ALC1        0.0000 
     29 O           9.5450   10.6150   10.7680 O.2       6 ALP1        0.0000 
     30 Zn         12.2755   11.5340    9.4190 Zn        4 ZIC7        0.0000 
     31 Zn         12.8170   12.1970    9.8930 Zn       14 ZIL7        0.0000 
     32 Zn         11.7340   10.8710    8.9450 Zn        9 ZIP7        0.0000 
     33 O          13.3440   13.1915    9.3195 O.2       1 ALC1        0.0000 
     34 O          12.8170   12.1970    9.8930 O.2      11 ALL1        0.0000 
     35 O          13.8710   14.1860    8.7460 O.2       6 ALP1        0.0000 
     36 O          14.2940   12.6565    9.4160 O.2       1 ALC1        0.0000 
     37 CA         14.2625    6.5985    7.3840 C.3       5 GLC5        0.0000 
     38 CA         15.8120    7.6000    8.4500 C.3      15 GLL5        0.0000 
     39 CA         12.7130    5.5970    6.3180 C.3      10 GLP5        0.0000 
     40 CA         14.2220    7.3020    9.6290 C.3       5 GLC5        0.0000 
     41 CA         12.6320    7.0040   10.8080 C.3      10 GLP5        0.0000 
     42 CA         18.9085   10.2600    8.4715 C.3       5 GLC5        0.0000 
     43 CA         17.1690    9.5400    9.4170 C.3      15 GLL5        0.0000 
     44 N          18.2380   11.0050   13.2990 N.am      2 SEC2        0.0000 
     45 N          17.1020   10.7430   12.6490 N.am     12 SEL2        0.0000 
     46 N          19.3740   11.2670   13.9490 N.am      7 SEP2        0.0000 
     47 N          17.7690   12.1065   12.4435 N.am      2 SEC2        0.0000 
     48 N          18.4360   13.4700   12.2380 N.am      7 SEP2        0.0000 
     49 N          18.7245   10.0415   13.0450 N.am      2 SEC2        0.0000 
     50 N          18.0750    8.8160   12.1410 N.am     12 SEL2        0.0000 
     51 CA         13.5985   11.6025    8.9920 C.3       5 GLC5        0.0000 
     52 CA         13.4490   11.9820   11.1860 C.3      15 GLL5        0.0000 
     53 CA         13.7480   11.2230    6.7980 C.3      10 GLP5        0.0000 
     54 CA         14.9560    9.9555   16.7775 C.3       5 GLC5        0.0000 
     55 CA         13.0230   10.0080   16.3840 C.3      15 GLL5        0.0000 
     56 CA         16.8890    9.9030   17.1710 C.3      10 GLP5        0.0000 
     57 CA         11.9630    8.1390   16.6845 C.3       5 GLC5        0.0000 
     58 CA         10.9030    6.2700   16.9850 C.3      10 GLP5        0.0000 
     59 CA         10.0140    9.0735   18.5825 C.3       5 GLC5        0.0000 
     60 CA         11.0280   10.4060   19.4460 C.3      15 GLL5        0.0000 
     61 CA          9.0000    7.7410   17.7190 C.3      10 GLP5        0.0000 
     62 CA         11.3120    5.7250   23.2060 C.3       5 GLC5        0.0000 
     63 CA         11.3270    7.5620   22.6600 C.3      15 GLL5        0.0000 
     64 CA         11.2970    3.8880   23.7520 C.3      10 GLP5        0.0000 
     65 CA         10.7505    5.4615   21.5015 C.3       5 GLC5        0.0000 
     66 CA         11.6540    7.1620   21.3580 C.3      15 GLL5        0.0000 
     67 CA          9.8470    3.7610   21.6450 C.3      10 GLP5        0.0000 
     68 CA         11.2245    7.1860   18.6530 C.3       5 GLC5        0.0000 
     69 CA         11.5460    8.1020   20.3210 C.3      15 GLL5        0.0000 
     70 CA         10.2670   12.9470   16.5335 C.3       5 GLC5        0.0000 
     71 CA         11.9620   12.0370   17.0600 C.3      15 GLL5        0.0000 
     72 CA          8.5720   13.8570   16.0070 C.3      10 GLP5        0.0000 
     73 CA         10.7880   13.8795   16.0605 C.3       5 GLC5        0.0000 
     74 CA         12.1930   12.6210   15.8070 C.3      15 GLL5        0.0000 
     75 CA          9.3830   15.1380   16.3140 C.3      10 GLP5        0.0000 
     76 CA         15.3415    9.4459    6.9191 C.3       5 GLC5        0.0000 
     77 CA         16.3420    9.0290    8.2410 C.3      15 GLL5        0.0000 
     78 CA         14.3810   10.5650    5.7940 C.3      10 GLP5        0.0000 
     79 CA          9.3235    8.8057   21.3422 C.3       5 GLC5        0.0000 
     80 CA         11.1280    9.4110   20.5780 C.3      15 GLL5        0.0000 
     81 CA          7.6760    8.0110   21.4520 C.3      10 GLP5        0.0000 
     82 CA         12.5380   10.4938   22.1773 C.3       5 GLC5        0.0000 
     83 CA         10.8140    9.7900   21.8870 C.3      15 GLL5        0.0000 
     84 CA         14.1050   11.3870   23.1220 C.3      10 GLP5        0.0000 
     85 CA          9.3975    8.1125   22.1228 C.3       5 GLC5        0.0000 
     86 CA         10.9110    8.8660   22.9270 C.3      15 GLL5        0.0000 
     87 CA         12.7895    9.0135   23.3372 C.3       5 GLC5        0.0000 
     88 CA         14.4600    9.8130   23.8810 C.3      10 GLP5        0.0000 
     89 CA          9.6380    7.8215   21.1457 C.3       5 GLC5        0.0000 
     90 CA         14.6349   11.9947   15.4448 C.3       5 GLC5        0.0000 
     91 CA         16.6100   11.9920   15.6590 C.3      10 GLP5        0.0000 
     92 CA         12.2244   14.2652   14.4216 C.3       5 GLC5        0.0000 
     93 CA         12.8380   11.8650   14.8410 C.3      15 GLL5        0.0000 
     94 CA         11.8600   16.1260   13.8510 C.3      10 GLP5        0.0000 
@<TRIPOS>BOND
@<TRIPOS>SUBSTRUCTURE
     1 ALC1        6 GROUP        1 X    ALC  0     ROOT ALC X 1
     2 SEC2        9 GROUP        1 X    SEC  0     **** SEC X 2
     3 ASC3       12 GROUP        1 X    ASC  0     **** ASC X 3
     4 ZIC7       30 GROUP        1 X    ZIC  0     **** ZIC X 5
     5 GLC5        1 GROUP        1 X    GLC  0     **** GLC X 6
     6 ALP1        8 GROUP        1 Y    ALP  0     ROOT ALP Y 8
     7 SEP2       11 GROUP        1 Y    SEP  0     **** SEP Y 9
     8 ASP3       14 GROUP        1 Y    ASP  0     **** ASP Y 10
     9 ZIP7       32 GROUP        1 Y    ZIP  0     **** ZIP Y 12
    10 GLP5        3 GROUP        1 Y    GLP  0     **** GLP Y 13
    11 ALL1        7 GROUP        1 Z    ALL  0     ROOT ALL Z 15
    12 SEL2       10 GROUP        1 Z    SEL  0     **** SEL Z 16
    13 ASL3       13 GROUP        1 Z    ASL  0     **** ASL Z 17
    14 ZIL7       31 GROUP        1 Z    ZIL  0     **** ZIL Z 19
    15 GLL5        2 GROUP        1 Z    GLL  0     **** GLL Z 20
@<TRIPOS>SET

