#    Name: 3q44_D50_1_ligand
#    Modification time : Tue Mar 25 08:53:06 2014

@<TRIPOS>MOLECULE
3q44_D50_1_ligand
   60    61     1     0     0
SMALL
NO_CHARGES


@<TRIPOS>ATOM
      1 C1         17.2420    9.0780    7.0360 C.3       1 D501086     0.0000 
      2 N1         15.4250   10.7780   10.5820 N.am      1 D501086     0.0000 
      3 O1         13.9390    9.6190   11.7240 O.2       1 D501086     0.0000 
      4 C2         16.3420    9.0290    8.2410 C.3       1 D501086     0.0000 
      5 N2         11.2460   12.7430   11.9840 N.4       1 D501086     0.0000 
      6 O2         12.8170   12.1970    9.8930 O.3       1 D501086     0.0000 
      7 C3         15.8120    7.6000    8.4500 C.3       1 D501086     0.0000 
      8 O3         12.1540   10.1800   18.6040 O.3       1 D501086     0.0000 
      9 C4         17.1690    9.5400    9.4170 C.3       1 D501086     0.0000 
     10 O4         17.1020   10.7430   12.6490 O.co2     1 D501086     0.0000 
     11 C5         16.3490    9.6640   10.6690 C.3       1 D501086     0.0000 
     12 O5         18.0750    8.8160   12.1410 O.co2     1 D501086     0.0000 
     13 C6         14.2660   10.6850   11.1690 C.2       1 D501086     0.0000 
     14 C7         13.4490   11.9820   11.1860 C.3       1 D501086     0.0000 
     15 C8         12.4360   11.9060   12.3170 C.3       1 D501086     0.0000 
     16 C9         13.1310   12.5110   13.5140 C.3       1 D501086     0.0000 
     17 C10        12.8380   11.8650   14.8410 C.ar      1 D501086     0.0000 
     18 C11        13.2690   10.5600   15.1310 C.ar      1 D501086     0.0000 
     19 C12        13.0230   10.0080   16.3840 C.ar      1 D501086     0.0000 
     20 C13        12.3690   10.7420   17.3480 C.ar      1 D501086     0.0000 
     21 C14        11.0280   10.4060   19.4460 C.3       1 D501086     0.0000 
     22 C15        11.1280    9.4110   20.5780 C.ar      1 D501086     0.0000 
     23 C16        10.8140    9.7900   21.8870 C.ar      1 D501086     0.0000 
     24 C17        10.9110    8.8660   22.9270 C.ar      1 D501086     0.0000 
     25 C18        11.3270    7.5620   22.6600 C.ar      1 D501086     0.0000 
     26 C19        11.6540    7.1620   21.3580 C.ar      1 D501086     0.0000 
     27 C20        11.5460    8.1020   20.3210 C.ar      1 D501086     0.0000 
     28 C21        11.9620   12.0370   17.0600 C.ar      1 D501086     0.0000 
     29 C22        12.1930   12.6210   15.8070 C.ar      1 D501086     0.0000 
     30 C23        17.2050    9.7750   11.8940 C.2       1 D501086     0.0000 
     31 H          15.7431   11.5984   10.0496 H         1 D501086     0.0000 
     32 H          15.5166    9.6979    8.0809 H         1 D501086     0.0000 
     33 H          17.5918   10.5170    9.1531 H         1 D501086     0.0000 
     34 H          18.0037    8.8494    9.5880 H         1 D501086     0.0000 
     35 H          15.7583    8.7269   10.7668 H         1 D501086     0.0000 
     36 H          14.1418   12.7926   11.4101 H         1 D501086     0.0000 
     37 H          12.1812   10.9153   12.5087 H         1 D501086     0.0000 
     38 H          12.8658   13.5930   13.5721 H         1 D501086     0.0000 
     39 H          14.2321   12.4895   13.3366 H         1 D501086     0.0000 
     40 H          13.7650   10.0185   14.4144 H         1 D501086     0.0000 
     41 H          13.3342    9.0449   16.5854 H         1 D501086     0.0000 
     42 H          10.0909   10.2382   18.9239 H         1 D501086     0.0000 
     43 H          11.0312   11.4066   19.8677 H         1 D501086     0.0000 
     44 H          10.5111   10.7526   22.0813 H         1 D501086     0.0000 
     45 H          10.6769    9.1448   23.8860 H         1 D501086     0.0000 
     46 H          11.3959    6.8791   23.4317 H         1 D501086     0.0000 
     47 H          11.9620    6.2150   21.1673 H         1 D501086     0.0000 
     48 H          11.7790    7.8203   19.3564 H         1 D501086     0.0000 
     49 H          11.4725   12.5934   17.7886 H         1 D501086     0.0000 
     50 H          11.8933   13.5721   15.6194 H         1 D501086     0.0000 
     51 H          17.5973    9.9988    6.8751 H         1 D501086     0.0000 
     52 H          18.0315    8.4727    7.1373 H         1 D501086     0.0000 
     53 H          16.7635    8.7988    6.2035 H         1 D501086     0.0000 
     54 H          11.4895   13.5212   11.4051 H         1 D501086     0.0000 
     55 H          10.5493   12.2196   11.4935 H         1 D501086     0.0000 
     56 H          10.8108   13.1130   12.8048 H         1 D501086     0.0000 
     57 H          16.5546    6.9455    8.5919 H         1 D501086     0.0000 
     58 H          15.2116    7.5395    9.2474 H         1 D501086     0.0000 
     59 H          15.2859    7.2801    7.6621 H         1 D501086     0.0000 
     60 H          13.5229   12.6242    9.3279 H         1 D501086     0.0000 
@<TRIPOS>BOND
     1    4    1 1    
     2   51    1 1    
     3   52    1 1    
     4   53    1 1    
     5   11    2 1    
     6   13    2 am   
     7   31    2 1    
     8   13    3 2    
     9    7    4 1    
    10    9    4 1    
    11   32    4 1    
    12   15    5 1    
    13   54    5 1    
    14   55    5 1    
    15   56    5 1    
    16   14    6 1    
    17   60    6 1    
    18   57    7 1    
    19   58    7 1    
    20   59    7 1    
    21   20    8 1    
    22   21    8 1    
    23   11    9 1    
    24   33    9 1    
    25   34    9 1    
    26   30   10 ar   
    27   30   11 1    
    28   35   11 1    
    29   30   12 ar   
    30   14   13 1    
    31   15   14 1    
    32   36   14 1    
    33   16   15 1    
    34   37   15 1    
    35   17   16 1    
    36   38   16 1    
    37   39   16 1    
    38   18   17 ar   
    39   29   17 ar   
    40   19   18 ar   
    41   40   18 1    
    42   20   19 ar   
    43   41   19 1    
    44   28   20 ar   
    45   22   21 1    
    46   42   21 1    
    47   43   21 1    
    48   23   22 ar   
    49   27   22 ar   
    50   24   23 ar   
    51   44   23 1    
    52   25   24 ar   
    53   45   24 1    
    54   26   25 ar   
    55   46   25 1    
    56   27   26 ar   
    57   47   26 1    
    58   48   27 1    
    59   29   28 ar   
    60   49   28 1    
    61   50   29 1    
@<TRIPOS>SUBSTRUCTURE
     1 D501086     1 GROUP   
@<TRIPOS>SET

