#    Name: 4BNG_3_CAVITY_N1_ALL.mol2
#    Modification time : Tue Mar 11 20:09:44 2014

@<TRIPOS>MOLECULE
4BNG_3_CAVITY_N1_ALL.mol2
   72     0     6     0     0
SMALL
NO_CHARGES


@<TRIPOS>ATOM
      1 O           7.5612  -38.5293   39.6235 O.2       2 ALA2        0.0000 
      2 CZ          8.2760  -38.6134   37.6280 C.ar      4 PHE5        0.0000 
      3 CZ          6.9238  -38.6792   38.2739 C.ar      4 PHE5        0.0000 
      4 CA          5.5716  -38.7450   38.9198 C.3       5 GLY6        0.0000 
      5 CA          9.1331  -32.5834   36.5535 C.3       5 GLY6        0.0000 
      6 CA          7.7809  -32.6492   37.1994 C.3       5 GLY6        0.0000 
      7 CA          6.4287  -32.7151   37.8453 C.3       5 GLY6        0.0000 
      8 O           8.3998  -40.1044   37.7351 O.2       2 ALA2        0.0000 
      9 O           7.0476  -40.1703   38.3811 O.2       2 ALA2        0.0000 
     10 CA          5.6954  -40.2361   39.0270 C.3       5 GLY6        0.0000 
     11 CA          4.3432  -40.3019   39.6729 C.3       5 GLY6        0.0000 
     12 CA          7.7624  -40.2543   36.3856 C.3       5 GLY6        0.0000 
     13 NZ          6.4102  -40.3201   37.0315 N.2       3 LYS4        0.0000 
     14 NZ          5.0580  -40.3860   37.6774 N.2       3 LYS4        0.0000 
     15 NZ          3.7058  -40.4518   38.3234 N.2       3 LYS4        0.0000 
     16 CZ          7.4374  -37.0383   39.5163 C.ar      4 PHE5        0.0000 
     17 CZ          8.1522  -37.1224   37.5208 C.ar      4 PHE5        0.0000 
     18 CZ          6.8000  -37.1882   38.1668 C.ar      4 PHE5        0.0000 
     19 DU          5.4478  -37.2540   38.8127 H         6 CUB7        0.0000 
     20 O          10.2193  -37.1406   34.8794 O.2       2 ALA2        0.0000 
     21 CZ          8.8671  -37.2064   35.5254 C.ar      4 PHE5        0.0000 
     22 OG          7.5149  -37.2722   36.1713 O.2       1 SER1        0.0000 
     23 OG          6.1627  -37.3381   36.8172 O.2       1 SER1        0.0000 
     24 CA          4.8105  -37.4039   37.4631 C.3       5 GLY6        0.0000 
     25 CA          3.4583  -37.4697   38.1091 C.3       5 GLY6        0.0000 
     26 O          10.9341  -37.2247   32.8839 O.2       2 ALA2        0.0000 
     27 CA          9.5819  -37.2905   33.5299 C.3       5 GLY6        0.0000 
     28 CA          8.2297  -37.3563   34.1758 C.3       5 GLY6        0.0000 
     29 OG          6.8775  -37.4221   34.8217 O.2       1 SER1        0.0000 
     30 OG          5.5253  -37.4880   35.4677 O.2       1 SER1        0.0000 
     31 CA          4.1731  -37.5538   36.1136 C.3       5 GLY6        0.0000 
     32 CA          7.1436  -32.7991   35.8498 C.3       5 GLY6        0.0000 
     33 CA          5.7914  -32.8649   36.4958 C.3       5 GLY6        0.0000 
     34 CA          5.1540  -33.0148   35.1462 C.3       5 GLY6        0.0000 
     35 O           3.8018  -33.0807   35.7921 O.2       2 ALA2        0.0000 
     36 CZ          8.6658  -35.4814   38.7632 C.ar      4 PHE5        0.0000 
     37 CZ          7.3136  -35.5473   39.4092 C.ar      4 PHE5        0.0000 
     38 CZ          9.3807  -35.5655   36.7678 C.ar      4 PHE5        0.0000 
     39 CZ          8.0285  -35.6313   37.4137 C.ar      4 PHE5        0.0000 
     40 DU          6.6763  -35.6971   38.0596 H         6 CUB7        0.0000 
     41 N           8.7433  -35.7154   35.4182 N.2       2 ALA2        0.0000 
     42 DU          7.3911  -35.7812   36.0641 H         6 CUB7        0.0000 
     43 DU          6.0389  -35.8470   36.7101 H         6 CUB7        0.0000 
     44 DU          4.6867  -35.9128   37.3560 H         6 CUB7        0.0000 
     45 CA          3.3345  -35.9787   38.0019 C.3       5 GLY6        0.0000 
     46 O          10.8103  -35.7336   32.7768 O.2       2 ALA2        0.0000 
     47 CA          9.4581  -35.7994   33.4227 C.3       5 GLY6        0.0000 
     48 CA          8.1059  -35.8653   34.0687 C.3       5 GLY6        0.0000 
     49 CA          6.7537  -35.9311   34.7146 C.3       5 GLY6        0.0000 
     50 CA          5.4015  -35.9969   35.3605 C.3       5 GLY6        0.0000 
     51 N           4.0493  -36.0627   36.0064 N.2       2 ALA2        0.0000 
     52 CA          2.6971  -36.1286   36.6524 C.3       5 GLY6        0.0000 
     53 CZ          8.9908  -38.6975   35.6325 C.ar      4 PHE5        0.0000 
     54 OG          7.6386  -38.7633   36.2784 O.2       1 SER1        0.0000 
     55 OG          6.2864  -38.8291   36.9244 O.2       1 SER1        0.0000 
     56 CA          4.9342  -38.8949   37.5703 C.3       5 GLY6        0.0000 
     57 OG          8.3535  -38.8473   34.2829 O.2       1 SER1        0.0000 
     58 CA          4.2969  -39.0448   36.2207 C.3       5 GLY6        0.0000 
     59 N           9.8943  -33.9246   38.0102 N.2       2 ALA2        0.0000 
     60 CZ          8.5421  -33.9904   38.6561 C.ar      4 PHE5        0.0000 
     61 N           9.2569  -34.0744   36.6606 N.2       2 ALA2        0.0000 
     62 CA          7.9047  -34.1403   37.3065 C.3       5 GLY6        0.0000 
     63 DU          6.5525  -34.2061   37.9525 H         6 CUB7        0.0000 
     64 DU          5.2003  -34.2719   38.5984 H         6 CUB7        0.0000 
     65 N           8.6195  -34.2243   35.3111 N.2       2 ALA2        0.0000 
     66 DU          7.2673  -34.2902   35.9570 H         6 CUB7        0.0000 
     67 DU          5.9151  -34.3560   36.6029 H         6 CUB7        0.0000 
     68 DU          4.5629  -34.4218   37.2488 H         6 CUB7        0.0000 
     69 CA          7.9822  -34.3742   33.9615 C.3       5 GLY6        0.0000 
     70 N           6.6300  -34.4400   34.6074 N.2       2 ALA2        0.0000 
     71 N           5.2778  -34.5059   35.2534 N.2       2 ALA2        0.0000 
     72 N           3.9256  -34.5717   35.8993 N.2       2 ALA2        0.0000 
@<TRIPOS>BOND
@<TRIPOS>SUBSTRUCTURE
     1 SER1       22 GROUP   
     2 ALA2        1 GROUP   
     3 LYS4       13 GROUP   
     4 PHE5        2 GROUP   
     5 GLY6        4 GROUP   
     6 CUB7       19 GROUP   
@<TRIPOS>SET

