#    Name: 4BNG_3_CAVITY_N1_6.mol2
#    Modification time : Tue Mar 11 20:09:44 2014

@<TRIPOS>MOLECULE
4BNG_3_CAVITY_N1_6.mol2
   28     0     5     0     0
SMALL
NO_CHARGES


@<TRIPOS>ATOM
      1 CZ          8.2760  -38.6134   37.6280 C.ar      3 PHE5        0.0000 
      2 CA          7.7624  -40.2543   36.3856 C.3       4 GLY6        0.0000 
      3 CZ          8.1522  -37.1224   37.5208 C.ar      3 PHE5        0.0000 
      4 O          10.2193  -37.1406   34.8794 O.2       2 ALA2        0.0000 
      5 CZ          8.8671  -37.2064   35.5254 C.ar      3 PHE5        0.0000 
      6 OG          7.5149  -37.2722   36.1713 O.2       1 SER1        0.0000 
      7 OG          6.1627  -37.3381   36.8172 O.2       1 SER1        0.0000 
      8 O          10.9341  -37.2247   32.8839 O.2       2 ALA2        0.0000 
      9 CA          9.5819  -37.2905   33.5299 C.3       4 GLY6        0.0000 
     10 CA          8.2297  -37.3563   34.1758 C.3       4 GLY6        0.0000 
     11 OG          6.8775  -37.4221   34.8217 O.2       1 SER1        0.0000 
     12 OG          5.5253  -37.4880   35.4677 O.2       1 SER1        0.0000 
     13 CZ          9.3807  -35.5655   36.7678 C.ar      3 PHE5        0.0000 
     14 N           8.7433  -35.7154   35.4182 N.2       2 ALA2        0.0000 
     15 DU          7.3911  -35.7812   36.0641 H         5 CUB7        0.0000 
     16 O          10.8103  -35.7336   32.7768 O.2       2 ALA2        0.0000 
     17 CA          9.4581  -35.7994   33.4227 C.3       4 GLY6        0.0000 
     18 CA          8.1059  -35.8653   34.0687 C.3       4 GLY6        0.0000 
     19 CA          6.7537  -35.9311   34.7146 C.3       4 GLY6        0.0000 
     20 CA          5.4015  -35.9969   35.3605 C.3       4 GLY6        0.0000 
     21 CZ          8.9908  -38.6975   35.6325 C.ar      3 PHE5        0.0000 
     22 OG          7.6386  -38.7633   36.2784 O.2       1 SER1        0.0000 
     23 OG          8.3535  -38.8473   34.2829 O.2       1 SER1        0.0000 
     24 N           9.2569  -34.0744   36.6606 N.2       2 ALA2        0.0000 
     25 N           8.6195  -34.2243   35.3111 N.2       2 ALA2        0.0000 
     26 DU          7.2673  -34.2902   35.9570 H         5 CUB7        0.0000 
     27 CA          7.9822  -34.3742   33.9615 C.3       4 GLY6        0.0000 
     28 N           6.6300  -34.4400   34.6074 N.2       2 ALA2        0.0000 
@<TRIPOS>BOND
@<TRIPOS>SUBSTRUCTURE
     1 SER1        6 GROUP   
     2 ALA2        4 GROUP   
     3 PHE5        1 GROUP   
     4 GLY6        2 GROUP   
     5 CUB7       15 GROUP   
@<TRIPOS>SET

