#    Name: 4bng_5PP_3_INTS_M
#    Modification time : Tue Mar 25 07:57:02 2014

@<TRIPOS>MOLECULE
4bng_5PP_3_INTS_M
   75     0     9     0     0
SMALL
NO_CHARGES


@<TRIPOS>ATOM
      1 N          10.8690  -38.1050   26.3245 N.am      2 SEC2        0.0000 
      2 N           9.7690  -38.5100   26.8970 N.am      8 SEL2        0.0000 
      3 N          11.9690  -37.7000   25.7520 N.am      5 SEP2        0.0000 
      4 O           9.9155  -39.6595   27.5220 O.2       1 ALC1        0.0000 
      5 O           9.7690  -38.5100   26.8970 O.2       7 ALL1        0.0000 
      6 O          10.0620  -40.8090   28.1470 O.2       4 ALP1        0.0000 
      7 CA         11.3725  -36.7240   29.0515 C.3       3 GLC5        0.0000 
      8 CA          9.2630  -36.6280   29.6940 C.3       9 GLL5        0.0000 
      9 CA         13.4820  -36.8200   28.4090 C.3       6 GLP5        0.0000 
     10 CA         12.2280  -35.6945   32.6365 C.3       3 GLC5        0.0000 
     11 CA         10.3440  -36.6420   31.8740 C.3       9 GLL5        0.0000 
     12 CA         14.1120  -34.7470   33.3990 C.3       6 GLP5        0.0000 
     13 CA          5.1600  -36.2145   28.5340 C.3       3 GLC5        0.0000 
     14 CA          6.4330  -37.1880   27.6370 C.3       9 GLL5        0.0000 
     15 CA          3.8870  -35.2410   29.4310 C.3       6 GLP5        0.0000 
     16 CA          4.6310  -36.0845   27.3315 C.3       3 GLC5        0.0000 
     17 CA          6.1990  -36.4890   26.4630 C.3       9 GLL5        0.0000 
     18 CA          3.0630  -35.6800   28.2000 C.3       6 GLP5        0.0000 
     19 CA          9.5450  -37.9690   24.1305 C.3       3 GLC5        0.0000 
     20 CA          8.3240  -37.1410   25.5590 C.3       9 GLL5        0.0000 
     21 CA         10.7660  -38.7970   22.7020 C.3       6 GLP5        0.0000 
     22 CA          7.6075  -36.2100   22.4715 C.3       3 GLC5        0.0000 
     23 CA          6.9430  -35.6990   24.2450 C.3       9 GLL5        0.0000 
     24 CA          8.2720  -36.7210   20.6980 C.3       6 GLP5        0.0000 
     25 CA          5.3595  -35.7030   22.8815 C.3       3 GLC5        0.0000 
     26 CA          3.7760  -35.7070   21.5180 C.3       6 GLP5        0.0000 
     27 CA          6.8095  -37.7270   24.0470 C.3       3 GLC5        0.0000 
     28 CA          6.6760  -39.7550   23.8490 C.3       6 GLP5        0.0000 
     29 CA          8.6435  -34.7420   23.0670 C.3       3 GLC5        0.0000 
     30 CA          7.2960  -34.2260   24.5660 C.3       9 GLL5        0.0000 
     31 CA          9.9910  -35.2580   21.5680 C.3       6 GLP5        0.0000 
     32 CA          9.4045  -34.1155   25.1855 C.3       3 GLC5        0.0000 
     33 CA         11.5130  -34.0050   25.8050 C.3       6 GLP5        0.0000 
     34 CA          7.9375  -34.3710   22.0905 C.3       3 GLC5        0.0000 
     35 CA          7.0340  -33.2810   23.3670 C.3       9 GLL5        0.0000 
     36 CA          8.8410  -35.4610   20.8140 C.3       6 GLP5        0.0000 
     37 CA          5.4050  -34.4940   22.4425 C.3       3 GLC5        0.0000 
     38 CA          6.3015  -32.5740   21.5680 C.3       3 GLC5        0.0000 
     39 CA          5.5690  -31.8670   19.7690 C.3       6 GLP5        0.0000 
     40 CA          5.6465  -30.9970   24.2315 C.3       3 GLC5        0.0000 
     41 CA          7.4390  -31.8320   23.6600 C.3       9 GLL5        0.0000 
     42 CA          3.8540  -30.1620   24.8030 C.3       6 GLP5        0.0000 
     43 CA          6.8395  -30.7095   22.0930 C.3       3 GLC5        0.0000 
     44 CA          6.2400  -29.5870   20.5260 C.3       6 GLP5        0.0000 
     45 CA          9.4895  -33.4480   22.6105 C.3       3 GLC5        0.0000 
     46 CA          8.9880  -31.6380   23.6530 C.3       9 GLL5        0.0000 
     47 CA         10.4195  -31.3940   22.3605 C.3       3 GLC5        0.0000 
     48 CA         11.8510  -31.1500   21.0680 C.3       6 GLP5        0.0000 
     49 CA         10.8680  -31.8910   24.1260 C.3       3 GLC5        0.0000 
     50 CA         12.7480  -32.1440   24.5990 C.3       6 GLP5        0.0000 
     51 CA          8.4760  -39.6790   27.7475 C.3       3 GLC5        0.0000 
     52 CA          8.5860  -37.8420   26.7450 C.3       9 GLL5        0.0000 
     53 CA          8.8320  -41.5090   28.2270 C.3       6 GLP5        0.0000 
     54 CA          8.8490  -39.8618   29.3560 C.3       3 GLC5        0.0000 
     55 CA          9.0050  -38.5320   31.0900 C.3       9 GLL5        0.0000 
     56 CA          8.6537  -34.8385   29.6633 C.3       3 GLC5        0.0000 
     57 CA          7.6290  -33.3540   29.1550 C.3       6 GLP5        0.0000 
     58 CA         10.3535  -34.5250   31.7747 C.3       3 GLC5        0.0000 
     59 CA         10.0940  -36.0180   30.6490 C.3       9 GLL5        0.0000 
     60 CA         10.4880  -32.7200   32.2880 C.3       6 GLP5        0.0000 
     61 CA         11.2022  -38.0542   33.3312 C.3       3 GLC5        0.0000 
     62 CA         12.3500  -38.8390   34.6860 C.3       6 GLP5        0.0000 
     63 CA         10.7430  -39.6887   31.3053 C.3       3 GLC5        0.0000 
     64 CA          9.7650  -37.8970   32.0790 C.3       9 GLL5        0.0000 
     65 CA         12.1010  -41.1630   31.0260 C.3       6 GLP5        0.0000 
     66 CA         11.9440  -37.3178   31.3901 C.3       3 GLC5        0.0000 
     67 CA         13.8960  -37.5220   31.1100 C.3       6 GLP5        0.0000 
     68 CA          7.6427  -38.0844   31.8330 C.3       3 GLC5        0.0000 
     69 CA          5.9700  -38.1130   32.3840 C.3       6 GLP5        0.0000 
     70 CA          6.9725  -35.0962   28.1025 C.3       3 GLC5        0.0000 
     71 CA          7.6780  -32.7103   25.6432 C.3       3 GLC5        0.0000 
     72 CA          8.1910  -31.6670   27.3200 C.3       6 GLP5        0.0000 
     73 CA          5.3359  -33.7669   24.5571 C.3       3 GLC5        0.0000 
     74 CA          3.5950  -33.4120   25.2280 C.3       6 GLP5        0.0000 
     75 CA          8.2023  -31.7010   25.4883 C.3       3 GLC5        0.0000 
@<TRIPOS>BOND
@<TRIPOS>SUBSTRUCTURE
     1 ALC1        4 GROUP        1 X    ALC  0     ROOT ALC X 1
     2 SEC2        1 GROUP        1 X    SEC  0     **** SEC X 2
     3 GLC5        7 GROUP        1 X    GLC  0     **** GLC X 6
     4 ALP1        6 GROUP        1 Y    ALP  0     ROOT ALP Y 8
     5 SEP2        3 GROUP        1 Y    SEP  0     **** SEP Y 9
     6 GLP5        9 GROUP        1 Y    GLP  0     **** GLP Y 13
     7 ALL1        5 GROUP        1 Z    ALL  0     ROOT ALL Z 15
     8 SEL2        2 GROUP        1 Z    SEL  0     **** SEL Z 16
     9 GLL5        8 GROUP        1 Z    GLL  0     **** GLL Z 20
@<TRIPOS>SET

