#    Name: 4bng_5PP_3_ligand
#    Modification time : Tue Mar 25 07:57:02 2014

@<TRIPOS>MOLECULE
4bng_5PP_3_ligand
   39    40     1     0     0
SMALL
NO_CHARGES


@<TRIPOS>ATOM
      1 O17         9.7690  -38.5100   26.8970 O.3       1 5PP1257     0.0000 
      2 C6          8.5860  -37.8420   26.7450 C.ar      1 5PP1257     0.0000 
      3 C5          7.6540  -37.8560   27.7910 C.ar      1 5PP1257     0.0000 
      4 O7          7.9700  -38.5400   28.9380 O.3       1 5PP1257     0.0000 
      5 C8          8.7270  -37.8970   29.8800 C.ar      1 5PP1257     0.0000 
      6 C13         9.2630  -36.6280   29.6940 C.ar      1 5PP1257     0.0000 
      7 C12        10.0940  -36.0180   30.6490 C.ar      1 5PP1257     0.0000 
      8 C11        10.3440  -36.6420   31.8740 C.ar      1 5PP1257     0.0000 
      9 C10         9.7650  -37.8970   32.0790 C.ar      1 5PP1257     0.0000 
     10 C9          9.0050  -38.5320   31.0900 C.ar      1 5PP1257     0.0000 
     11 C4          6.4330  -37.1880   27.6370 C.ar      1 5PP1257     0.0000 
     12 C3          6.1990  -36.4890   26.4630 C.ar      1 5PP1257     0.0000 
     13 C2          7.1230  -36.4740   25.4060 C.ar      1 5PP1257     0.0000 
     14 C1          8.3240  -37.1410   25.5590 C.ar      1 5PP1257     0.0000 
     15 C14         6.9430  -35.6990   24.2450 C.3       1 5PP1257     0.0000 
     16 C15         7.2960  -34.2260   24.5660 C.3       1 5PP1257     0.0000 
     17 C16         7.0340  -33.2810   23.3670 C.3       1 5PP1257     0.0000 
     18 C17         7.4390  -31.8320   23.6600 C.3       1 5PP1257     0.0000 
     19 C18         8.9880  -31.6380   23.6530 C.3       1 5PP1257     0.0000 
     20 H           9.0451  -36.1062   28.8191 H         1 5PP1257     0.0000 
     21 H          10.5198  -35.1053   30.4414 H         1 5PP1257     0.0000 
     22 H          10.9159  -36.2067   32.5776 H         1 5PP1257     0.0000 
     23 H           9.9021  -38.3738   32.9923 H         1 5PP1257     0.0000 
     24 H           8.6457  -39.4853   31.2611 H         1 5PP1257     0.0000 
     25 H           5.7341  -37.2190   28.3774 H         1 5PP1257     0.0000 
     26 H           5.3110  -35.9551   26.3541 H         1 5PP1257     0.0000 
     27 H           9.0278  -37.1287   24.8120 H         1 5PP1257     0.0000 
     28 H           5.9100  -35.7094   23.8867 H         1 5PP1257     0.0000 
     29 H           7.5935  -36.0120   23.4237 H         1 5PP1257     0.0000 
     30 H           8.3503  -34.1659   24.8401 H         1 5PP1257     0.0000 
     31 H           6.6963  -33.8949   25.4152 H         1 5PP1257     0.0000 
     32 H           5.9693  -33.3158   23.1202 H         1 5PP1257     0.0000 
     33 H           7.5975  -33.6463   22.5040 H         1 5PP1257     0.0000 
     34 H           7.0595  -31.5383   24.6396 H         1 5PP1257     0.0000 
     35 H           7.0059  -31.1728   22.9065 H         1 5PP1257     0.0000 
     36 H           9.4369  -32.2087   24.3406 H         1 5PP1257     0.0000 
     37 H           9.3881  -31.8760   22.7680 H         1 5PP1257     0.0000 
     38 H           9.2445  -30.6908   23.8454 H         1 5PP1257     0.0000 
     39 H           9.5322  -39.3462   27.3917 H         1 5PP1257     0.0000 
@<TRIPOS>BOND
     1    2    1 1    
     2   39    1 1    
     3    3    2 ar   
     4   14    2 ar   
     5    4    3 1    
     6   11    3 ar   
     7    5    4 1    
     8    6    5 ar   
     9   10    5 ar   
    10    7    6 ar   
    11   20    6 1    
    12    8    7 ar   
    13   21    7 1    
    14    9    8 ar   
    15   22    8 1    
    16   10    9 ar   
    17   23    9 1    
    18   24   10 1    
    19   12   11 ar   
    20   25   11 1    
    21   13   12 ar   
    22   26   12 1    
    23   14   13 ar   
    24   15   13 1    
    25   27   14 1    
    26   16   15 1    
    27   28   15 1    
    28   29   15 1    
    29   17   16 1    
    30   30   16 1    
    31   31   16 1    
    32   18   17 1    
    33   32   17 1    
    34   33   17 1    
    35   19   18 1    
    36   34   18 1    
    37   35   18 1    
    38   36   19 1    
    39   37   19 1    
    40   38   19 1    
@<TRIPOS>SUBSTRUCTURE
     1 5PP1257     1 GROUP   
@<TRIPOS>SET

