#    Name: 3dt3_369_2_INTS_M
#    Modification time : Tue Mar 25 00:03:56 2014

@<TRIPOS>MOLECULE
3dt3_369_2_INTS_M
   73     0     9     0     0
SMALL
NO_CHARGES


@<TRIPOS>ATOM
      1 CA         14.1700  -17.7065   25.8390 C.3       3 GLC5        0.0000 
      2 CA         14.9500  -15.8930   25.0660 C.3       9 GLL5        0.0000 
      3 CA         13.3900  -19.5200   26.6120 C.3       6 GLP5        0.0000 
      4 CA         16.2815  -15.0510   21.9470 C.3       3 GLC5        0.0000 
      5 CA         15.5070  -17.0270   22.5850 C.3       9 GLL5        0.0000 
      6 CA         17.0560  -13.0750   21.3090 C.3       6 GLP5        0.0000 
      7 CA         14.2965  -15.6515   21.3925 C.3       3 GLC5        0.0000 
      8 CA         13.0860  -14.2760   20.2000 C.3       6 GLP5        0.0000 
      9 CA         18.0700  -17.3660   21.3915 C.3       3 GLC5        0.0000 
     10 CA         15.8850  -17.5950   21.3890 C.3       9 GLL5        0.0000 
     11 CA         20.2550  -17.1370   21.3940 C.3       6 GLP5        0.0000 
     12 CA         15.8845  -17.4145   27.9465 C.3       3 GLC5        0.0000 
     13 CA         17.3020  -16.1640   27.1460 C.3       9 GLL5        0.0000 
     14 CA         14.4670  -18.6650   28.7470 C.3       6 GLP5        0.0000 
     15 CA         18.9885  -18.8210   26.7735 C.3       3 GLC5        0.0000 
     16 CA         19.5850  -16.7240   26.8540 C.3       9 GLL5        0.0000 
     17 CA         18.3920  -20.9180   26.6930 C.3       6 GLP5        0.0000 
     18 CA         21.0130  -14.7970   24.7075 C.3       3 GLC5        0.0000 
     19 CA         19.5110  -16.2060   25.5850 C.3       9 GLL5        0.0000 
     20 CA         22.5150  -13.3880   23.8300 C.3       6 GLP5        0.0000 
     21 CA         20.2720  -17.1680   23.9260 C.3       3 GLC5        0.0000 
     22 CA         21.0330  -18.1300   22.2670 C.3       6 GLP5        0.0000 
     23 CA         19.3060  -16.3975   23.2325 C.3       3 GLC5        0.0000 
     24 CA         18.3570  -15.6580   25.0710 C.3       9 GLL5        0.0000 
     25 CA         17.9965  -11.6420   25.0755 C.3       3 GLC5        0.0000 
     26 CA         16.9200  -12.8130   26.0170 C.3       9 GLL5        0.0000 
     27 CA         19.0730  -10.4710   24.1340 C.3       6 GLP5        0.0000 
     28 CA         18.5440  -12.2215   27.1405 C.3       3 GLC5        0.0000 
     29 CA         20.1680  -11.6300   28.2640 C.3       6 GLP5        0.0000 
     30 CA         16.8525  -11.5825   27.4015 C.3       3 GLC5        0.0000 
     31 CA         16.7850  -10.3520   28.7860 C.3       6 GLP5        0.0000 
     32 CA         16.4375  -13.3975   23.4385 C.3       3 GLC5        0.0000 
     33 CA         15.8190  -13.7200   25.5680 C.3       9 GLL5        0.0000 
     34 CA         15.5450  -11.3145   24.5255 C.3       3 GLC5        0.0000 
     35 CA         14.6040  -13.1770   25.2360 C.3       9 GLL5        0.0000 
     36 CA         16.4860   -9.4520   23.8150 C.3       6 GLP5        0.0000 
     37 N           9.1460  -12.9055   24.7065 N.am      2 SEC2        0.0000 
     38 N          10.1560  -13.5480   23.8030 N.am      8 SEL2        0.0000 
     39 N           8.1360  -12.2630   25.6100 N.am      5 SEP2        0.0000 
     40 O           9.3605  -14.1380   23.0380 O.2       1 ALC1        0.0000 
     41 O          10.1560  -13.5480   23.8030 O.2       7 ALL1        0.0000 
     42 O           8.5650  -14.7280   22.2730 O.2       4 ALP1        0.0000 
     43 CA          9.7595  -16.3710   24.8445 C.3       3 GLC5        0.0000 
     44 CA         11.4590  -15.5420   24.0060 C.3       9 GLL5        0.0000 
     45 CA          8.0600  -17.2000   25.6830 C.3       6 GLP5        0.0000 
     46 CA         12.2725  -14.9090   22.1030 C.3       3 GLC5        0.0000 
     47 CA         13.0285  -17.8235   25.4690 C.3       3 GLC5        0.0000 
     48 CA         12.6670  -16.1270   24.3260 C.3       9 GLL5        0.0000 
     49 CA         14.3450  -18.4745   21.0920 C.3       3 GLC5        0.0000 
     50 CA         16.3100  -18.8980   21.3540 C.3       9 GLL5        0.0000 
     51 CA         12.3800  -18.0510   20.8300 C.3       6 GLP5        0.0000 
     52 CA         17.1890  -19.9985   25.1980 C.3       3 GLC5        0.0000 
     53 CA         15.9860  -19.0790   23.7030 C.3       9 GLL5        0.0000 
     54 CA         18.7835  -18.7950   27.9875 C.3       3 GLC5        0.0000 
     55 CA         18.4650  -16.7040   27.6440 C.3       9 GLL5        0.0000 
     56 CA         19.1020  -20.8860   28.3310 C.3       6 GLP5        0.0000 
     57 CA         18.4135  -17.9530   29.0980 C.3       3 GLC5        0.0000 
     58 CA         18.3620  -19.2020   30.5520 C.3       6 GLP5        0.0000 
     59 CA         13.1310  -12.2884   26.3789 C.3       3 GLC5        0.0000 
     60 CA         12.3740  -13.3900   24.5200 C.3       9 GLL5        0.0000 
     61 CA         13.0320  -11.0910   27.9800 C.3       6 GLP5        0.0000 
     62 CA         12.4945  -12.9175   22.6794 C.3       3 GLC5        0.0000 
     63 CA         13.5680  -13.9860   24.8350 C.3       9 GLL5        0.0000 
     64 CA         12.8370  -11.9040   20.9640 C.3       6 GLP5        0.0000 
     65 CA         12.2215  -16.9427   22.4980 C.3       3 GLC5        0.0000 
     66 CA         14.5808  -18.9725   25.1683 C.3       3 GLC5        0.0000 
     67 CA         15.5570  -17.7710   23.7460 C.3       9 GLL5        0.0000 
     68 CA         14.0033  -17.7960   21.8482 C.3       3 GLC5        0.0000 
     69 CA         14.7821  -20.5429   22.7392 C.3       3 GLC5        0.0000 
     70 CA         13.4020  -21.9100   22.6620 C.3       6 GLP5        0.0000 
     71 CA         18.1531  -19.2124   22.7927 C.3       3 GLC5        0.0000 
     72 CA         16.3670  -19.6470   22.5060 C.3       9 GLL5        0.0000 
     73 CA         20.1440  -19.2490   22.7690 C.3       6 GLP5        0.0000 
@<TRIPOS>BOND
@<TRIPOS>SUBSTRUCTURE
     1 ALC1       40 GROUP        1 X    ALC  0     ROOT ALC X 1
     2 SEC2       37 GROUP        1 X    SEC  0     **** SEC X 2
     3 GLC5        1 GROUP        1 X    GLC  0     **** GLC X 6
     4 ALP1       42 GROUP        1 Y    ALP  0     ROOT ALP Y 8
     5 SEP2       39 GROUP        1 Y    SEP  0     **** SEP Y 9
     6 GLP5        3 GROUP        1 Y    GLP  0     **** GLP Y 13
     7 ALL1       41 GROUP        1 Z    ALL  0     ROOT ALL Z 15
     8 SEL2       38 GROUP        1 Z    SEL  0     **** SEL Z 16
     9 GLL5        2 GROUP        1 Z    GLL  0     **** GLL Z 20
@<TRIPOS>SET

