#    Name: 3dt3_369_2_ligand
#    Modification time : Tue Mar 25 00:03:56 2014

@<TRIPOS>MOLECULE
3dt3_369_2_ligand
   45    48     1     0     0
SMALL
NO_CHARGES


@<TRIPOS>ATOM
      1 C10        14.9500  -15.8930   25.0660 C.ar      1 3692        0.0000 
      2 C12        15.5070  -17.0270   22.5850 C.ar      1 3692        0.0000 
      3 C13        15.8850  -17.5950   21.3890 C.ar      1 3692        0.0000 
      4 C15        16.3670  -19.6470   22.5060 C.ar      1 3692        0.0000 
      5 C19        17.3020  -16.1640   27.1460 C.ar      1 3692        0.0000 
      6 C21        19.5850  -16.7240   26.8540 C.ar      1 3692        0.0000 
      7 C22        19.5110  -16.2060   25.5850 C.ar      1 3692        0.0000 
      8 C23        18.3570  -15.6580   25.0710 C.ar      1 3692        0.0000 
      9 C1         16.9200  -12.8130   26.0170 C.3       1 3692        0.0000 
     10 C2         15.8190  -13.7200   25.5680 C.ar      1 3692        0.0000 
     11 C3         14.6040  -13.1770   25.2360 C.ar      1 3692        0.0000 
     12 C4         13.5680  -13.9860   24.8350 C.ar      1 3692        0.0000 
     13 C5         12.3740  -13.3900   24.5200 C.ar      1 3692        0.0000 
     14 C6         11.3330  -14.1740   24.1120 C.ar      1 3692        0.0000 
     15 O1         10.1560  -13.5480   23.8030 O.3       1 3692        0.0000 
     16 C7         11.4590  -15.5420   24.0060 C.ar      1 3692        0.0000 
     17 C8         12.6670  -16.1270   24.3260 C.ar      1 3692        0.0000 
     18 C9         13.7240  -15.3500   24.7440 C.ar      1 3692        0.0000 
     19 O2         15.1780  -17.2620   24.9870 O.3       1 3692        0.0000 
     20 C11        15.5570  -17.7710   23.7460 C.ar      1 3692        0.0000 
     21 C14        16.3100  -18.8980   21.3540 C.ar      1 3692        0.0000 
     22 O3         16.6840  -19.4380   20.1350 O.3       1 3692        0.0000 
     23 C16        15.9860  -19.0790   23.7030 C.ar      1 3692        0.0000 
     24 C17        15.9920  -15.0850   25.4780 C.ar      1 3692        0.0000 
     25 C18        17.2420  -15.6440   25.8740 C.ar      1 3692        0.0000 
     26 C20        18.4650  -16.7040   27.6440 C.ar      1 3692        0.0000 
     27 O4         20.6450  -16.2420   24.8240 O.3       1 3692        0.0000 
     28 H          15.1867  -16.0468   22.6144 H         1 3692        0.0000 
     29 H          15.8474  -17.0373   20.5197 H         1 3692        0.0000 
     30 H          16.6910  -20.6231   22.4764 H         1 3692        0.0000 
     31 H          16.4487  -16.1486   27.7449 H         1 3692        0.0000 
     32 H          20.4653  -17.1198   27.2049 H         1 3692        0.0000 
     33 H          18.3321  -15.2764   24.1276 H         1 3692        0.0000 
     34 H          14.4653  -12.1510   25.2874 H         1 3692        0.0000 
     35 H          12.2669  -12.3701   24.5906 H         1 3692        0.0000 
     36 H          10.6695  -16.1160   23.6949 H         1 3692        0.0000 
     37 H          12.7775  -17.1522   24.2512 H         1 3692        0.0000 
     38 H          16.0227  -19.6383   24.5725 H         1 3692        0.0000 
     39 H          18.4916  -17.0876   28.5980 H         1 3692        0.0000 
     40 H          17.7562  -13.3196   26.2269 H         1 3692        0.0000 
     41 H          17.1540  -12.1382   25.3171 H         1 3692        0.0000 
     42 H          16.6701  -12.3054   26.8416 H         1 3692        0.0000 
     43 H           9.9163  -13.8829   22.8917 H         1 3692        0.0000 
     44 H          17.2614  -18.8606   20.7124 H         1 3692        0.0000 
     45 H          21.3788  -15.9542   25.4394 H         1 3692        0.0000 
@<TRIPOS>BOND
     1   18    1 ar   
     2   19    1 1    
     3   24    1 ar   
     4    3    2 ar   
     5   20    2 ar   
     6   28    2 1    
     7   21    3 ar   
     8   29    3 1    
     9   21    4 ar   
    10   23    4 ar   
    11   30    4 1    
    12   25    5 ar   
    13   26    5 ar   
    14   31    5 1    
    15    7    6 ar   
    16   26    6 ar   
    17   32    6 1    
    18    8    7 ar   
    19   27    7 1    
    20   25    8 ar   
    21   33    8 1    
    22   10    9 1    
    23   40    9 1    
    24   41    9 1    
    25   42    9 1    
    26   11   10 ar   
    27   24   10 ar   
    28   12   11 ar   
    29   34   11 1    
    30   13   12 ar   
    31   18   12 ar   
    32   14   13 ar   
    33   35   13 1    
    34   15   14 1    
    35   16   14 ar   
    36   43   15 1    
    37   17   16 ar   
    38   36   16 1    
    39   18   17 ar   
    40   37   17 1    
    41   20   19 1    
    42   23   20 ar   
    43   22   21 1    
    44   44   22 1    
    45   38   23 1    
    46   25   24 1    
    47   39   26 1    
    48   45   27 1    
@<TRIPOS>SUBSTRUCTURE
     1 3692        1 GROUP   
@<TRIPOS>SET

