#    Name: 3at3_ATK_1_INTS_M
#    Modification time : Mon Mar 24 18:10:22 2014

@<TRIPOS>MOLECULE
3at3_ATK_1_INTS_M
   75     0     9     0     0
SMALL
NO_CHARGES


@<TRIPOS>ATOM
      1 N          50.3375    8.3620    9.1235 N.am      1 SEC2        0.0000 
      2 N          50.7070    9.0770   10.3080 N.am      7 SEL2        0.0000 
      3 N          49.9680    7.6470    7.9390 N.am      4 SEP2        0.0000 
      4 CA         52.1245    9.7045    8.7915 C.3       3 GLC5        0.0000 
      5 CA         50.9090   10.3790   10.1850 C.3       9 GLL5        0.0000 
      6 CA         53.3400    9.0300    7.3980 C.3       6 GLP5        0.0000 
      7 CA         49.8485    9.2950    8.7375 C.3       3 GLC5        0.0000 
      8 CA         48.7880    8.2110    7.2900 C.3       6 GLP5        0.0000 
      9 CA         49.3860   11.8800    9.5010 C.3       3 GLC5        0.0000 
     10 CA         47.8630   13.3810    8.8170 C.3       6 GLP5        0.0000 
     11 CA         53.0060   11.6640   11.5670 C.3       3 GLC5        0.0000 
     12 CA         51.1610   11.1710   11.3370 C.3       9 GLL5        0.0000 
     13 CA         54.8510   12.1570   11.7970 C.3       6 GLP5        0.0000 
     14 CA         51.2310    7.2850    9.9400 C.3       3 GLC5        0.0000 
     15 CA         50.7220    8.5000   11.4980 C.3       9 GLL5        0.0000 
     16 CA         51.7400    6.0700    8.3820 C.3       6 GLP5        0.0000 
     17 CA         49.1705    8.4330    9.8890 C.3       3 GLC5        0.0000 
     18 CA         47.6190    8.3660    8.2800 C.3       6 GLP5        0.0000 
     19 CA         53.5135   14.5100   11.1405 C.3       3 GLC5        0.0000 
     20 CA         51.6370   14.7150   11.6760 C.3       9 GLL5        0.0000 
     21 CA         55.3900   14.3050   10.6050 C.3       6 GLP5        0.0000 
     22 CA         53.2540   10.1435   15.4310 C.3       3 GLC5        0.0000 
     23 CA         51.4110    9.2640   15.2110 C.3       9 GLL5        0.0000 
     24 CA         55.0970   11.0230   15.6510 C.3       6 GLP5        0.0000 
     25 CA         49.3725   13.8665   14.0350 C.3       3 GLC5        0.0000 
     26 CA         51.4500   14.5700   14.4040 C.3       9 GLL5        0.0000 
     27 CA         47.2950   13.1630   13.6660 C.3       6 GLP5        0.0000 
     28 CA         53.3635   12.2085   16.1030 C.3       3 GLC5        0.0000 
     29 CA         51.6300   13.3940   16.5550 C.3       9 GLL5        0.0000 
     30 CA         49.1805   11.7770   16.5960 C.3       3 GLC5        0.0000 
     31 CA         50.3000   12.9860   17.1940 C.3       9 GLL5        0.0000 
     32 CA         48.0610   10.5680   15.9980 C.3       6 GLP5        0.0000 
     33 CA         53.7295   12.3640   17.9300 C.3       3 GLC5        0.0000 
     34 CA         52.5760   13.7260   17.7250 C.3       9 GLL5        0.0000 
     35 CA         54.8830   11.0020   18.1350 C.3       6 GLP5        0.0000 
     36 NZ         51.4545    8.0985   20.8545 N.4       2 LYC4        0.0000 
     37 NZ         50.8260    8.6910   19.6960 N.4       8 LYL4        0.0000 
     38 NZ         52.0830    7.5060   22.0130 N.4       5 LYP4        0.0000 
     39 N          51.4545    8.0985   20.8545 N.am      1 SEC2        0.0000 
     40 N          50.8260    8.6910   19.6960 N.am      7 SEL2        0.0000 
     41 N          52.0830    7.5060   22.0130 N.am      4 SEP2        0.0000 
     42 N          48.8510    7.4485   18.8250 N.am      1 SEC2        0.0000 
     43 N          50.1080    7.1470   18.3800 N.am      7 SEL2        0.0000 
     44 N          47.5940    7.7500   19.2700 N.am      4 SEP2        0.0000 
     45 CA         53.4325    9.7245   17.8785 C.3       3 GLC5        0.0000 
     46 CA         51.9820    8.4470   17.6220 C.3       9 GLL5        0.0000 
     47 CA         53.0135    7.7915   19.1420 C.3       3 GLC5        0.0000 
     48 CA         54.0450    7.1360   20.6620 C.3       6 GLP5        0.0000 
     49 CA         52.5860    6.5185   17.6525 C.3       3 GLC5        0.0000 
     50 CA         53.1900    4.5900   17.6830 C.3       6 GLP5        0.0000 
     51 CA         52.4870    9.4940   10.8395 C.3       3 GLC5        0.0000 
     52 CA         53.9390    8.2130   10.9180 C.3       6 GLP5        0.0000 
     53 CA         49.4390   11.5130   11.4775 C.3       3 GLC5        0.0000 
     54 CA         47.8430   12.2510   12.1940 C.3       6 GLP5        0.0000 
     55 CA         52.3912    8.5553   11.4970 C.3       3 GLC5        0.0000 
     56 CA         50.9650    9.2950   12.6540 C.3       9 GLL5        0.0000 
     57 CA         48.9808    9.7647   12.2815 C.3       3 GLC5        0.0000 
     58 CA         47.1180   10.6320   12.4870 C.3       6 GLP5        0.0000 
     59 CA         53.1217   12.7797   12.3727 C.3       3 GLC5        0.0000 
     60 CA         51.4410   13.4500   12.2460 C.3       9 GLL5        0.0000 
     61 CA         49.6178   12.8268   12.5712 C.3       3 GLC5        0.0000 
     62 CA         49.7670    9.6715   15.8517 C.3       3 GLC5        0.0000 
     63 CA         49.5988    5.8398   14.4205 C.3       3 GLC5        0.0000 
     64 CA         50.5860    7.4710   14.4010 C.3       9 GLL5        0.0000 
     65 CA         48.3320    4.4040   13.8340 C.3       6 GLP5        0.0000 
     66 CA         51.5053    5.5962   14.5570 C.3       3 GLC5        0.0000 
     67 CA         52.1450    3.9170   14.1070 C.3       6 GLP5        0.0000 
     68 CA         48.9697    7.5527   15.0565 C.3       3 GLC5        0.0000 
     69 CA         51.1450    7.0800   15.6130 C.3       9 GLL5        0.0000 
     70 CA         47.0740    7.8300   15.1060 C.3       6 GLP5        0.0000 
     71 CA         53.4924   14.7274   13.4022 C.3       3 GLC5        0.0000 
     72 CA         51.6270   15.8270   13.7670 C.3       9 GLL5        0.0000 
     73 CA         55.4210   14.2340   13.0690 C.3       6 GLP5        0.0000 
     74 CA         52.8091    8.2146   14.3456 C.3       3 GLC5        0.0000 
     75 CA         54.4490    8.4040   13.3350 C.3       6 GLP5        0.0000 
@<TRIPOS>BOND
@<TRIPOS>SUBSTRUCTURE
     1 SEC2        1 GROUP        1 X    SEC  0     ROOT SEC X 2
     2 LYC4       36 GROUP        1 X    LYC  0     **** LYC X 4
     3 GLC5        4 GROUP        1 X    GLC  0     **** GLC X 6
     4 SEP2        3 GROUP        1 Y    SEP  0     ROOT SEP Y 9
     5 LYP4       38 GROUP        1 Y    LYP  0     **** LYP Y 11
     6 GLP5        6 GROUP        1 Y    GLP  0     **** GLP Y 13
     7 SEL2        2 GROUP        1 Z    SEL  0     ROOT SEL Z 16
     8 LYL4       37 GROUP        1 Z    LYL  0     **** LYL Z 18
     9 GLL5        5 GROUP        1 Z    GLL  0     **** GLL Z 20
@<TRIPOS>SET

