#    Name: 3at3_ATK_1_ligand
#    Modification time : Mon Mar 24 18:10:22 2014

@<TRIPOS>MOLECULE
3at3_ATK_1_ligand
   51    55     1     0     0
SMALL
NO_CHARGES


@<TRIPOS>ATOM
      1 N1         50.7070    9.0770   10.3080 N.ar      1 ATK336      0.0000 
      2 N4         51.1820   10.5950   12.5270 N.ar      1 ATK336      0.0000 
      3 C11        50.9090   10.3790   10.1850 C.ar      1 ATK336      0.0000 
      4 C12        51.1610   11.1710   11.3370 C.ar      1 ATK336      0.0000 
      5 N13        51.3890   12.5240   11.2580 N.pl3     1 ATK336      0.0000 
      6 C14        50.9650    9.2950   12.6540 C.ar      1 ATK336      0.0000 
      7 C15        50.7220    8.5000   11.4980 C.ar      1 ATK336      0.0000 
      8 N15        50.9800    8.7840   13.9160 N.pl3     1 ATK336      0.0000 
      9 C17        51.4410   13.4500   12.2460 C.ar      1 ATK336      0.0000 
     10 C18        51.6370   14.7150   11.6760 C.ar      1 ATK336      0.0000 
     11 N20        51.5590   13.0890   10.1690 N.2       1 ATK336      0.0000 
     12 C28        51.7030   14.4100   10.3080 C.2       1 ATK336      0.0000 
     13 C35        51.4110    9.2640   15.2110 C.2       1 ATK336      0.0000 
     14 C36        51.5350    8.2860   16.2000 C.2       1 ATK336      0.0000 
     15 C37        51.1450    7.0800   15.6130 C.2       1 ATK336      0.0000 
     16 C38        50.5860    7.4710   14.4010 C.2       1 ATK336      0.0000 
     17 C44        51.7280   15.9160   12.3670 C.ar      1 ATK336      0.0000 
     18 N44        51.3810   14.5970   15.7500 N.pl3     1 ATK336      0.0000 
     19 C45        51.6270   15.8270   13.7670 C.ar      1 ATK336      0.0000 
     20 C46        51.4500   14.5700   14.4040 C.ar      1 ATK336      0.0000 
     21 C47        51.3440   13.3550   13.6510 C.ar      1 ATK336      0.0000 
     22 C48        51.6300   13.3940   16.5550 C.3       1 ATK336      0.0000 
     23 C57        50.3000   12.9860   17.1940 C.3       1 ATK336      0.0000 
     24 C58        50.3650   13.6850   18.5530 C.3       1 ATK336      0.0000 
     25 C59        51.6650   14.5020   18.6430 C.3       1 ATK336      0.0000 
     26 C60        52.5760   13.7260   17.7250 C.3       1 ATK336      0.0000 
     27 O61        50.8260    8.6910   19.6960 O.co2     1 ATK336      0.0000 
     28 O63        50.1080    7.1470   18.3800 O.co2     1 ATK336      0.0000 
     29 C66        51.9820    8.4470   17.6220 C.3       1 ATK336      0.0000 
     30 C68        50.8880    8.0680   18.6450 C.2       1 ATK336      0.0000 
     31 H          50.8922   10.8615    9.2689 H         1 ATK336      0.0000 
     32 H          50.5650    7.4914   11.6356 H         1 ATK336      0.0000 
     33 H          51.8304   15.0644    9.6221 H         1 ATK336      0.0000 
     34 H          51.5979   10.2198   15.3598 H         1 ATK336      0.0000 
     35 H          51.2375    6.2320   15.9504 H         1 ATK336      0.0000 
     36 H          49.9579    6.9142   13.8789 H         1 ATK336      0.0000 
     37 H          51.8569   16.7914   11.9075 H         1 ATK336      0.0000 
     38 H          51.1517   15.4576   16.2758 H         1 ATK336      0.0000 
     39 H          51.6811   16.6764   14.3401 H         1 ATK336      0.0000 
     40 H          51.2067   12.4792   14.1127 H         1 ATK336      0.0000 
     41 H          52.0105   12.6022   16.0002 H         1 ATK336      0.0000 
     42 H          50.2737   11.9412   17.3291 H         1 ATK336      0.0000 
     43 H          49.4985   13.3729   16.6297 H         1 ATK336      0.0000 
     44 H          50.3553   12.9449   19.3409 H         1 ATK336      0.0000 
     45 H          49.5194   14.3502   18.6580 H         1 ATK336      0.0000 
     46 H          52.0262   14.4757   19.6320 H         1 ATK336      0.0000 
     47 H          51.4957   15.4703   18.2648 H         1 ATK336      0.0000 
     48 H          53.3593   14.3373   17.3762 H         1 ATK336      0.0000 
     49 H          52.8897   12.8313   18.1833 H         1 ATK336      0.0000 
     50 H          52.2779    9.4896   17.8070 H         1 ATK336      0.0000 
     51 H          52.8626    7.8169   17.8126 H         1 ATK336      0.0000 
@<TRIPOS>BOND
     1    3    1 ar   
     2    7    1 ar   
     3    4    2 ar   
     4    6    2 ar   
     5    4    3 ar   
     6   31    3 1    
     7    5    4 1    
     8    9    5 1    
     9   11    5 1    
    10    7    6 ar   
    11    8    6 1    
    12   32    7 1    
    13   13    8 1    
    14   16    8 1    
    15   10    9 ar   
    16   21    9 ar   
    17   12   10 1    
    18   17   10 ar   
    19   12   11 2    
    20   33   12 1    
    21   14   13 2    
    22   34   13 1    
    23   15   14 1    
    24   29   14 1    
    25   16   15 2    
    26   35   15 1    
    27   36   16 1    
    28   19   17 ar   
    29   37   17 1    
    30   20   18 1    
    31   22   18 1    
    32   38   18 1    
    33   20   19 ar   
    34   39   19 1    
    35   21   20 ar   
    36   40   21 1    
    37   23   22 1    
    38   26   22 1    
    39   41   22 1    
    40   24   23 1    
    41   42   23 1    
    42   43   23 1    
    43   25   24 1    
    44   44   24 1    
    45   45   24 1    
    46   26   25 1    
    47   46   25 1    
    48   47   25 1    
    49   48   26 1    
    50   49   26 1    
    51   30   27 ar   
    52   30   28 ar   
    53   30   29 1    
    54   50   29 1    
    55   51   29 1    
@<TRIPOS>SUBSTRUCTURE
     1 ATK336      1 GROUP   
@<TRIPOS>SET

