#    Name: 2VNI_1_CAVITY_N1_ALL.mol2
#    Modification time : Mon Mar 10 17:07:10 2014

@<TRIPOS>MOLECULE
2VNI_1_CAVITY_N1_ALL.mol2
  124     0     7     0     0
SMALL
NO_CHARGES


@<TRIPOS>ATOM
      1 OD1       -11.7157   60.4027   18.9145 O.3       3 ASP3        0.0000 
      2 O         -10.2994   60.9469   16.8054 O.2       2 ALA2        0.0000 
      3 OG        -10.1422   59.7262   17.6629 O.2       1 SER1        0.0000 
      4 O         -11.9461   61.9904   15.9690 O.2       2 ALA2        0.0000 
      5 O         -11.7888   60.7698   16.8265 O.2       2 ALA2        0.0000 
      6 NZ         -6.2191   64.2867   12.9394 N.2       4 LYS4        0.0000 
      7 NZ         -7.8657   65.3302   12.1030 N.2       4 LYS4        0.0000 
      8 O          -7.7085   64.1096   12.9604 O.2       2 ALA2        0.0000 
      9 CA         -9.3551   65.1531   12.1240 C.3       6 GLY6        0.0000 
     10 O          -9.1978   63.9324   12.9814 O.2       2 ALA2        0.0000 
     11 O          -9.0405   62.7118   13.8389 O.2       2 ALA2        0.0000 
     12 CA        -11.0017   66.1967   11.2876 C.3       6 GLY6        0.0000 
     13 DU        -10.8445   64.9760   12.1450 H         7 CUB7        0.0000 
     14 O         -10.6872   63.7553   13.0025 O.2       2 ALA2        0.0000 
     15 O         -10.5299   62.5347   13.8599 O.2       2 ALA2        0.0000 
     16 O         -10.3726   61.3140   14.7174 O.2       2 ALA2        0.0000 
     17 O         -10.2153   60.0933   15.5748 O.2       2 ALA2        0.0000 
     18 OG        -10.0580   58.8726   16.4323 O.2       1 SER1        0.0000 
     19 DU        -12.1765   63.5782   13.0235 H         7 CUB7        0.0000 
     20 DU        -12.0192   62.3575   13.8810 H         7 CUB7        0.0000 
     21 DU        -11.8620   61.1369   14.7384 H         7 CUB7        0.0000 
     22 O         -11.7047   59.9162   15.5959 O.2       2 ALA2        0.0000 
     23 DU        -13.5086   62.1804   13.9020 H         7 CUB7        0.0000 
     24 O         -13.3513   60.9597   14.7595 O.2       2 ALA2        0.0000 
     25 O         -14.8407   60.7826   14.7805 O.2       2 ALA2        0.0000 
     26 O          -5.9777   62.2124   12.5662 O.2       2 ALA2        0.0000 
     27 CA         -5.8204   60.9918   13.4237 C.3       6 GLY6        0.0000 
     28 O          -7.7816   64.4767   10.8724 O.2       2 ALA2        0.0000 
     29 CA         -7.6243   63.2560   11.7298 C.3       6 GLY6        0.0000 
     30 O          -7.4670   62.0353   12.5873 O.2       2 ALA2        0.0000 
     31 CA         -7.3098   60.8146   13.4447 C.3       6 GLY6        0.0000 
     32 OG         -9.2710   64.2995   10.8934 O.2       1 SER1        0.0000 
     33 OG         -9.1137   63.0789   11.7509 O.2       1 SER1        0.0000 
     34 DU         -8.9564   61.8582   12.6083 H         7 CUB7        0.0000 
     35 O          -8.7991   60.6375   13.4658 O.2       2 ALA2        0.0000 
     36 CA         -8.6418   59.4169   14.3232 C.3       6 GLY6        0.0000 
     37 CA         -8.4846   58.1962   15.1807 C.3       6 GLY6        0.0000 
     38 OG        -10.7603   64.1224   10.9145 O.2       1 SER1        0.0000 
     39 OG        -10.6030   62.9017   11.7719 O.2       1 SER1        0.0000 
     40 DU        -10.4458   61.6811   12.6294 H         7 CUB7        0.0000 
     41 DU        -10.2885   60.4604   13.4868 H         7 CUB7        0.0000 
     42 DU        -10.1312   59.2397   14.3443 H         7 CUB7        0.0000 
     43 OG         -9.9739   58.0191   15.2017 O.2       1 SER1        0.0000 
     44 OG        -12.2497   63.9453   10.9355 O.2       1 SER1        0.0000 
     45 DU        -12.0924   62.7246   11.7929 H         7 CUB7        0.0000 
     46 OG        -11.6206   59.0626   14.3653 O.2       1 SER1        0.0000 
     47 N         -13.5818   62.5475   11.8140 N.2       2 ALA2        0.0000 
     48 DU        -13.4245   61.3268   12.6714 H         7 CUB7        0.0000 
     49 DU        -13.2672   60.1062   13.5289 H         7 CUB7        0.0000 
     50 CA        -13.1099   58.8855   14.3864 C.3       6 GLY6        0.0000 
     51 N         -15.0711   62.3704   11.8350 N.2       2 ALA2        0.0000 
     52 O         -14.9138   61.1497   12.6925 O.2       2 ALA2        0.0000 
     53 O         -14.7566   59.9290   13.5499 O.2       2 ALA2        0.0000 
     54 O         -16.5605   62.1933   11.8561 O.2       2 ALA2        0.0000 
     55 CZ         -5.7363   60.1382   12.1931 C.ar      5 PHE5        0.0000 
     56 CZ         -7.3829   61.1817   11.3567 C.ar      5 PHE5        0.0000 
     57 CZ         -7.2256   59.9611   12.2141 C.ar      5 PHE5        0.0000 
     58 CA         -7.0684   58.7404   13.0716 C.3       6 GLY6        0.0000 
     59 CA         -9.0296   62.2253   10.5203 C.3       6 GLY6        0.0000 
     60 CZ         -8.8723   61.0046   11.3777 C.ar      5 PHE5        0.0000 
     61 CA         -8.7150   59.7840   12.2352 C.3       6 GLY6        0.0000 
     62 CA         -8.5577   58.5633   13.0926 C.3       6 GLY6        0.0000 
     63 CA         -8.4004   57.3426   13.9501 C.3       6 GLY6        0.0000 
     64 OG        -10.5189   62.0482   10.5413 O.2       1 SER1        0.0000 
     65 DU        -10.3616   60.8275   11.3988 H         7 CUB7        0.0000 
     66 CA        -10.2044   59.6068   12.2562 C.3       6 GLY6        0.0000 
     67 CA        -10.0471   58.3862   13.1137 C.3       6 GLY6        0.0000 
     68 OG         -9.8898   57.1655   13.9711 O.2       1 SER1        0.0000 
     69 OG        -12.0083   61.8711   10.5624 O.2       1 SER1        0.0000 
     70 DU        -11.8510   60.6504   11.4198 H         7 CUB7        0.0000 
     71 DU        -11.6937   59.4297   12.2773 H         7 CUB7        0.0000 
     72 DU        -11.5364   58.2090   13.1347 H         7 CUB7        0.0000 
     73 OG        -11.3792   56.9884   13.9922 O.2       1 SER1        0.0000 
     74 N         -13.6549   62.9146    9.7260 N.2       2 ALA2        0.0000 
     75 N         -13.4976   61.6939   10.5834 N.2       2 ALA2        0.0000 
     76 DU        -13.3404   60.4733   11.4409 H         7 CUB7        0.0000 
     77 DU        -13.1831   59.2526   12.2983 H         7 CUB7        0.0000 
     78 CA        -13.0258   58.0319   13.1558 C.3       6 GLY6        0.0000 
     79 O         -12.8685   56.8112   14.0132 O.2       2 ALA2        0.0000 
     80 N         -14.9870   61.5168   10.6045 N.2       2 ALA2        0.0000 
     81 O         -14.8297   60.2961   11.4619 O.2       2 ALA2        0.0000 
     82 O         -14.6724   59.0755   12.3194 O.2       2 ALA2        0.0000 
     83 CA        -14.5151   57.8548   13.1768 C.3       6 GLY6        0.0000 
     84 OG        -16.4763   61.3397   10.6255 O.2       1 SER1        0.0000 
     85 CZ         -8.7882   60.1510   10.1472 C.ar      5 PHE5        0.0000 
     86 OG        -10.4348   61.1946    9.3107 O.2       1 SER1        0.0000 
     87 OG        -10.2775   59.9739   10.1682 O.2       1 SER1        0.0000 
     88 CA         -9.9630   57.5326   11.8831 C.3       6 GLY6        0.0000 
     89 OG        -11.9242   61.0175    9.3318 O.2       1 SER1        0.0000 
     90 OG        -11.7669   59.7968   10.1892 O.2       1 SER1        0.0000 
     91 CA        -11.6096   58.5761   11.0467 C.3       6 GLY6        0.0000 
     92 N         -11.4523   57.3555   11.9041 N.2       2 ALA2        0.0000 
     93 CZ        -13.4135   60.8404    9.3528 C.ar      5 PHE5        0.0000 
     94 DU        -13.2562   59.6197   10.2103 H         7 CUB7        0.0000 
     95 DU        -13.0989   58.3990   11.0677 H         7 CUB7        0.0000 
     96 N         -12.9417   57.1783   11.9252 N.2       2 ALA2        0.0000 
     97 CA        -12.7844   55.9577   12.7826 C.3       6 GLY6        0.0000 
     98 CZ        -14.9029   60.6632    9.3739 C.ar      5 PHE5        0.0000 
     99 DU        -14.7456   59.4426   10.2313 H         7 CUB7        0.0000 
    100 DU        -14.5883   58.2219   11.0888 H         7 CUB7        0.0000 
    101 O         -14.4310   57.0012   11.9462 O.2       2 ALA2        0.0000 
    102 O         -14.2737   55.7806   12.8037 O.2       2 ALA2        0.0000 
    103 OG        -16.3922   60.4861    9.3949 O.2       1 SER1        0.0000 
    104 OG        -16.2349   59.2654   10.2524 O.2       1 SER1        0.0000 
    105 O         -16.0777   58.0448   11.1098 O.2       2 ALA2        0.0000 
    106 O         -15.9204   56.8241   11.9673 O.2       2 ALA2        0.0000 
    107 O         -17.5670   57.8677   11.1309 O.2       2 ALA2        0.0000 
    108 OG        -13.1721   58.7661    8.9797 O.2       1 SER1        0.0000 
    109 O         -13.0148   57.5454    9.8372 O.2       2 ALA2        0.0000 
    110 O         -12.8575   56.3248   10.6946 O.2       2 ALA2        0.0000 
    111 CZ        -14.6615   58.5890    9.0007 C.ar      5 PHE5        0.0000 
    112 CA        -14.5042   57.3683    9.8582 C.3       6 GLY6        0.0000 
    113 CA        -14.3469   56.1476   10.7157 C.3       6 GLY6        0.0000 
    114 CA        -14.1896   54.9270   11.5731 C.3       6 GLY6        0.0000 
    115 CZ        -16.1508   58.4119    9.0218 C.ar      5 PHE5        0.0000 
    116 CA        -15.9935   57.1912    9.8792 C.3       6 GLY6        0.0000 
    117 NZ        -15.8363   55.9705   10.7367 N.2       4 LYS4        0.0000 
    118 CZ        -17.6402   58.2347    9.0428 C.ar      5 PHE5        0.0000 
    119 CA        -17.4829   57.0141    9.9003 C.3       6 GLY6        0.0000 
    120 CA        -14.5773   57.7354    7.7702 C.3       6 GLY6        0.0000 
    121 CA        -15.9094   56.3376    8.6487 C.3       6 GLY6        0.0000 
    122 CA        -15.7521   55.1169    9.5061 C.3       6 GLY6        0.0000 
    123 CA        -17.3988   56.1605    8.6697 C.3       6 GLY6        0.0000 
    124 NZ        -17.2415   54.9398    9.5272 N.2       4 LYS4        0.0000 
@<TRIPOS>BOND
@<TRIPOS>SUBSTRUCTURE
     1 SER1        3 GROUP   
     2 ALA2        2 GROUP   
     3 ASP3        1 GROUP   
     4 LYS4        6 GROUP   
     5 PHE5       55 GROUP   
     6 GLY6        9 GROUP   
     7 CUB7       13 GROUP   
@<TRIPOS>SET

