#    Name: 2vni_A2P_1_INTS_M
#    Modification time : Tue Mar 25 02:11:02 2014

@<TRIPOS>MOLECULE
2vni_A2P_1_INTS_M
   56     0    12     0     0
SMALL
NO_CHARGES


@<TRIPOS>ATOM
      1 NZ         -9.9275   62.4450   16.4090 N.4       3 LYC4        0.0000 
      2 NZ        -10.9800   61.4660   16.3870 N.4      11 LYL4        0.0000 
      3 NZ         -7.6480   62.9460   16.2580 N.4       7 LYP4        0.0000 
      4 N          -9.9275   62.4450   16.4090 N.am      2 SEC2        0.0000 
      5 N         -10.9800   61.4660   16.3870 N.am     10 SEL2        0.0000 
      6 N          -8.8750   63.4240   16.4310 N.am      6 SEP2        0.0000 
      7 NZ        -13.0385   59.6530   18.1835 N.4       3 LYC4        0.0000 
      8 NZ        -11.8600   59.4360   17.4730 N.4      11 LYL4        0.0000 
      9 NZ        -14.2170   59.8700   18.8940 N.4       7 LYP4        0.0000 
     10 N         -11.4290   58.0345   17.4025 N.am      2 SEC2        0.0000 
     11 N         -11.8600   59.4360   17.4730 N.am     10 SEL2        0.0000 
     12 N         -10.9980   56.6330   17.3320 N.am      6 SEP2        0.0000 
     13 NZ         -8.4510   61.0015   17.2560 N.4       3 LYC4        0.0000 
     14 NZ         -9.5200   60.3300   17.9800 N.4      11 LYL4        0.0000 
     15 N          -8.4510   61.0015   17.2560 N.am      2 SEC2        0.0000 
     16 N          -9.5200   60.3300   17.9800 N.am     10 SEL2        0.0000 
     17 N          -7.3820   61.6730   16.5320 N.am      6 SEP2        0.0000 
     18 NZ        -16.0010   60.0175   13.6005 N.4       3 LYC4        0.0000 
     19 NZ        -14.7870   61.0670   12.8330 N.4      11 LYL4        0.0000 
     20 NZ        -17.2150   58.9680   14.3680 N.4       7 LYP4        0.0000 
     21 NZ        -16.3010   58.8730   13.3290 N.4       3 LYC4        0.0000 
     22 NZ        -15.3870   58.7780   12.2900 N.4      11 LYL4        0.0000 
     23 CA        -11.5310   55.7800   12.9370 C.3       4 GLC5        0.0000 
     24 CA        -11.0920   57.9310   12.6480 C.3      12 GLL5        0.0000 
     25 CA        -11.9700   53.6290   13.2260 C.3       8 GLP5        0.0000 
     26 CA        -13.1325   57.4740   15.0090 C.3       4 GLC5        0.0000 
     27 CA        -11.1730   57.9710   14.1750 C.3      12 GLL5        0.0000 
     28 CA        -15.0920   56.9770   15.8430 C.3       8 GLP5        0.0000 
     29 CA         -9.8820   57.1935   15.7485 C.3       4 GLC5        0.0000 
     30 CA         -8.5910   56.4160   17.3220 C.3       8 GLP5        0.0000 
     31 O         -10.6690   56.8065   16.0440 O.2       1 ALC1        0.0000 
     32 O         -10.3400   56.9800   14.7560 O.2       9 ALL1        0.0000 
     33 O         -10.9980   56.6330   17.3320 O.2       5 ALP1        0.0000 
     34 CA         -8.9615   58.4260   11.6835 C.3       4 GLC5        0.0000 
     35 CA         -9.5620   59.5270   13.4880 C.3      12 GLL5        0.0000 
     36 CA         -8.3610   57.3250    9.8790 C.3       8 GLP5        0.0000 
     37 CA         -7.8535   59.5385   14.9360 C.3       4 GLC5        0.0000 
     38 CA         -6.1450   59.5500   16.3840 C.3       8 GLP5        0.0000 
     39 CA         -7.7925   62.4405   10.3715 C.3       4 GLC5        0.0000 
     40 CA         -8.2190   62.7490   12.4410 C.3      12 GLL5        0.0000 
     41 CA         -7.3660   62.1320    8.3020 C.3       8 GLP5        0.0000 
     42 CA         -6.7660   63.4445   10.3390 C.3       4 GLC5        0.0000 
     43 CA         -6.9920   63.4890   12.1500 C.3      12 GLL5        0.0000 
     44 CA         -6.5400   63.4000    8.5280 C.3       8 GLP5        0.0000 
     45 O          -5.8890   65.4790   11.9020 O.2       1 ALC1        0.0000 
     46 O          -7.0620   64.7720   11.7430 O.2       9 ALL1        0.0000 
     47 O          -4.7160   66.1860   12.0610 O.2       5 ALP1        0.0000 
     48 CA         -5.9140   61.3345   14.5545 C.3       4 GLC5        0.0000 
     49 CA         -5.7550   61.6080   12.7630 C.3      12 GLL5        0.0000 
     50 CA         -6.0730   61.0610   16.3460 C.3       8 GLP5        0.0000 
     51 CA         -3.8110   61.6460   12.2905 C.3       4 GLC5        0.0000 
     52 CA         -1.8670   61.6840   11.8180 C.3       8 GLP5        0.0000 
     53 CA         -7.0435   61.2135   14.6110 C.3       4 GLC5        0.0000 
     54 CA         -8.0140   61.3660   12.8760 C.3      12 GLL5        0.0000 
     55 CA        -10.7360   57.5790   10.7675 C.3       4 GLC5        0.0000 
     56 CA         -9.7030   57.1180    9.2240 C.3       8 GLP5        0.0000 
@<TRIPOS>BOND
@<TRIPOS>SUBSTRUCTURE
     1 ALC1       31 GROUP        1 X    ALC  0     ROOT ALC X 1
     2 SEC2        4 GROUP        1 X    SEC  0     **** SEC X 2
     3 LYC4        1 GROUP        1 X    LYC  0     **** LYC X 4
     4 GLC5       23 GROUP        1 X    GLC  0     **** GLC X 6
     5 ALP1       33 GROUP        1 Y    ALP  0     ROOT ALP Y 8
     6 SEP2        6 GROUP        1 Y    SEP  0     **** SEP Y 9
     7 LYP4        3 GROUP        1 Y    LYP  0     **** LYP Y 11
     8 GLP5       25 GROUP        1 Y    GLP  0     **** GLP Y 13
     9 ALL1       32 GROUP        1 Z    ALL  0     ROOT ALL Z 15
    10 SEL2        5 GROUP        1 Z    SEL  0     **** SEL Z 16
    11 LYL4        2 GROUP        1 Z    LYL  0     **** LYL Z 18
    12 GLL5       24 GROUP        1 Z    GLL  0     **** GLL Z 20
@<TRIPOS>SET

