#    Name: 2vni_A2P_1_ligand
#    Modification time : Tue Mar 25 02:11:02 2014

@<TRIPOS>MOLECULE
2vni_A2P_1_ligand
   38    40     1     0     0
SMALL
NO_CHARGES


@<TRIPOS>ATOM
      1 P1        -10.6530   60.1540   17.0320 P.3       1 A2P274      0.0000 
      2 O1P       -10.9800   61.4660   16.3870 O.co2     1 A2P274      0.0000 
      3 O2P       -11.8600   59.4360   17.4730 O.co2     1 A2P274      0.0000 
      4 O3P        -9.5200   60.3300   17.9800 O.co2     1 A2P274      0.0000 
      5 P2        -14.4310   59.8910   11.9670 P.3       1 A2P274      0.0000 
      6 O4P       -14.7870   61.0670   12.8330 O.co2     1 A2P274      0.0000 
      7 O5P       -14.3020   60.3120   10.5230 O.co2     1 A2P274      0.0000 
      8 O6P       -15.3870   58.7780   12.2900 O.co2     1 A2P274      0.0000 
      9 O5'       -13.0050   59.3510   12.4730 O.3       1 A2P274      0.0000 
     10 C5'       -12.4460   58.1490   11.9740 C.3       1 A2P274      0.0000 
     11 C4'       -11.0920   57.9310   12.6480 C.3       1 A2P274      0.0000 
     12 O4'        -9.9910   58.8040   12.3220 O.3       1 A2P274      0.0000 
     13 C3'       -11.1730   57.9710   14.1750 C.3       1 A2P274      0.0000 
     14 O3'       -10.3400   56.9800   14.7560 O.3       1 A2P274      0.0000 
     15 C2'       -10.6790   59.3670   14.5000 C.3       1 A2P274      0.0000 
     16 O2'       -10.0070   59.3950   15.7550 O.3       1 A2P274      0.0000 
     17 C1'        -9.5620   59.5270   13.4880 C.3       1 A2P274      0.0000 
     18 N9         -9.2380   60.9080   13.0780 N.pl3     1 A2P274      0.0000 
     19 C8        -10.1340   61.8870   12.7570 C.2       1 A2P274      0.0000 
     20 N7         -9.5250   63.0310   12.3640 N.2       1 A2P274      0.0000 
     21 C5         -8.2190   62.7490   12.4410 C.ar      1 A2P274      0.0000 
     22 C6         -6.9920   63.4890   12.1500 C.ar      1 A2P274      0.0000 
     23 N6         -7.0620   64.7720   11.7430 N.pl3     1 A2P274      0.0000 
     24 N1         -5.8290   62.8730   12.3250 N.ar      1 A2P274      0.0000 
     25 C2         -5.7550   61.6080   12.7630 C.ar      1 A2P274      0.0000 
     26 N3         -6.8060   60.8390   13.0710 N.ar      1 A2P274      0.0000 
     27 C4         -8.0140   61.3660   12.8760 C.ar      1 A2P274      0.0000 
     28 H         -12.2774   58.1884   10.8957 H         1 A2P274      0.0000 
     29 H         -13.0702   57.2805   12.1947 H         1 A2P274      0.0000 
     30 H         -10.7687   56.8722   12.4237 H         1 A2P274      0.0000 
     31 H         -12.1923   57.9019   14.4511 H         1 A2P274      0.0000 
     32 H         -11.3889   60.0683   14.3492 H         1 A2P274      0.0000 
     33 H          -8.6735   59.0381   13.8856 H         1 A2P274      0.0000 
     34 H         -11.1122   61.7686   12.8075 H         1 A2P274      0.0000 
     35 H          -6.1887   65.2250   11.5639 H         1 A2P274      0.0000 
     36 H          -7.9810   65.1566   11.6563 H         1 A2P274      0.0000 
     37 H          -4.7713   61.1775   12.8756 H         1 A2P274      0.0000 
     38 H         -10.4099   57.1291   15.7423 H         1 A2P274      0.0000 
@<TRIPOS>BOND
     1    2    1 ar   
     2    3    1 ar   
     3    4    1 ar   
     4   16    1 1    
     5    6    5 ar   
     6    7    5 ar   
     7    8    5 ar   
     8    9    5 1    
     9   10    9 1    
    10   11   10 1    
    11   28   10 1    
    12   29   10 1    
    13   12   11 1    
    14   13   11 1    
    15   30   11 1    
    16   17   12 1    
    17   14   13 1    
    18   15   13 1    
    19   31   13 1    
    20   38   14 1    
    21   16   15 1    
    22   17   15 1    
    23   32   15 1    
    24   18   17 1    
    25   33   17 1    
    26   19   18 1    
    27   27   18 1    
    28   20   19 2    
    29   34   19 1    
    30   21   20 1    
    31   22   21 ar   
    32   27   21 ar   
    33   23   22 1    
    34   24   22 ar   
    35   35   23 1    
    36   36   23 1    
    37   25   24 ar   
    38   26   25 ar   
    39   37   25 1    
    40   27   26 ar   
@<TRIPOS>SUBSTRUCTURE
     1 A2P274      1 GROUP   
@<TRIPOS>SET

