#    Name: 4j0p_1H8_1_INTS_M
#    Modification time : Tue Mar 25 04:58:40 2014

@<TRIPOS>MOLECULE
4j0p_1H8_1_INTS_M
   54     0     6     0     0
SMALL
NO_CHARGES


@<TRIPOS>ATOM
      1 CA        -18.5865  -41.3640   -2.5265 C.3       2 GLC5        0.0000 
      2 CA        -20.1660  -42.2490   -1.9490 C.3       6 GLL5        0.0000 
      3 CA        -17.0070  -40.4790   -3.1040 C.3       4 GLP5        0.0000 
      4 CA        -18.5030  -43.2970   -2.8805 C.3       2 GLC5        0.0000 
      5 CA        -16.8400  -44.3450   -3.8120 C.3       4 GLP5        0.0000 
      6 CA        -21.1875  -45.5180   -2.2215 C.3       2 GLC5        0.0000 
      7 CA        -22.2380  -43.5490   -2.3270 C.3       6 GLL5        0.0000 
      8 CA        -20.1370  -47.4870   -2.1160 C.3       4 GLP5        0.0000 
      9 CA        -19.4200  -44.4185    0.9390 C.3       2 GLC5        0.0000 
     10 CA        -20.8760  -43.8770   -0.2680 C.3       6 GLL5        0.0000 
     11 CA        -17.9640  -44.9600    2.1460 C.3       4 GLP5        0.0000 
     12 O         -19.1520  -41.2490   -5.3050 O.2       1 ALC1        0.0000 
     13 O         -20.4590  -40.6490   -5.7090 O.2       5 ALL1        0.0000 
     14 O         -17.8450  -41.8490   -4.9010 O.2       3 ALP1        0.0000 
     15 CA        -18.3680  -37.6960  -11.9270 C.3       2 GLC5        0.0000 
     16 CA        -19.3290  -38.4540  -10.6720 C.3       6 GLL5        0.0000 
     17 CA        -17.4070  -36.9380  -13.1820 C.3       4 GLP5        0.0000 
     18 CA        -20.2605  -37.1510  -10.8250 C.3       2 GLC5        0.0000 
     19 CA        -21.1920  -35.8480  -10.9780 C.3       4 GLP5        0.0000 
     20 CA        -15.1995  -36.5605   -8.6410 C.3       2 GLC5        0.0000 
     21 CA        -16.8440  -37.5170   -9.3240 C.3       6 GLL5        0.0000 
     22 CA        -13.5550  -35.6040   -7.9580 C.3       4 GLP5        0.0000 
     23 CA        -16.4645  -37.1940  -11.0355 C.3       2 GLC5        0.0000 
     24 CA        -16.0850  -36.8710  -12.7470 C.3       4 GLP5        0.0000 
     25 CA        -18.5095  -36.6420   -8.3920 C.3       2 GLC5        0.0000 
     26 CA        -20.1750  -35.7670   -7.4600 C.3       4 GLP5        0.0000 
     27 O         -16.1115  -38.0455   -6.8100 O.2       1 ALC1        0.0000 
     28 O         -16.2710  -39.1060   -7.6240 O.2       5 ALL1        0.0000 
     29 O         -15.9520  -36.9850   -5.9960 O.2       3 ALP1        0.0000 
     30 CA        -15.8725  -38.9175  -11.4410 C.3       2 GLC5        0.0000 
     31 CA        -16.5200  -39.9010   -9.9380 C.3       6 GLL5        0.0000 
     32 CA        -15.2250  -37.9340  -12.9440 C.3       4 GLP5        0.0000 
     33 O         -14.9830  -39.2690   -5.3260 O.2       1 ALC1        0.0000 
     34 O         -14.9290  -40.3560   -6.2510 O.2       5 ALL1        0.0000 
     35 O         -15.0370  -38.1820   -4.4010 O.2       3 ALP1        0.0000 
     36 O         -14.0460  -41.2945   -5.7580 O.2       1 ALC1        0.0000 
     37 O         -13.1630  -42.2330   -5.2650 O.2       3 ALP1        0.0000 
     38 CA        -19.8785  -45.1910   -1.2985 C.3       2 GLC5        0.0000 
     39 CA        -21.0880  -43.2250   -1.5400 C.3       6 GLL5        0.0000 
     40 CA        -18.7750  -46.8310   -1.6930 C.3       4 GLP5        0.0000 
     41 CA        -22.4128  -41.6835   -1.7765 C.3       2 GLC5        0.0000 
     42 CA        -22.3970  -42.8990   -3.5370 C.3       6 GLL5        0.0000 
     43 CA        -22.9010  -40.9540    0.1560 C.3       4 GLP5        0.0000 
     44 CA        -24.1493  -42.8855   -2.2100 C.3       2 GLC5        0.0000 
     45 CA        -25.9810  -42.5470   -1.4880 C.3       4 GLP5        0.0000 
     46 CA        -22.0276  -42.2320   -0.4979 C.3       2 GLC5        0.0000 
     47 CA        -20.0465  -38.6838   -5.5715 C.3       2 GLC5        0.0000 
     48 CA        -20.2840  -40.0140   -6.9610 C.3       6 GLL5        0.0000 
     49 CA        -20.4800  -37.4860   -4.0030 C.3       4 GLP5        0.0000 
     50 CA        -19.8940  -37.8243   -7.3000 C.3       2 GLC5        0.0000 
     51 CA        -20.6610  -37.6505   -7.9850 C.3       2 GLC5        0.0000 
     52 CA        -21.3220  -39.7760   -7.8810 C.3       6 GLL5        0.0000 
     53 CA        -19.6925  -37.2713   -8.6456 C.3       2 GLC5        0.0000 
     54 CA        -19.6180  -38.9720   -9.4490 C.3       6 GLL5        0.0000 
@<TRIPOS>BOND
@<TRIPOS>SUBSTRUCTURE
     1 ALC1       12 GROUP        1 X    ALC  0     ROOT ALC X 1
     2 GLC5        1 GROUP        1 X    GLC  0     **** GLC X 6
     3 ALP1       14 GROUP        1 Y    ALP  0     ROOT ALP Y 8
     4 GLP5        3 GROUP        1 Y    GLP  0     **** GLP Y 13
     5 ALL1       13 GROUP        1 Z    ALL  0     ROOT ALL Z 15
     6 GLL5        2 GROUP        1 Z    GLL  0     **** GLL Z 20
@<TRIPOS>SET

