#    Name: 4j0p_1H8_1_ligand
#    Modification time : Tue Mar 25 04:58:40 2014

@<TRIPOS>MOLECULE
4j0p_1H8_1_ligand
   43    45     1     0     0
SMALL
NO_CHARGES


@<TRIPOS>ATOM
      1 C1        -21.0880  -43.2250   -1.5400 C.ar      1 1H8504      0.0000 
      2 C2        -20.1660  -42.2490   -1.9490 C.ar      1 1H8504      0.0000 
      3 N3        -20.4010  -41.6840   -3.1290 N.ar      1 1H8504      0.0000 
      4 C4        -21.4520  -41.9270   -3.8810 C.ar      1 1H8504      0.0000 
      5 C5        -22.3970  -42.8990   -3.5370 C.ar      1 1H8504      0.0000 
      6 C6        -22.2380  -43.5490   -2.3270 C.ar      1 1H8504      0.0000 
      7 C10       -20.8760  -43.8770   -0.2680 C.1       1 1H8504      0.0000 
      8 C14       -18.9420  -39.7490   -7.3190 C.ar      1 1H8504      0.0000 
      9 C15       -20.9720  -39.2920   -9.1390 C.ar      1 1H8504      0.0000 
     10 C16       -20.2840  -40.0140   -6.9610 C.ar      1 1H8504      0.0000 
     11 C17       -21.3220  -39.7760   -7.8810 C.ar      1 1H8504      0.0000 
     12 C19       -17.0680  -38.9370   -8.8440 C.3       1 1H8504      0.0000 
     13 C23       -16.5760  -41.3110   -9.3870 C.3       1 1H8504      0.0000 
     14 C25       -15.6210  -40.2180   -7.4150 C.2       1 1H8504      0.0000 
     15 C7        -21.5670  -41.2520   -5.1850 C.2       1 1H8504      0.0000 
     16 O8        -22.6380  -41.2830   -5.7460 O.2       1 1H8504      0.0000 
     17 N9        -20.4590  -40.6490   -5.7090 N.am      1 1H8504      0.0000 
     18 N11       -20.7260  -44.4000    0.7370 N.1       1 1H8504      0.0000 
     19 C12       -18.5640  -39.2220   -8.5320 C.ar      1 1H8504      0.0000 
     20 C13       -19.6180  -38.9720   -9.4490 C.ar      1 1H8504      0.0000 
     21 F18       -19.3290  -38.4540  -10.6720 F         1 1H8504      0.0000 
     22 C20       -16.8440  -37.5170   -9.3240 C.3       1 1H8504      0.0000 
     23 N21       -16.2710  -39.1060   -7.6240 N.pl3     1 1H8504      0.0000 
     24 C22       -16.5200  -39.9010   -9.9380 C.3       1 1H8504      0.0000 
     25 O24       -15.6280  -41.2570   -8.2860 O.3       1 1H8504      0.0000 
     26 N26       -14.9290  -40.3560   -6.2510 N.pl3     1 1H8504      0.0000 
     27 H         -19.3829  -42.0159   -1.3560 H         1 1H8504      0.0000 
     28 H         -23.1674  -43.1136   -4.1571 H         1 1H8504      0.0000 
     29 H         -22.8982  -44.2324   -1.9905 H         1 1H8504      0.0000 
     30 H         -18.2004  -39.9735   -6.6048 H         1 1H8504      0.0000 
     31 H         -21.6894  -39.1587   -9.8638 H         1 1H8504      0.0000 
     32 H         -22.2833  -39.9520   -7.6314 H         1 1H8504      0.0000 
     33 H         -16.2608  -41.9930  -10.1428 H         1 1H8504      0.0000 
     34 H         -17.5647  -41.5117   -9.0437 H         1 1H8504      0.0000 
     35 H         -19.5613  -40.6481   -5.0773 H         1 1H8504      0.0000 
     36 H         -16.2707  -38.3021   -6.9748 H         1 1H8504      0.0000 
     37 H         -15.5045  -39.6267  -10.1589 H         1 1H8504      0.0000 
     38 H         -17.1410  -39.8167  -10.8112 H         1 1H8504      0.0000 
     39 H         -14.9766  -39.5844   -5.6167 H         1 1H8504      0.0000 
     40 H         -14.4340  -41.2168   -6.1328 H         1 1H8504      0.0000 
     41 H         -15.8797  -37.3390   -9.5202 H         1 1H8504      0.0000 
     42 H         -17.3542  -37.3234  -10.1620 H         1 1H8504      0.0000 
     43 H         -17.1335  -36.8447   -8.6427 H         1 1H8504      0.0000 
@<TRIPOS>BOND
     1    2    1 ar   
     2    6    1 ar   
     3    7    1 1    
     4    3    2 ar   
     5   27    2 1    
     6    4    3 ar   
     7    5    4 ar   
     8   15    4 1    
     9    6    5 ar   
    10   28    5 1    
    11   29    6 1    
    12   18    7 3    
    13   10    8 ar   
    14   19    8 ar   
    15   30    8 1    
    16   11    9 ar   
    17   20    9 ar   
    18   31    9 1    
    19   11   10 ar   
    20   17   10 1    
    21   32   11 1    
    22   19   12 1    
    23   22   12 1    
    24   23   12 1    
    25   24   12 1    
    26   24   13 1    
    27   25   13 1    
    28   33   13 1    
    29   34   13 1    
    30   23   14 1    
    31   25   14 1    
    32   26   14 2    
    33   16   15 2    
    34   17   15 am   
    35   35   17 1    
    36   20   19 ar   
    37   21   20 1    
    38   41   22 1    
    39   42   22 1    
    40   43   22 1    
    41   36   23 1    
    42   37   24 1    
    43   38   24 1    
    44   39   26 1    
    45   40   26 1    
@<TRIPOS>SUBSTRUCTURE
     1 1H8504      1 GROUP   
@<TRIPOS>SET

