#    Name: 3qx5_02P_1_INTS_M
#    Modification time : Tue Mar 25 10:20:39 2014

@<TRIPOS>MOLECULE
3qx5_02P_1_INTS_M
   65     0     9     0     0
SMALL
NO_CHARGES


@<TRIPOS>ATOM
      1 O          15.3470  -14.8330   23.9595 O.2       1 ALC1        0.0000 
      2 O          16.4240  -15.5120   23.3060 O.2       7 ALL1        0.0000 
      3 O          14.2700  -14.1540   24.6130 O.2       4 ALP1        0.0000 
      4 N          15.5780  -12.1650   24.1420 N.am      2 SEC2        0.0000 
      5 N          16.4780  -12.7610   23.1340 N.am      8 SEL2        0.0000 
      6 N          14.6780  -11.5690   25.1500 N.am      5 SEP2        0.0000 
      7 CA         17.6530  -13.2240   26.2910 C.3       3 GLC5        0.0000 
      8 CA         18.1720  -14.6910   24.7490 C.3       9 GLL5        0.0000 
      9 CA         17.1340  -11.7570   27.8330 C.3       6 GLP5        0.0000 
     10 CA         20.8690  -10.9360   24.2740 C.3       3 GLC5        0.0000 
     11 CA         21.0550  -12.4410   25.6690 C.3       9 GLL5        0.0000 
     12 CA         20.6830   -9.4310   22.8790 C.3       6 GLP5        0.0000 
     13 CA         22.6300  -11.4655   23.8245 C.3       3 GLC5        0.0000 
     14 CA         22.1300  -13.0620   25.0390 C.3       9 GLL5        0.0000 
     15 CA         23.1300   -9.8690   22.6100 C.3       6 GLP5        0.0000 
     16 CA         17.6705  -10.9905   22.9960 C.3       3 GLC5        0.0000 
     17 CA         17.8850  -11.7110   21.1120 C.3       9 GLL5        0.0000 
     18 CA         17.4560  -10.2700   24.8800 C.3       6 GLP5        0.0000 
     19 CA         11.7325   -8.0860   26.2375 C.3       3 GLC5        0.0000 
     20 CA         12.2700   -7.5340   24.5420 C.3       9 GLL5        0.0000 
     21 CA         11.1950   -8.6380   27.9330 C.3       6 GLP5        0.0000 
     22 CA         11.3495   -5.9720   25.3445 C.3       3 GLC5        0.0000 
     23 CA         10.4290   -4.4100   26.1470 C.3       6 GLP5        0.0000 
     24 O          16.3590   -9.4520   21.6400 O.2       1 ALC1        0.0000 
     25 O          15.7480  -10.5500   20.9450 O.2       7 ALL1        0.0000 
     26 O          16.9700   -8.3540   22.3350 O.2       4 ALP1        0.0000 
     27 CA         12.9530   -7.4170   21.8930 C.3       3 GLC5        0.0000 
     28 CA         13.3000   -9.0870   22.4730 C.3       9 GLL5        0.0000 
     29 CA         12.6060   -5.7470   21.3130 C.3       6 GLP5        0.0000 
     30 CA         11.4590   -9.3995   25.9375 C.3       3 GLC5        0.0000 
     31 CA         11.7230  -10.1610   23.9420 C.3       9 GLL5        0.0000 
     32 CA         10.5605  -11.0705   21.4450 C.3       3 GLC5        0.0000 
     33 CA         11.8890  -11.3200   23.2010 C.3       9 GLL5        0.0000 
     34 CA          9.2320  -10.8210   19.6890 C.3       6 GLP5        0.0000 
     35 CA         10.4915  -12.6390   22.0725 C.3       3 GLC5        0.0000 
     36 CA          9.0940  -13.9580   20.9440 C.3       6 GLP5        0.0000 
     37 CA         11.0400  -11.7235   20.5490 C.3       3 GLC5        0.0000 
     38 CA         12.8480  -12.6260   21.4090 C.3       9 GLL5        0.0000 
     39 CA         10.9710  -13.2920   21.1765 C.3       3 GLC5        0.0000 
     40 CA         19.0645  -14.7218   26.7980 C.3       3 GLC5        0.0000 
     41 CA         19.2560  -15.0280   28.8060 C.3       6 GLP5        0.0000 
     42 CA         19.8370  -13.8695   27.2123 C.3       3 GLC5        0.0000 
     43 CA         19.7810  -12.9810   25.5680 C.3       9 GLL5        0.0000 
     44 CA         22.8637  -11.9802   26.5265 C.3       3 GLC5        0.0000 
     45 CA         24.1350  -11.2090   27.6990 C.3       6 GLP5        0.0000 
     46 CA         18.9111  -11.6354   25.1571 C.3       3 GLC5        0.0000 
     47 CA         18.8055  -10.1315   19.3763 C.3       3 GLC5        0.0000 
     48 CA         19.2400   -8.6010   18.2250 C.3       6 GLP5        0.0000 
     49 CA         21.5320  -13.4232   20.2850 C.3       3 GLC5        0.0000 
     50 CA         19.9600  -12.6050   20.2520 C.3       9 GLL5        0.0000 
     51 CA         23.4260  -13.6950   19.8990 C.3       6 GLP5        0.0000 
     52 CA         19.9243  -10.7822   21.6344 C.3       3 GLC5        0.0000 
     53 CA         18.8991  -13.8478   19.1454 C.3       3 GLC5        0.0000 
     54 CA         18.8570  -11.6130   19.9430 C.3       9 GLL5        0.0000 
     55 CA         18.4360  -14.7920   17.6970 C.3       6 GLP5        0.0000 
     56 CA         12.4822   -7.0155   22.6860 C.3       3 GLC5        0.0000 
     57 CA         14.8349   -9.7196   23.1433 C.3       3 GLC5        0.0000 
     58 CA         13.4280  -10.2790   21.7690 C.3       9 GLL5        0.0000 
     59 CA         16.0740   -9.7420   24.4660 C.3       6 GLP5        0.0000 
     60 CA         11.0032   -8.1494   22.6364 C.3       3 GLC5        0.0000 
     61 CA          9.3360   -7.1440   22.0360 C.3       6 GLP5        0.0000 
     62 CA         14.0574   -9.4823   24.2333 C.3       3 GLC5        0.0000 
     63 CA         12.8615  -11.3634   24.7360 C.3       3 GLC5        0.0000 
     64 CA         12.4470   -9.0340   23.5760 C.3       9 GLL5        0.0000 
     65 CA         13.7360  -12.2680   25.9920 C.3       6 GLP5        0.0000 
@<TRIPOS>BOND
@<TRIPOS>SUBSTRUCTURE
     1 ALC1        1 GROUP        1 X    ALC  0     ROOT ALC X 1
     2 SEC2        4 GROUP        1 X    SEC  0     **** SEC X 2
     3 GLC5        7 GROUP        1 X    GLC  0     **** GLC X 6
     4 ALP1        3 GROUP        1 Y    ALP  0     ROOT ALP Y 8
     5 SEP2        6 GROUP        1 Y    SEP  0     **** SEP Y 9
     6 GLP5        9 GROUP        1 Y    GLP  0     **** GLP Y 13
     7 ALL1        2 GROUP        1 Z    ALL  0     ROOT ALL Z 15
     8 SEL2        5 GROUP        1 Z    SEL  0     **** SEL Z 16
     9 GLL5        8 GROUP        1 Z    GLL  0     **** GLL Z 20
@<TRIPOS>SET

