#    Name: 3qx5_02P_1_ligand
#    Modification time : Tue Mar 25 10:20:39 2014

@<TRIPOS>MOLECULE
3qx5_02P_1_ligand
   55    57     1     0     0
SMALL
NO_CHARGES


@<TRIPOS>ATOM
      1 N10        16.4240  -15.5120   23.3060 N.4       1 02P5        0.0000 
      2 C8         17.6850  -14.7880   23.3080 C.3       1 02P5        0.0000 
      3 C9         17.4080  -13.4370   22.7140 C.2       1 02P5        0.0000 
      4 O12        16.4780  -12.7610   23.1340 O.2       1 02P5        0.0000 
      5 C7         18.1720  -14.6910   24.7490 C.3       1 02P5        0.0000 
      6 C4         19.5740  -14.1400   24.8310 C.ar      1 02P5        0.0000 
      7 C3         19.7810  -12.9810   25.5680 C.ar      1 02P5        0.0000 
      8 C5         20.6460  -14.7660   24.1940 C.ar      1 02P5        0.0000 
      9 C26        21.0550  -12.4410   25.6690 C.ar      1 02P5        0.0000 
     10 C6         21.9240  -14.2220   24.2990 C.ar      1 02P5        0.0000 
     11 C1         22.1300  -13.0620   25.0390 C.ar      1 02P5        0.0000 
     12 N11        18.1760  -13.0170   21.7070 N.am      1 02P5        0.0000 
     13 C13        17.8850  -11.7110   21.1120 C.3       1 02P5        0.0000 
     14 C17        16.4510  -11.6410   20.6420 C.2       1 02P5        0.0000 
     15 O28        15.9570  -12.5680   20.0060 O.2       1 02P5        0.0000 
     16 C15        18.8570  -11.6130   19.9430 C.3       1 02P5        0.0000 
     17 C16        19.9600  -12.6050   20.2520 C.3       1 02P5        0.0000 
     18 C14        19.3160  -13.6980   21.0900 C.3       1 02P5        0.0000 
     19 CL2        12.2700   -7.5340   24.5420 Cl        1 02P5        0.0000 
     20 N18        15.7480  -10.5500   20.9450 N.am      1 02P5        0.0000 
     21 C19        14.3550  -10.3360   20.5670 C.3       1 02P5        0.0000 
     22 C20        13.4280  -10.2790   21.7690 C.ar      1 02P5        0.0000 
     23 N21        12.7200  -11.3620   22.1460 N.pl3     1 02P5        0.0000 
     24 C22        13.3000   -9.0870   22.4730 C.ar      1 02P5        0.0000 
     25 C23        12.4470   -9.0340   23.5760 C.ar      1 02P5        0.0000 
     26 C24        11.7230  -10.1610   23.9420 C.ar      1 02P5        0.0000 
     27 C25        11.8890  -11.3200   23.2010 C.ar      1 02P5        0.0000 
     28 C27        12.8480  -12.6260   21.4090 C.3       1 02P5        0.0000 
     29 H          18.4083  -15.3016   22.7209 H         1 02P5        0.0000 
     30 H          18.1427  -15.6880   25.2021 H         1 02P5        0.0000 
     31 H          17.4903  -14.0441   25.3119 H         1 02P5        0.0000 
     32 H          18.9887  -12.5232   26.0390 H         1 02P5        0.0000 
     33 H          20.4927  -15.6220   23.6516 H         1 02P5        0.0000 
     34 H          21.2080  -11.5788   26.2108 H         1 02P5        0.0000 
     35 H          22.7161  -14.6791   23.8285 H         1 02P5        0.0000 
     36 H          23.0734  -12.6642   25.1206 H         1 02P5        0.0000 
     37 H          18.0994  -10.9338   21.7990 H         1 02P5        0.0000 
     38 H          19.2592  -10.6244   19.8925 H         1 02P5        0.0000 
     39 H          18.3599  -11.8902   19.0387 H         1 02P5        0.0000 
     40 H          20.7329  -12.1256   20.8173 H         1 02P5        0.0000 
     41 H          20.3381  -13.0242   19.3420 H         1 02P5        0.0000 
     42 H          18.9962  -14.4864   20.4474 H         1 02P5        0.0000 
     43 H          20.0139  -14.0303   21.8244 H         1 02P5        0.0000 
     44 H          16.1837   -9.7569   21.4952 H         1 02P5        0.0000 
     45 H          14.0053  -11.1445   19.9002 H         1 02P5        0.0000 
     46 H          14.2466   -9.3921   20.0032 H         1 02P5        0.0000 
     47 H          13.8243   -8.2569   22.1875 H         1 02P5        0.0000 
     48 H          11.0859  -10.1349   24.7359 H         1 02P5        0.0000 
     49 H          11.3481  -12.1700   23.4834 H         1 02P5        0.0000 
     50 H          16.2943  -16.0296   22.4603 H         1 02P5        0.0000 
     51 H          16.3698  -16.1656   24.0610 H         1 02P5        0.0000 
     52 H          15.6416  -14.8956   23.3952 H         1 02P5        0.0000 
     53 H          13.7870  -12.9696   21.4213 H         1 02P5        0.0000 
     54 H          12.2685  -13.3426   21.7972 H         1 02P5        0.0000 
     55 H          12.5856  -12.5246   20.4494 H         1 02P5        0.0000 
@<TRIPOS>BOND
     1    2    1 1    
     2   50    1 1    
     3   51    1 1    
     4   52    1 1    
     5    3    2 1    
     6    5    2 1    
     7   29    2 1    
     8    4    3 2    
     9   12    3 am   
    10    6    5 1    
    11   30    5 1    
    12   31    5 1    
    13    7    6 ar   
    14    8    6 ar   
    15    9    7 ar   
    16   32    7 1    
    17   10    8 ar   
    18   33    8 1    
    19   11    9 ar   
    20   34    9 1    
    21   11   10 ar   
    22   35   10 1    
    23   36   11 1    
    24   13   12 1    
    25   18   12 1    
    26   14   13 1    
    27   16   13 1    
    28   37   13 1    
    29   15   14 2    
    30   20   14 am   
    31   17   16 1    
    32   38   16 1    
    33   39   16 1    
    34   18   17 1    
    35   40   17 1    
    36   41   17 1    
    37   42   18 1    
    38   43   18 1    
    39   25   19 1    
    40   21   20 1    
    41   44   20 1    
    42   22   21 1    
    43   45   21 1    
    44   46   21 1    
    45   23   22 ar   
    46   24   22 ar   
    47   27   23 ar   
    48   28   23 1    
    49   25   24 ar   
    50   47   24 1    
    51   26   25 ar   
    52   27   26 ar   
    53   48   26 1    
    54   49   27 1    
    55   53   28 1    
    56   54   28 1    
    57   55   28 1    
@<TRIPOS>SUBSTRUCTURE
     1 02P5        1 GROUP   
@<TRIPOS>SET

