#    Name: 2o64_MYU_3_INTS_M
#    Modification time : Tue Mar 25 22:00:50 2014

@<TRIPOS>MOLECULE
2o64_MYU_3_INTS_M
   64     0     9     0     0
SMALL
NO_CHARGES


@<TRIPOS>ATOM
      1 CA         72.8110   36.5800   -3.1350 C.3       3 GLC5        0.0000 
      2 CA         74.6040   36.6660   -1.8290 C.3       9 GLL5        0.0000 
      3 CA         71.0180   36.4940   -4.4410 C.3       6 GLP5        0.0000 
      4 O          74.2680   37.8360   -4.0850 O.2       1 ALC1        0.0000 
      5 O          74.5220   36.7960   -3.1630 O.2       7 ALL1        0.0000 
      6 O          74.0140   38.8760   -5.0070 O.2       4 ALP1        0.0000 
      7 CA         75.8800   38.0805   -1.2405 C.3       3 GLC5        0.0000 
      8 CA         74.4120   37.7750    0.4280 C.3       9 GLL5        0.0000 
      9 CA         77.3480   38.3860   -2.9090 C.3       6 GLP5        0.0000 
     10 CA         76.9005   36.2115    0.5155 C.3       3 GLC5        0.0000 
     11 CA         74.7510   36.4930    1.0510 C.3       9 GLL5        0.0000 
     12 CA         79.0500   35.9300   -0.0200 C.3       6 GLP5        0.0000 
     13 CA         72.6380   36.1945    2.2285 C.3       3 GLC5        0.0000 
     14 CA         74.8110   36.3470    2.4310 C.3       9 GLL5        0.0000 
     15 CA         70.4650   36.0420    2.0260 C.3       6 GLP5        0.0000 
     16 CA         76.5255   37.8900    3.5110 C.3       3 GLC5        0.0000 
     17 CA         74.5680   37.4190    3.2870 C.3       9 GLL5        0.0000 
     18 CA         78.4830   38.3610    3.7350 C.3       6 GLP5        0.0000 
     19 CA         76.9720   35.7250   -0.6055 C.3       3 GLC5        0.0000 
     20 CA         74.8940   35.5200   -1.1910 C.3       9 GLL5        0.0000 
     21 CA         75.0770   30.1615   -1.1930 C.3       3 GLC5        0.0000 
     22 CA         76.0520   31.9730   -1.4390 C.3       9 GLL5        0.0000 
     23 CA         74.1020   28.3500   -0.9470 C.3       6 GLP5        0.0000 
     24 N          77.3680   30.0400   -1.6070 N.am      2 SEC2        0.0000 
     25 N          76.5390   31.0080   -0.6750 N.am      8 SEL2        0.0000 
     26 N          78.1970   29.0720   -2.5390 N.am      5 SEP2        0.0000 
     27 CA         74.8790   30.0990   -2.6525 C.3       3 GLC5        0.0000 
     28 CA         75.8560   31.7120   -2.8510 C.3       9 GLL5        0.0000 
     29 CA         73.9020   28.4860   -2.4540 C.3       6 GLP5        0.0000 
     30 N          76.0995   29.7315   -4.3580 N.am      2 SEC2        0.0000 
     31 N          76.1860   30.5230   -3.2750 N.am      8 SEL2        0.0000 
     32 N          76.0130   28.9400   -5.4410 N.am      5 SEP2        0.0000 
     33 CA         73.6340   32.9150   -4.9355 C.3       3 GLC5        0.0000 
     34 CA         75.3380   32.6850   -3.6970 C.3       9 GLL5        0.0000 
     35 CA         71.9300   33.1450   -6.1740 C.3       6 GLP5        0.0000 
     36 CA         73.4310   34.8055   -4.2805 C.3       3 GLC5        0.0000 
     37 CA         75.0140   33.9390   -3.1760 C.3       9 GLL5        0.0000 
     38 CA         71.8480   35.6720   -5.3850 C.3       6 GLP5        0.0000 
     39 CA         73.1345   33.7640   -2.7480 C.3       3 GLC5        0.0000 
     40 CA         71.2550   33.5890   -2.3200 C.3       6 GLP5        0.0000 
     41 CA         76.0485   37.2395   -2.2095 C.3       3 GLC5        0.0000 
     42 CA         72.8795   36.4860   -0.8900 C.3       3 GLC5        0.0000 
     43 CA         71.0100   36.8790   -0.2700 C.3       6 GLP5        0.0000 
     44 CA         72.7477   40.1360    2.2268 C.3       3 GLC5        0.0000 
     45 CA         74.1450   38.9430    1.2880 C.3       9 GLL5        0.0000 
     46 CA         71.3070   41.4170    2.4400 C.3       6 GLP5        0.0000 
     47 CA         76.1980   38.0190    1.7415 C.3       3 GLC5        0.0000 
     48 CA         77.6150   39.6180    1.7420 C.3       6 GLP5        0.0000 
     49 CA         72.7624   37.1525    0.3422 C.3       3 GLC5        0.0000 
     50 CA         75.9351   39.0905    1.7702 C.3       3 GLC5        0.0000 
     51 CA         73.7912   33.6928   -0.5238 C.3       3 GLC5        0.0000 
     52 CA         72.5300   32.5230    0.4620 C.3       6 GLP5        0.0000 
     53 CA         76.3888   34.1830   -4.0130 C.3       3 GLC5        0.0000 
     54 CA         75.2110   34.2050   -1.8280 C.3       9 GLL5        0.0000 
     55 CA         77.6650   34.2940   -5.5240 C.3       6 GLP5        0.0000 
     56 CA         77.7518   33.0618   -0.3865 C.3       3 GLC5        0.0000 
     57 CA         75.7170   33.2280   -0.9570 C.3       9 GLL5        0.0000 
     58 CA         79.6190   33.5230    0.4250 C.3       6 GLP5        0.0000 
     59 CA         74.2073   32.5618   -0.3680 C.3       3 GLC5        0.0000 
     60 CA         76.6310   33.2463   -4.3990 C.3       3 GLC5        0.0000 
     61 CA         73.6860   32.1933   -2.5925 C.3       3 GLC5        0.0000 
     62 CA         71.7750   32.1880   -1.9110 C.3       6 GLP5        0.0000 
     63 CA         77.5790   31.6824   -3.0295 C.3       3 GLC5        0.0000 
     64 CA         79.5120   31.1010   -3.1380 C.3       6 GLP5        0.0000 
@<TRIPOS>BOND
@<TRIPOS>SUBSTRUCTURE
     1 ALC1        4 GROUP        1 X    ALC  0     ROOT ALC X 1
     2 SEC2       24 GROUP        1 X    SEC  0     **** SEC X 2
     3 GLC5        1 GROUP        1 X    GLC  0     **** GLC X 6
     4 ALP1        6 GROUP        1 Y    ALP  0     ROOT ALP Y 8
     5 SEP2       26 GROUP        1 Y    SEP  0     **** SEP Y 9
     6 GLP5        3 GROUP        1 Y    GLP  0     **** GLP Y 13
     7 ALL1        5 GROUP        1 Z    ALL  0     ROOT ALL Z 15
     8 SEL2       25 GROUP        1 Z    SEL  0     **** SEL Z 16
     9 GLL5        2 GROUP        1 Z    GLL  0     **** GLL Z 20
@<TRIPOS>SET

