#    Name: 2o64_MYU_3_ligand
#    Modification time : Tue Mar 25 22:00:50 2014

@<TRIPOS>MOLECULE
2o64_MYU_3_ligand
   33    35     1     0     0
SMALL
NO_CHARGES


@<TRIPOS>ATOM
      1 O20        74.0290   38.9190   -1.5840 O.2       1 MYU501      0.0000 
      2 C11        74.3420   37.8600   -1.0440 C.2       1 MYU501      0.0000 
      3 C12        74.6040   36.6660   -1.8290 C.2       1 MYU501      0.0000 
      4 O19        74.5220   36.7960   -3.1630 O.3       1 MYU501      0.0000 
      5 C10        74.4120   37.7750    0.4280 C.ar      1 MYU501      0.0000 
      6 C13        74.1450   38.9430    1.2880 C.ar      1 MYU501      0.0000 
      7 O21        73.8540   40.1350    0.7860 O.3       1 MYU501      0.0000 
      8 C9         74.7510   36.4930    1.0510 C.ar      1 MYU501      0.0000 
      9 C16        74.8110   36.3470    2.4310 C.ar      1 MYU501      0.0000 
     10 C15        74.5680   37.4190    3.2870 C.ar      1 MYU501      0.0000 
     11 O22        74.6230   37.2070    4.6040 O.3       1 MYU501      0.0000 
     12 C14        74.2320   38.7670    2.7390 C.ar      1 MYU501      0.0000 
     13 O23        73.9910   39.8210    3.5090 O.3       1 MYU501      0.0000 
     14 O8         74.9890   35.4310    0.2540 O.3       1 MYU501      0.0000 
     15 C7         74.8940   35.5200   -1.1910 C.2       1 MYU501      0.0000 
     16 C6         75.2110   34.2050   -1.8280 C.ar      1 MYU501      0.0000 
     17 C5         75.7170   33.2280   -0.9570 C.ar      1 MYU501      0.0000 
     18 C4         76.0520   31.9730   -1.4390 C.ar      1 MYU501      0.0000 
     19 O17        76.5390   31.0080   -0.6750 O.3       1 MYU501      0.0000 
     20 C3         75.8560   31.7120   -2.8510 C.ar      1 MYU501      0.0000 
     21 O18        76.1860   30.5230   -3.2750 O.3       1 MYU501      0.0000 
     22 C2         75.3380   32.6850   -3.6970 C.ar      1 MYU501      0.0000 
     23 C1         75.0140   33.9390   -3.1760 C.ar      1 MYU501      0.0000 
     24 H          75.0420   35.4189    2.8355 H         1 MYU501      0.0000 
     25 H          75.8364   33.4516    0.0392 H         1 MYU501      0.0000 
     26 H          75.1947   32.4878   -4.6897 H         1 MYU501      0.0000 
     27 H          74.6289   34.6646   -3.7950 H         1 MYU501      0.0000 
     28 H          74.3306   37.7653   -3.3172 H         1 MYU501      0.0000 
     29 H          73.8364   40.0011   -0.2048 H         1 MYU501      0.0000 
     30 H          75.5636   36.9169    4.7803 H         1 MYU501      0.0000 
     31 H          74.2622   40.6107    2.9588 H         1 MYU501      0.0000 
     32 H          76.8744   31.4717    0.1451 H         1 MYU501      0.0000 
     33 H          76.5014   30.0362   -2.4604 H         1 MYU501      0.0000 
@<TRIPOS>BOND
     1    2    1 2    
     2    3    2 1    
     3    5    2 1    
     4    4    3 1    
     5   15    3 2    
     6   28    4 1    
     7    6    5 ar   
     8    8    5 ar   
     9    7    6 1    
    10   12    6 ar   
    11   29    7 1    
    12    9    8 ar   
    13   14    8 1    
    14   10    9 ar   
    15   24    9 1    
    16   11   10 1    
    17   12   10 ar   
    18   30   11 1    
    19   13   12 1    
    20   31   13 1    
    21   15   14 1    
    22   16   15 1    
    23   17   16 ar   
    24   23   16 ar   
    25   18   17 ar   
    26   25   17 1    
    27   19   18 1    
    28   20   18 ar   
    29   32   19 1    
    30   21   20 1    
    31   22   20 ar   
    32   33   21 1    
    33   23   22 ar   
    34   26   22 1    
    35   27   23 1    
@<TRIPOS>SUBSTRUCTURE
     1 MYU501      1 GROUP   
@<TRIPOS>SET

