#    Name: 4n70_2HX_1_INTS_M
#    Modification time : Tue Mar 25 12:45:43 2014

@<TRIPOS>MOLECULE
4n70_2HX_1_INTS_M
   82     0     9     0     0
SMALL
NO_CHARGES


@<TRIPOS>ATOM
      1 CA        -19.1190   34.1830   -2.9555 C.3       3 GLC5        0.0000 
      2 CA        -18.3960   35.7790   -4.1200 C.3       9 GLL5        0.0000 
      3 CA        -19.8420   32.5870   -1.7910 C.3       6 GLP5        0.0000 
      4 CA        -16.3605   39.5925   -6.1445 C.3       3 GLC5        0.0000 
      5 CA        -16.4900   37.4920   -5.5700 C.3       9 GLL5        0.0000 
      6 CA        -16.2310   41.6930   -6.7190 C.3       6 GLP5        0.0000 
      7 CA        -15.6720   31.9520   -0.2950 C.3       3 GLC5        0.0000 
      8 CA        -15.0920   33.3670   -1.8910 C.3       9 GLL5        0.0000 
      9 CA        -16.2520   30.5370    1.3010 C.3       6 GLP5        0.0000 
     10 O         -15.3050   32.4565    0.2725 O.2       1 ALC1        0.0000 
     11 O         -15.5810   33.4920   -0.6480 O.2       7 ALL1        0.0000 
     12 O         -15.0290   31.4210    1.1930 O.2       4 ALP1        0.0000 
     13 CA        -16.9940   32.9065    0.6000 C.3       3 GLC5        0.0000 
     14 CA        -16.5070   34.4520   -0.4270 C.3       9 GLL5        0.0000 
     15 CA        -17.4810   31.3610    1.6270 C.3       6 GLP5        0.0000 
     16 CA        -14.4900   34.6700   -0.4425 C.3       3 GLC5        0.0000 
     17 CA        -12.4730   34.8880   -0.4580 C.3       6 GLP5        0.0000 
     18 CA        -22.1065   36.3260   -5.4330 C.3       3 GLC5        0.0000 
     19 CA        -20.3760   36.7320   -5.2990 C.3       9 GLL5        0.0000 
     20 CA        -23.8370   35.9200   -5.5670 C.3       6 GLP5        0.0000 
     21 CA        -18.8895   39.3690    2.6425 C.3       3 GLC5        0.0000 
     22 CA        -19.7720   38.4960    1.2040 C.3       9 GLL5        0.0000 
     23 CA        -18.0070   40.2420    4.0810 C.3       6 GLP5        0.0000 
     24 CA        -20.1785   37.7690    3.0235 C.3       3 GLC5        0.0000 
     25 CA        -20.5850   37.0420    4.8430 C.3       6 GLP5        0.0000 
     26 CA        -19.5865   40.5655    2.1950 C.3       3 GLC5        0.0000 
     27 CA        -20.5960   39.6200    1.0390 C.3       9 GLL5        0.0000 
     28 CA        -18.5770   41.5110    3.3510 C.3       6 GLP5        0.0000 
     29 CA        -23.4405   41.3495   -0.0665 C.3       3 GLC5        0.0000 
     30 CA        -21.7040   41.1730   -0.4340 C.3       9 GLL5        0.0000 
     31 CA        -25.1770   41.5260    0.3010 C.3       6 GLP5        0.0000 
     32 CA        -21.8190   42.5925    0.6480 C.3       3 GLC5        0.0000 
     33 CA        -21.9340   44.0120    1.7300 C.3       6 GLP5        0.0000 
     34 CA        -21.3105   42.8475   -1.5420 C.3       3 GLC5        0.0000 
     35 CA        -20.9170   44.5220   -2.6500 C.3       6 GLP5        0.0000 
     36 OD1       -15.7480   38.8980   -7.4855 O.co2     2 ASC3        0.0000 
     37 OD1       -15.6420   37.8590   -6.7170 O.co2     8 ASL3        0.0000 
     38 OD1       -15.8540   39.9370   -8.2540 O.co2     5 ASP3        0.0000 
     39 O         -15.7480   38.8980   -7.4855 O.2       1 ALC1        0.0000 
     40 O         -15.6420   37.8590   -6.7170 O.2       7 ALL1        0.0000 
     41 O         -15.8540   39.9370   -8.2540 O.2       4 ALP1        0.0000 
     42 O         -14.5380   38.2605   -5.9785 O.2       1 ALC1        0.0000 
     43 O         -13.4340   38.6620   -5.2400 O.2       4 ALP1        0.0000 
     44 CA        -17.3420   40.8910   -5.0795 C.3       3 GLC5        0.0000 
     45 CA        -18.4530   40.0890   -3.4400 C.3       9 GLL5        0.0000 
     46 CA        -16.9675   39.4665   -2.8155 C.3       3 GLC5        0.0000 
     47 CA        -15.4820   38.8440   -2.1910 C.3       6 GLP5        0.0000 
     48 CA        -23.0955   38.3090   -0.5760 C.3       3 GLC5        0.0000 
     49 CA        -23.0650   39.6880   -2.2890 C.3       9 GLL5        0.0000 
     50 CA        -23.1260   36.9300    1.1370 C.3       6 GLP5        0.0000 
     51 CA        -24.4805   40.0655   -1.3845 C.3       3 GLC5        0.0000 
     52 CA        -25.8960   40.4430   -0.4800 C.3       6 GLP5        0.0000 
     53 CA        -23.0840   41.7230   -2.8500 C.3       3 GLC5        0.0000 
     54 CA        -23.1030   43.7580   -3.4110 C.3       6 GLP5        0.0000 
     55 O         -17.1020   39.2640   -7.4750 O.2       1 ALC1        0.0000 
     56 O         -18.3500   38.5910   -6.6960 O.2       7 ALL1        0.0000 
     57 CA        -15.8695   37.8455   -3.7065 C.3       3 GLC5        0.0000 
     58 CA        -16.1227   37.0245   -2.1340 C.3       3 GLC5        0.0000 
     59 CA        -17.0230   35.2730   -1.4350 C.3       9 GLL5        0.0000 
     60 CA        -14.7788   31.9625   -2.6402 C.3       3 GLC5        0.0000 
     61 CA        -15.5390   34.1490   -2.9500 C.3       9 GLL5        0.0000 
     62 CA        -14.2420   30.1670   -2.8600 C.3       6 GLP5        0.0000 
     63 CA        -13.8942   34.3230   -1.4393 C.3       3 GLC5        0.0000 
     64 CA        -18.2386   33.7078   -1.5215 C.3       3 GLC5        0.0000 
     65 CA        -21.3317   37.5648    0.8685 C.3       3 GLC5        0.0000 
     66 CA        -19.3030   37.9030   -0.0040 C.3       9 GLL5        0.0000 
     67 CA        -19.0102   40.1962    0.0090 C.3       3 GLC5        0.0000 
     68 CA        -18.4830   42.1930   -0.5820 C.3       6 GLP5        0.0000 
     69 CA        -17.7283   39.0042    0.7410 C.3       3 GLC5        0.0000 
     70 CA        -15.9190   39.8090    0.8820 C.3       6 GLP5        0.0000 
     71 CA        -22.3030   40.9080    1.4207 C.3       3 GLC5        0.0000 
     72 CA        -23.8580   41.9590    2.4560 C.3       6 GLP5        0.0000 
     73 CA        -21.8495   38.2888    0.3169 C.3       3 GLC5        0.0000 
     74 CA        -19.5252   40.9245   -1.3282 C.3       3 GLC5        0.0000 
     75 CA        -20.3980   39.4380   -1.3920 C.3       9 GLL5        0.0000 
     76 CA        -19.8545   41.3540   -0.3031 C.3       3 GLC5        0.0000 
     77 CA        -22.4985   42.1381   -4.0341 C.3       3 GLC5        0.0000 
     78 CA        -22.1080   40.0160   -3.1920 C.3       9 GLL5        0.0000 
     79 CA        -18.7895   41.1730   -2.0760 C.3       3 GLC5        0.0000 
     80 CA        -19.7390   40.2170   -3.7000 C.3       9 GLL5        0.0000 
     81 CA        -23.7345   38.6106   -3.3414 C.3       3 GLC5        0.0000 
     82 CA        -24.7890   37.2610   -3.6150 C.3       6 GLP5        0.0000 
@<TRIPOS>BOND
@<TRIPOS>SUBSTRUCTURE
     1 ALC1       10 GROUP        1 X    ALC  0     ROOT ALC X 1
     2 ASC3       36 GROUP        1 X    ASC  0     **** ASC X 3
     3 GLC5        1 GROUP        1 X    GLC  0     **** GLC X 6
     4 ALP1       12 GROUP        1 Y    ALP  0     ROOT ALP Y 8
     5 ASP3       38 GROUP        1 Y    ASP  0     **** ASP Y 10
     6 GLP5        3 GROUP        1 Y    GLP  0     **** GLP Y 13
     7 ALL1       11 GROUP        1 Z    ALL  0     ROOT ALL Z 15
     8 ASL3       37 GROUP        1 Z    ASL  0     **** ASL Z 17
     9 GLL5        2 GROUP        1 Z    GLL  0     **** GLL Z 20
@<TRIPOS>SET

