#    Name: 4n70_2HX_1_ligand
#    Modification time : Tue Mar 25 12:45:43 2014

@<TRIPOS>MOLECULE
4n70_2HX_1_ligand
   57    60     1     0     0
SMALL
NO_CHARGES


@<TRIPOS>ATOM
      1 C1        -18.9280   37.0040   -4.8710 C.3       1 2HX401      0.0000 
      2 C2        -18.3960   35.7790   -4.1200 C.3       1 2HX401      0.0000 
      3 N3        -16.9570   35.9070   -3.7820 N.3       1 2HX401      0.0000 
      4 C4        -16.0240   36.2020   -4.8740 C.3       1 2HX401      0.0000 
      5 C5        -16.4900   37.4920   -5.5700 C.3       1 2HX401      0.0000 
      6 C6        -17.9850   37.3370   -6.0680 C.3       1 2HX401      0.0000 
      7 C7        -16.5040   35.1370   -2.7190 C.ar      1 2HX401      0.0000 
      8 C8        -15.5390   34.1490   -2.9500 C.ar      1 2HX401      0.0000 
      9 C9        -15.0920   33.3670   -1.8910 C.ar      1 2HX401      0.0000 
     10 N10       -15.5810   33.4920   -0.6480 N.pl3     1 2HX401      0.0000 
     11 C11       -16.5070   34.4520   -0.4270 C.ar      1 2HX401      0.0000 
     12 C12       -17.0230   35.2730   -1.4350 C.ar      1 2HX401      0.0000 
     13 N13       -17.9840   36.2680   -1.2130 N.am      1 2HX401      0.0000 
     14 C14       -20.3760   36.7320   -5.2990 C.3       1 2HX401      0.0000 
     15 C15       -18.3790   36.7390    0.0190 C.2       1 2HX401      0.0000 
     16 C16       -19.3030   37.9030   -0.0040 C.ar      1 2HX401      0.0000 
     17 O17       -18.0220   36.3280    1.1060 O.2       1 2HX401      0.0000 
     18 C18       -19.7720   38.4960    1.2040 C.ar      1 2HX401      0.0000 
     19 C19       -20.5960   39.6200    1.0390 C.ar      1 2HX401      0.0000 
     20 C20       -20.9000   40.0940   -0.2680 C.ar      1 2HX401      0.0000 
     21 C21       -20.3980   39.4380   -1.3920 C.ar      1 2HX401      0.0000 
     22 N22       -19.5950   38.3340   -1.2670 N.ar      1 2HX401      0.0000 
     23 C23       -20.7370   39.8740   -2.7570 C.ar      1 2HX401      0.0000 
     24 F24       -21.7040   41.1730   -0.4340 F         1 2HX401      0.0000 
     25 N25       -15.6420   37.8590   -6.7170 N.4       1 2HX401      0.0000 
     26 C26       -22.1080   40.0160   -3.1920 C.ar      1 2HX401      0.0000 
     27 C27       -22.4820   40.4490   -4.5010 C.ar      1 2HX401      0.0000 
     28 C28       -21.4930   40.8040   -5.4680 C.ar      1 2HX401      0.0000 
     29 C29       -20.2390   40.5610   -4.9410 C.ar      1 2HX401      0.0000 
     30 C30       -19.7390   40.2170   -3.7000 C.ar      1 2HX401      0.0000 
     31 F31       -18.4530   40.0890   -3.4400 F         1 2HX401      0.0000 
     32 F32       -23.0650   39.6880   -2.2890 F         1 2HX401      0.0000 
     33 O33       -18.3500   38.5910   -6.6960 O.3       1 2HX401      0.0000 
     34 H         -18.9178   37.8435   -4.1872 H         1 2HX401      0.0000 
     35 H         -18.5616   34.8910   -4.7471 H         1 2HX401      0.0000 
     36 H         -18.9914   35.6500   -3.2046 H         1 2HX401      0.0000 
     37 H         -16.0153   35.4041   -5.6078 H         1 2HX401      0.0000 
     38 H         -15.0198   36.3623   -4.4984 H         1 2HX401      0.0000 
     39 H         -16.4978   38.2954   -4.8379 H         1 2HX401      0.0000 
     40 H         -18.0030   36.5278   -6.7632 H         1 2HX401      0.0000 
     41 H         -15.1682   34.0071   -3.8932 H         1 2HX401      0.0000 
     42 H         -14.3413   32.6561   -2.0932 H         1 2HX401      0.0000 
     43 H         -15.2649   32.8798    0.1155 H         1 2HX401      0.0000 
     44 H         -16.8729   34.6054    0.5537 H         1 2HX401      0.0000 
     45 H         -18.4440   36.6914   -2.0793 H         1 2HX401      0.0000 
     46 H         -19.5284   38.1336    2.0893 H         1 2HX401      0.0000 
     47 H         -20.9817   40.1037    1.8510 H         1 2HX401      0.0000 
     48 H         -23.4725   40.5055   -4.7490 H         1 2HX401      0.0000 
     49 H         -21.6920   41.1498   -6.3286 H         1 2HX401      0.0000 
     50 H         -19.4125   40.6718   -5.7242 H         1 2HX401      0.0000 
     51 H         -20.4426   35.9340   -5.8979 H         1 2HX401      0.0000 
     52 H         -20.9693   36.5588   -4.5129 H         1 2HX401      0.0000 
     53 H         -20.7676   37.5057   -5.7970 H         1 2HX401      0.0000 
     54 H         -15.9590   38.6976   -7.1600 H         1 2HX401      0.0000 
     55 H         -14.6927   38.0132   -6.4428 H         1 2HX401      0.0000 
     56 H         -15.6327   37.1439   -7.4159 H         1 2HX401      0.0000 
     57 H         -17.5323   38.8782   -7.1948 H         1 2HX401      0.0000 
@<TRIPOS>BOND
     1    2    1 1    
     2    6    1 1    
     3   14    1 1    
     4   34    1 1    
     5    3    2 1    
     6   35    2 1    
     7   36    2 1    
     8    4    3 1    
     9    7    3 1    
    10    5    4 1    
    11   37    4 1    
    12   38    4 1    
    13    6    5 1    
    14   25    5 1    
    15   39    5 1    
    16   33    6 1    
    17   40    6 1    
    18    8    7 ar   
    19   12    7 ar   
    20    9    8 ar   
    21   41    8 1    
    22   10    9 ar   
    23   42    9 1    
    24   11   10 ar   
    25   43   10 1    
    26   12   11 ar   
    27   44   11 1    
    28   13   12 1    
    29   15   13 am   
    30   45   13 1    
    31   51   14 1    
    32   52   14 1    
    33   53   14 1    
    34   16   15 1    
    35   17   15 2    
    36   18   16 ar   
    37   22   16 ar   
    38   19   18 ar   
    39   46   18 1    
    40   20   19 ar   
    41   47   19 1    
    42   21   20 ar   
    43   24   20 1    
    44   22   21 ar   
    45   23   21 1    
    46   26   23 ar   
    47   30   23 ar   
    48   54   25 1    
    49   55   25 1    
    50   56   25 1    
    51   27   26 ar   
    52   32   26 1    
    53   28   27 ar   
    54   48   27 1    
    55   29   28 ar   
    56   49   28 1    
    57   30   29 ar   
    58   50   29 1    
    59   31   30 1    
    60   57   33 1    
@<TRIPOS>SUBSTRUCTURE
     1 2HX401      1 GROUP   
@<TRIPOS>SET

