#    Name: 3ikt_NAD_1_INTS_M
#    Modification time : Tue Mar 25 16:43:24 2014

@<TRIPOS>MOLECULE
3ikt_NAD_1_INTS_M
   80     0     9     0     0
SMALL
NO_CHARGES


@<TRIPOS>ATOM
      1 N          -8.2550    1.0265  -16.5715 N.am      2 SEC2        0.0000 
      2 N          -8.2710    0.6550  -14.9510 N.am      8 SEL2        0.0000 
      3 N          -8.2390    1.3980  -18.1920 N.am      5 SEP2        0.0000 
      4 CA        -12.2030   -3.6630  -16.4695 C.3       3 GLC5        0.0000 
      5 CA        -11.5600   -2.4780  -15.0740 C.3       9 GLL5        0.0000 
      6 CA        -12.8460   -4.8480  -17.8650 C.3       6 GLP5        0.0000 
      7 N         -13.1335    0.5980  -15.1780 N.am      2 SEC2        0.0000 
      8 N         -13.1820   -0.8040  -15.0620 N.am      8 SEL2        0.0000 
      9 N         -13.0850    2.0000  -15.2940 N.am      5 SEP2        0.0000 
     10 O         -14.1485   -1.4455  -15.8130 O.2       1 ALC1        0.0000 
     11 O         -13.1820   -0.8040  -15.0620 O.2       7 ALL1        0.0000 
     12 O         -15.1150   -2.0870  -16.5640 O.2       4 ALP1        0.0000 
     13 O         -15.3775   -1.8465  -13.8080 O.2       1 ALC1        0.0000 
     14 O         -14.2460   -1.7070  -12.7450 O.2       7 ALL1        0.0000 
     15 O         -16.5090   -1.9860  -14.8710 O.2       4 ALP1        0.0000 
     16 CA        -13.1260   -4.1815  -15.9685 C.3       3 GLC5        0.0000 
     17 CA        -13.4060   -3.5150  -14.0720 C.3       9 GLL5        0.0000 
     18 CA        -12.8240   -5.4920  -14.7490 C.3       3 GLC5        0.0000 
     19 CA        -12.2420   -7.4690  -15.4260 C.3       6 GLP5        0.0000 
     20 CA        -13.2095   -7.6525  -11.6535 C.3       3 GLC5        0.0000 
     21 CA        -14.7380   -6.6050  -12.8100 C.3       9 GLL5        0.0000 
     22 CA        -11.6810   -8.7000  -10.4970 C.3       6 GLP5        0.0000 
     23 CA        -17.0885   -6.9750  -12.8900 C.3       3 GLC5        0.0000 
     24 CA        -15.5280   -7.7310  -13.0510 C.3       9 GLL5        0.0000 
     25 CA        -18.6490   -6.2190  -12.7290 C.3       6 GLP5        0.0000 
     26 CA        -15.4305   -7.9315  -16.7170 C.3       3 GLC5        0.0000 
     27 CA        -16.0040   -6.7850  -15.2700 C.3       9 GLL5        0.0000 
     28 CA        -14.8570   -9.0780  -18.1640 C.3       6 GLP5        0.0000 
     29 CA        -16.8875   -5.4215  -16.0400 C.3       3 GLC5        0.0000 
     30 CA        -17.7710   -4.0580  -16.8100 C.3       6 GLP5        0.0000 
     31 CA        -17.3265   -6.5020  -13.9995 C.3       3 GLC5        0.0000 
     32 CA        -17.3135   -7.4900  -16.0140 C.3       3 GLC5        0.0000 
     33 CA        -18.6230   -8.1950  -16.7580 C.3       6 GLP5        0.0000 
     34 CA        -14.1230   -7.1270  -15.3480 C.3       3 GLC5        0.0000 
     35 CA        -13.7260   -5.2360  -15.8330 C.3       3 GLC5        0.0000 
     36 CA        -14.6060   -5.6240  -13.8010 C.3       9 GLL5        0.0000 
     37 N          -6.5875   -0.7820  -18.3980 N.am      2 SEC2        0.0000 
     38 N          -6.7170   -1.3270  -16.9510 N.am      8 SEL2        0.0000 
     39 N          -6.4580   -0.2370  -19.8450 N.am      5 SEP2        0.0000 
     40 CA         -8.1500   -5.3680  -15.4150 C.3       3 GLC5        0.0000 
     41 CA         -6.4070   -4.0970  -15.7910 C.3       9 GLL5        0.0000 
     42 CA         -9.8930   -6.6390  -15.0390 C.3       6 GLP5        0.0000 
     43 CA         -7.0240   -6.1020  -17.3170 C.3       3 GLC5        0.0000 
     44 CA         -5.5120   -5.3020  -16.0300 C.3       9 GLL5        0.0000 
     45 CA         -8.5360   -6.9020  -18.6040 C.3       6 GLP5        0.0000 
     46 CA         -6.1365   -5.9880  -13.3890 C.3       3 GLC5        0.0000 
     47 CA         -4.6210   -5.7110  -14.8270 C.3       9 GLL5        0.0000 
     48 CA         -7.6520   -6.2650  -11.9510 C.3       6 GLP5        0.0000 
     49 O          -6.1075   -7.2670  -14.5745 O.2       1 ALC1        0.0000 
     50 O          -4.5240   -7.1570  -14.7130 O.2       7 ALL1        0.0000 
     51 O          -7.6910   -7.3770  -14.4360 O.2       4 ALP1        0.0000 
     52 O          -1.0855   -5.3285  -13.9450 O.2       1 ALC1        0.0000 
     53 O          -2.2270   -6.0540  -14.6370 O.2       7 ALL1        0.0000 
     54 O           0.0560   -4.6030  -13.2530 O.2       4 ALP1        0.0000 
     55 CA         -3.7770   -4.9920  -18.5910 C.3       3 GLC5        0.0000 
     56 CA         -3.2210   -5.3320  -16.6450 C.3       9 GLL5        0.0000 
     57 CA         -4.3330   -4.6520  -20.5370 C.3       6 GLP5        0.0000 
     58 CA         -3.4540   -3.7890  -18.8860 C.3       3 GLC5        0.0000 
     59 CA         -2.5750   -2.9260  -17.2350 C.3       9 GLL5        0.0000 
     60 CA         -3.6170   -2.2615  -19.1080 C.3       3 GLC5        0.0000 
     61 CA         -1.7770   -2.0740  -17.9790 C.3       9 GLL5        0.0000 
     62 CA         -5.4570   -2.4490  -20.2370 C.3       6 GLP5        0.0000 
     63 CA        -10.3605   -4.5940  -14.9335 C.3       3 GLC5        0.0000 
     64 CA        -10.3350   -3.9290  -13.5825 C.3       3 GLC5        0.0000 
     65 CA        -10.0960   -2.6200  -14.5820 C.3       9 GLL5        0.0000 
     66 CA         -9.8420   -5.3090  -12.3370 C.3       6 GLP5        0.0000 
     67 CA        -10.9915   -0.7850  -16.0938 C.3       3 GLC5        0.0000 
     68 CA        -10.4170    0.4370  -17.6860 C.3       6 GLP5        0.0000 
     69 CA        -11.5315   -4.1107  -12.9772 C.3       3 GLC5        0.0000 
     70 CA        -13.0360   -2.3100  -13.1630 C.3       9 GLL5        0.0000 
     71 CA        -16.0300   -5.2133  -12.4932 C.3       3 GLC5        0.0000 
     72 CA        -17.3880   -4.3120  -11.6810 C.3       6 GLP5        0.0000 
     73 CA        -13.5557   -6.9325  -14.3959 C.3       3 GLC5        0.0000 
     74 CA         -2.0910   -3.9110  -14.9387 C.3       3 GLC5        0.0000 
     75 CA         -3.2390   -5.1780  -15.1780 C.3       9 GLL5        0.0000 
     76 CA         -0.9520   -2.5670  -13.9660 C.3       6 GLP5        0.0000 
     77 CA          0.7815   -1.9592  -19.2535 C.3       3 GLC5        0.0000 
     78 CA         -0.6510   -3.9970  -19.0630 C.3       9 GLL5        0.0000 
     79 CA          2.2750   -0.6290  -19.5140 C.3       6 GLP5        0.0000 
     80 CA         -2.6978   -4.3711  -19.5787 C.3       3 GLC5        0.0000 
@<TRIPOS>BOND
@<TRIPOS>SUBSTRUCTURE
     1 ALC1       10 GROUP        1 X    ALC  0     ROOT ALC X 1
     2 SEC2        1 GROUP        1 X    SEC  0     **** SEC X 2
     3 GLC5        4 GROUP        1 X    GLC  0     **** GLC X 6
     4 ALP1       12 GROUP        1 Y    ALP  0     ROOT ALP Y 8
     5 SEP2        3 GROUP        1 Y    SEP  0     **** SEP Y 9
     6 GLP5        6 GROUP        1 Y    GLP  0     **** GLP Y 13
     7 ALL1       11 GROUP        1 Z    ALL  0     ROOT ALL Z 15
     8 SEL2        2 GROUP        1 Z    SEL  0     **** SEL Z 16
     9 GLL5        5 GROUP        1 Z    GLL  0     **** GLL Z 20
@<TRIPOS>SET

