#    Name: 3ikt_NAD_1_ligand
#    Modification time : Tue Mar 25 16:43:24 2014

@<TRIPOS>MOLECULE
3ikt_NAD_1_ligand
   69    73     1     0     0
SMALL
NO_CHARGES


@<TRIPOS>ATOM
      1 PA         -8.4730   -0.5870  -14.1190 P.3       1 NAD500      0.0000 
      2 O1A        -8.7920   -0.7010  -12.7240 O.co2     1 NAD500      0.0000 
      3 O2A        -8.2710    0.6550  -14.9510 O.co2     1 NAD500      0.0000 
      4 O5B        -9.6800   -1.2610  -14.8960 O.3       1 NAD500      0.0000 
      5 C5B       -10.0960   -2.6200  -14.5820 C.3       1 NAD500      0.0000 
      6 C4B       -11.5600   -2.4780  -15.0740 C.3       1 NAD500      0.0000 
      7 O4B       -12.1740   -3.7310  -14.6860 O.3       1 NAD500      0.0000 
      8 C3B       -12.3040   -1.4650  -14.1750 C.3       1 NAD500      0.0000 
      9 O3B       -13.1820   -0.8040  -15.0620 O.3       1 NAD500      0.0000 
     10 C2B       -13.0360   -2.3100  -13.1630 C.3       1 NAD500      0.0000 
     11 O2B       -14.2460   -1.7070  -12.7450 O.3       1 NAD500      0.0000 
     12 C1B       -13.4060   -3.5150  -14.0720 C.3       1 NAD500      0.0000 
     13 N9A       -13.7840   -4.6830  -13.2890 N.pl3     1 NAD500      0.0000 
     14 C8A       -13.4570   -5.1060  -12.0050 C.2       1 NAD500      0.0000 
     15 N7A       -13.9920   -6.2640  -11.6740 N.2       1 NAD500      0.0000 
     16 C5A       -14.7380   -6.6050  -12.8100 C.ar      1 NAD500      0.0000 
     17 C6A       -15.5280   -7.7310  -13.0510 C.ar      1 NAD500      0.0000 
     18 N6A       -15.7540   -8.7760  -12.1980 N.pl3     1 NAD500      0.0000 
     19 N1A       -16.1670   -7.8050  -14.3020 N.ar      1 NAD500      0.0000 
     20 C2A       -16.0040   -6.7850  -15.2700 C.ar      1 NAD500      0.0000 
     21 N3A       -15.2160   -5.6610  -15.0440 N.ar      1 NAD500      0.0000 
     22 C4A       -14.6060   -5.6240  -13.8010 C.ar      1 NAD500      0.0000 
     23 O3         -7.1980   -1.5060  -14.4850 O.3       1 NAD500      0.0000 
     24 PN         -6.0750   -1.4730  -15.6300 P.3       1 NAD500      0.0000 
     25 O1N        -4.9180   -0.5280  -15.3000 O.co2     1 NAD500      0.0000 
     26 O2N        -6.7170   -1.3270  -16.9510 O.co2     1 NAD500      0.0000 
     27 O5D        -5.5270   -2.9650  -15.4420 O.3       1 NAD500      0.0000 
     28 C5D        -6.4070   -4.0970  -15.7910 C.3       1 NAD500      0.0000 
     29 C4D        -5.5120   -5.3020  -16.0300 C.3       1 NAD500      0.0000 
     30 O4D        -4.5900   -4.9420  -17.0540 O.3       1 NAD500      0.0000 
     31 C3D        -4.6210   -5.7110  -14.8270 C.3       1 NAD500      0.0000 
     32 O3D        -4.5240   -7.1570  -14.7130 O.3       1 NAD500      0.0000 
     33 C2D        -3.2390   -5.1780  -15.1780 C.3       1 NAD500      0.0000 
     34 O2D        -2.2270   -6.0540  -14.6370 O.3       1 NAD500      0.0000 
     35 C1D        -3.2210   -5.3320  -16.6450 C.3       1 NAD500      0.0000 
     36 N1N        -2.3970   -4.3280  -17.3820 N.pl3     1 NAD500      0.0000 
     37 C2N        -2.5750   -2.9260  -17.2350 C.ar      1 NAD500      0.0000 
     38 C3N        -1.7770   -2.0740  -17.9790 C.ar      1 NAD500      0.0000 
     39 C7N        -1.9500   -0.5760  -17.8140 C.2       1 NAD500      0.0000 
     40 O7N        -1.1620    0.1210  -18.4490 O.2       1 NAD500      0.0000 
     41 N7N        -2.8310   -0.0660  -16.9950 N.am      1 NAD500      0.0000 
     42 C4N        -0.7730   -2.5820  -18.9230 C.ar      1 NAD500      0.0000 
     43 C5N        -0.6510   -3.9970  -19.0630 C.ar      1 NAD500      0.0000 
     44 C6N        -1.4130   -4.8910  -18.2480 C.ar      1 NAD500      0.0000 
     45 H         -10.1104   -2.8027  -13.5574 H         1 NAD500      0.0000 
     46 H          -9.6173   -3.3278  -15.1764 H         1 NAD500      0.0000 
     47 H         -11.6291   -2.2619  -16.0384 H         1 NAD500      0.0000 
     48 H         -11.5977   -0.8554  -13.7246 H         1 NAD500      0.0000 
     49 H         -12.4004   -2.6419  -12.4344 H         1 NAD500      0.0000 
     50 H         -14.1385   -3.1958  -14.7412 H         1 NAD500      0.0000 
     51 H         -12.8670   -4.5546  -11.4163 H         1 NAD500      0.0000 
     52 H         -16.4963   -6.8894  -16.1816 H         1 NAD500      0.0000 
     53 H          -6.9613   -3.8868  -16.6941 H         1 NAD500      0.0000 
     54 H          -7.0853   -4.3189  -14.9800 H         1 NAD500      0.0000 
     55 H          -6.0916   -6.1427  -16.3270 H         1 NAD500      0.0000 
     56 H          -4.9661   -5.2413  -13.9643 H         1 NAD500      0.0000 
     57 H          -3.1545   -4.1949  -14.9035 H         1 NAD500      0.0000 
     58 H          -3.0318   -6.2974  -16.9573 H         1 NAD500      0.0000 
     59 H          -3.2775   -2.5731  -16.5932 H         1 NAD500      0.0000 
     60 H          -2.8746    0.9325  -16.9617 H         1 NAD500      0.0000 
     61 H          -3.3808   -0.7210  -16.4766 H         1 NAD500      0.0000 
     62 H          -0.2085   -1.9476  -19.4366 H         1 NAD500      0.0000 
     63 H          -0.0056   -4.3805  -19.7602 H         1 NAD500      0.0000 
     64 H          -1.2600   -5.8788  -18.2849 H         1 NAD500      0.0000 
     65 H         -13.7437   -1.5299  -15.4589 H         1 NAD500      0.0000 
     66 H         -14.8770   -1.8359  -13.5100 H         1 NAD500      0.0000 
     67 H         -14.8788   -9.2562  -12.1396 H         1 NAD500      0.0000 
     68 H          -5.4645   -7.4696  -14.5797 H         1 NAD500      0.0000 
     69 H          -1.5320   -5.4432  -14.2578 H         1 NAD500      0.0000 
@<TRIPOS>BOND
     1    2    1 ar   
     2    3    1 ar   
     3    4    1 1    
     4   23    1 1    
     5    5    4 1    
     6    6    5 1    
     7   45    5 1    
     8   46    5 1    
     9    7    6 1    
    10    8    6 1    
    11   47    6 1    
    12   12    7 1    
    13    9    8 1    
    14   10    8 1    
    15   48    8 1    
    16   65    9 1    
    17   11   10 1    
    18   12   10 1    
    19   49   10 1    
    20   66   11 1    
    21   13   12 1    
    22   50   12 1    
    23   14   13 1    
    24   22   13 1    
    25   15   14 2    
    26   51   14 1    
    27   16   15 1    
    28   17   16 ar   
    29   22   16 ar   
    30   18   17 1    
    31   19   17 ar   
    32   67   18 1    
    33   20   19 ar   
    34   21   20 ar   
    35   52   20 1    
    36   22   21 ar   
    37   24   23 1    
    38   25   24 ar   
    39   26   24 ar   
    40   27   24 1    
    41   28   27 1    
    42   29   28 1    
    43   53   28 1    
    44   54   28 1    
    45   30   29 1    
    46   31   29 1    
    47   55   29 1    
    48   35   30 1    
    49   32   31 1    
    50   33   31 1    
    51   56   31 1    
    52   68   32 1    
    53   34   33 1    
    54   35   33 1    
    55   57   33 1    
    56   69   34 1    
    57   36   35 1    
    58   58   35 1    
    59   37   36 ar   
    60   44   36 ar   
    61   38   37 ar   
    62   59   37 1    
    63   39   38 1    
    64   42   38 ar   
    65   40   39 2    
    66   41   39 am   
    67   60   41 1    
    68   61   41 1    
    69   43   42 ar   
    70   62   42 1    
    71   44   43 ar   
    72   63   43 1    
    73   64   44 1    
@<TRIPOS>SUBSTRUCTURE
     1 NAD500      1 GROUP   
@<TRIPOS>SET

