#    Name: 4B79_1_CAVITY_N1_ALL.mol2
#    Modification time : Tue Mar 11 18:56:27 2014

@<TRIPOS>MOLECULE
4B79_1_CAVITY_N1_ALL.mol2
  168     0     7     0     0
SMALL
NO_CHARGES


@<TRIPOS>ATOM
      1 N           7.8550  -49.4769   12.9594 N.2       2 ALA2        0.0000 
      2 CA          5.1303  -52.1571   17.8218 C.3       6 GLY6        0.0000 
      3 N           5.6543  -51.7961   16.4634 N.2       2 ALA2        0.0000 
      4 N           6.1783  -51.4352   15.1051 N.2       2 ALA2        0.0000 
      5 N           6.7023  -51.0743   13.7467 N.2       2 ALA2        0.0000 
      6 OG          7.2263  -50.7134   12.3883 O.2       1 SER1        0.0000 
      7 CA          4.5016  -53.3935   17.2508 C.3       6 GLY6        0.0000 
      8 CA          5.0256  -53.0325   15.8924 C.3       6 GLY6        0.0000 
      9 OG          5.5497  -52.6716   14.5340 O.2       1 SER1        0.0000 
     10 OG          6.0737  -52.3107   13.1757 O.2       1 SER1        0.0000 
     11 OG          6.5977  -51.9498   11.8173 O.2       1 SER1        0.0000 
     12 CA          3.8730  -54.6299   16.6797 C.3       6 GLY6        0.0000 
     13 OG          4.3970  -54.2690   15.3214 O.2       1 SER1        0.0000 
     14 OG          4.9210  -53.9080   13.9630 O.2       1 SER1        0.0000 
     15 O           2.1963  -56.5881   18.8254 O.2       2 ALA2        0.0000 
     16 CA          2.7203  -56.2272   17.4670 C.3       6 GLY6        0.0000 
     17 CA          3.2443  -55.8663   16.1087 C.3       6 GLY6        0.0000 
     18 OG          3.7683  -55.5054   14.7503 O.2       1 SER1        0.0000 
     19 N           1.0436  -58.1855   19.6127 N.2       2 ALA2        0.0000 
     20 O           1.5677  -57.8246   18.2544 O.2       2 ALA2        0.0000 
     21 N           2.0917  -57.4636   16.8960 N.2       2 ALA2        0.0000 
     22 N           2.6157  -57.1027   15.5377 N.2       2 ALA2        0.0000 
     23 OG          3.1397  -56.7418   14.1793 O.2       1 SER1        0.0000 
     24 OG          3.6637  -56.3808   12.8209 O.2       1 SER1        0.0000 
     25 O           0.9390  -59.0610   17.6833 O.2       2 ALA2        0.0000 
     26 N           1.4630  -58.7000   16.3250 N.2       2 ALA2        0.0000 
     27 O           1.9870  -58.3391   14.9666 O.2       2 ALA2        0.0000 
     28 CA          2.5110  -57.9782   13.6083 C.3       6 GLY6        0.0000 
     29 CA          0.3103  -60.2974   17.1123 C.3       6 GLY6        0.0000 
     30 N           5.4453  -50.3055   13.4660 N.2       2 ALA2        0.0000 
     31 CA          3.7686  -52.2638   15.6117 C.3       6 GLY6        0.0000 
     32 CA          4.2926  -51.9028   14.2534 C.3       6 GLY6        0.0000 
     33 N           4.8166  -51.5419   12.8950 N.2       2 ALA2        0.0000 
     34 CA          3.1399  -53.5002   15.0407 C.3       6 GLY6        0.0000 
     35 OG          3.6639  -53.1392   13.6823 O.2       1 SER1        0.0000 
     36 N           1.4633  -55.4584   17.1864 N.2       2 ALA2        0.0000 
     37 CA          1.9873  -55.0975   15.8280 C.3       6 GLY6        0.0000 
     38 CA          2.5113  -54.7366   14.4697 C.3       6 GLY6        0.0000 
     39 OG          3.0353  -54.3757   13.1113 O.2       1 SER1        0.0000 
     40 N           1.3586  -56.3339   15.2570 N.2       2 ALA2        0.0000 
     41 OD1         1.8826  -55.9730   13.8986 O.3       3 ASP3        0.0000 
     42 N           1.2540  -57.2094   13.3276 N.2       2 ALA2        0.0000 
     43 CA         12.6729  -53.5281   20.3672 C.3       6 GLY6        0.0000 
     44 OD1        13.1969  -53.1672   19.0088 O.3       3 ASP3        0.0000 
     45 OD1        13.7209  -52.8063   17.6504 O.3       3 ASP3        0.0000 
     46 DU         14.2449  -52.4454   16.2921 H         7 CUB7        0.0000 
     47 CZ         14.7690  -52.0844   14.9337 C.ar      5 PHE5        0.0000 
     48 N          12.0443  -54.7646   19.7961 N.2       2 ALA2        0.0000 
     49 DU         12.5683  -54.4036   18.4378 H         7 CUB7        0.0000 
     50 DU         13.0923  -54.0427   17.0794 H         7 CUB7        0.0000 
     51 DU         13.6163  -53.6818   15.7210 H         7 CUB7        0.0000 
     52 CZ         14.1403  -53.3209   14.3627 C.ar      5 PHE5        0.0000 
     53 DU         11.9396  -55.6400   17.8667 H         7 CUB7        0.0000 
     54 NZ         12.2543  -57.0301   12.6496 N.2       4 LYS4        0.0000 
     55 NZ         11.1017  -58.6274   13.4369 N.2       4 LYS4        0.0000 
     56 CZ         11.9399  -52.3984   18.7281 C.ar      5 PHE5        0.0000 
     57 CZ         12.4639  -52.0375   17.3698 C.ar      5 PHE5        0.0000 
     58 CZ         12.9879  -51.6766   16.0114 C.ar      5 PHE5        0.0000 
     59 N          10.7872  -53.9958   19.5155 N.2       2 ALA2        0.0000 
     60 DU         11.3112  -53.6348   18.1571 H         7 CUB7        0.0000 
     61 CZ         11.8352  -53.2739   16.7987 C.ar      5 PHE5        0.0000 
     62 CZ         12.3592  -52.9130   15.4404 C.ar      5 PHE5        0.0000 
     63 N          10.1585  -55.2322   18.9444 N.2       2 ALA2        0.0000 
     64 DU         10.6826  -54.8713   17.5861 H         7 CUB7        0.0000 
     65 DU         11.2066  -54.5103   16.2277 H         7 CUB7        0.0000 
     66 CZ         11.7306  -54.1494   14.8693 C.ar      5 PHE5        0.0000 
     67 CZ         12.2546  -53.7885   13.5110 C.ar      5 PHE5        0.0000 
     68 O          12.7786  -53.4276   12.1526 O.2       2 ALA2        0.0000 
     69 DU         10.0539  -56.1077   17.0150 H         7 CUB7        0.0000 
     70 DU         11.1019  -55.3858   14.2983 H         7 CUB7        0.0000 
     71 OD1        11.6259  -55.0249   12.9399 O.3       3 ASP3        0.0000 
     72 DU         10.4733  -56.6222   13.7273 H         7 CUB7        0.0000 
     73 O          10.9973  -56.2613   12.3689 O.2       2 ALA2        0.0000 
     74 DU          9.3206  -58.2196   14.5146 H         7 CUB7        0.0000 
     75 CA          9.8446  -57.8586   13.1562 C.3       6 GLY6        0.0000 
     76 O           8.6919  -59.4560   13.9436 O.2       2 ALA2        0.0000 
     77 N          10.6828  -51.6297   18.4475 N.2       2 ALA2        0.0000 
     78 CZ         11.2068  -51.2687   17.0891 C.ar      5 PHE5        0.0000 
     79 N          10.0541  -52.8661   17.8764 N.2       2 ALA2        0.0000 
     80 CZ         10.5782  -52.5051   16.5181 C.ar      5 PHE5        0.0000 
     81 OG          8.9015  -54.4634   18.6638 O.2       1 SER1        0.0000 
     82 N           9.4255  -54.1025   17.3054 N.2       2 ALA2        0.0000 
     83 DU          9.9495  -53.7416   15.9470 H         7 CUB7        0.0000 
     84 CZ         10.4735  -53.3806   14.5887 C.ar      5 PHE5        0.0000 
     85 OG          8.2728  -55.6998   18.0927 O.2       1 SER1        0.0000 
     86 DU          8.7968  -55.3389   16.7344 H         7 CUB7        0.0000 
     87 DU          9.8449  -54.6170   14.0176 H         7 CUB7        0.0000 
     88 CZ         10.3689  -54.2561   12.6593 C.ar      5 PHE5        0.0000 
     89 O          10.8929  -53.8952   11.3009 O.2       2 ALA2        0.0000 
     90 DU          8.1682  -56.5753   16.1633 H         7 CUB7        0.0000 
     91 DU          8.6922  -56.2144   14.8050 H         7 CUB7        0.0000 
     92 DU          9.2162  -55.8534   13.4466 H         7 CUB7        0.0000 
     93 CA          9.7402  -55.4925   12.0883 C.3       6 GLY6        0.0000 
     94 OG          5.9675  -58.8945   19.6674 O.2       1 SER1        0.0000 
     95 DU          7.0155  -58.1726   16.9507 H         7 CUB7        0.0000 
     96 DU          8.0635  -57.4508   14.2339 H         7 CUB7        0.0000 
     97 CA          8.5875  -57.0899   12.8756 C.3       6 GLY6        0.0000 
     98 CA          9.1115  -56.7289   11.5172 C.3       6 GLY6        0.0000 
     99 N           6.9109  -59.0481   15.0213 N.2       2 ALA2        0.0000 
    100 O           7.4349  -58.6872   13.6629 O.2       2 ALA2        0.0000 
    101 CA          6.2822  -60.2845   14.4502 C.3       6 GLY6        0.0000 
    102 N           8.7971  -52.0973   17.5958 N.2       2 ALA2        0.0000 
    103 CZ          9.3211  -51.7364   16.2374 C.ar      5 PHE5        0.0000 
    104 N           7.6444  -53.6946   18.3831 N.2       2 ALA2        0.0000 
    105 N           8.1684  -53.3337   17.0248 N.2       2 ALA2        0.0000 
    106 DU          8.6924  -52.9728   15.6664 H         7 CUB7        0.0000 
    107 CZ          9.2164  -52.6118   14.3080 C.ar      5 PHE5        0.0000 
    108 CZ          9.7405  -52.2509   12.9497 C.ar      5 PHE5        0.0000 
    109 OG          7.0158  -54.9310   17.8121 O.2       1 SER1        0.0000 
    110 DU          7.5398  -54.5701   16.4537 H         7 CUB7        0.0000 
    111 DU          8.0638  -54.2092   15.0954 H         7 CUB7        0.0000 
    112 OG          8.5878  -53.8483   13.7370 O.2       1 SER1        0.0000 
    113 CZ          9.1118  -53.4873   12.3786 C.ar      5 PHE5        0.0000 
    114 CZ          9.6358  -53.1264   11.0203 C.ar      5 PHE5        0.0000 
    115 OG          6.3871  -56.1674   17.2410 O.2       1 SER1        0.0000 
    116 DU          6.9111  -55.8065   15.8827 H         7 CUB7        0.0000 
    117 OG          7.4351  -55.4456   14.5243 O.2       1 SER1        0.0000 
    118 OG          7.9591  -55.0847   13.1660 O.2       1 SER1        0.0000 
    119 CA          4.1864  -58.4866   20.7451 C.3       6 GLY6        0.0000 
    120 OG          4.7104  -58.1257   19.3867 O.2       1 SER1        0.0000 
    121 OG          5.2344  -57.7648   18.0284 O.2       1 SER1        0.0000 
    122 DU          5.7585  -57.4039   16.6700 H         7 CUB7        0.0000 
    123 DU          6.2825  -57.0429   15.3116 H         7 CUB7        0.0000 
    124 OG          6.8065  -56.6820   13.9533 O.2       1 SER1        0.0000 
    125 CZ          7.3305  -56.3211   12.5949 C.ar      5 PHE5        0.0000 
    126 OG          4.0818  -59.3621   18.8157 O.2       1 SER1        0.0000 
    127 N           4.6058  -59.0012   17.4573 N.2       2 ALA2        0.0000 
    128 N           5.1298  -58.6403   16.0990 N.2       2 ALA2        0.0000 
    129 N           5.6538  -58.2793   14.7406 N.2       2 ALA2        0.0000 
    130 CZ          6.1778  -57.9184   13.3822 C.ar      5 PHE5        0.0000 
    131 OG          2.9291  -60.9595   19.6030 O.2       1 SER1        0.0000 
    132 OG          3.4531  -60.5985   18.2447 O.2       1 SER1        0.0000 
    133 N           3.9771  -60.2376   16.8863 N.2       2 ALA2        0.0000 
    134 CA          8.0640  -50.9676   15.9568 C.3       6 GLY6        0.0000 
    135 CZ          8.5880  -50.6067   14.5984 C.ar      5 PHE5        0.0000 
    136 CZ          9.1120  -50.2457   13.2400 C.ar      5 PHE5        0.0000 
    137 N           6.3874  -52.9258   18.1025 N.2       2 ALA2        0.0000 
    138 N           6.9114  -52.5649   16.7441 N.2       2 ALA2        0.0000 
    139 N           7.4354  -52.2040   15.3857 N.2       2 ALA2        0.0000 
    140 CZ          7.9594  -51.8431   14.0274 C.ar      5 PHE5        0.0000 
    141 CZ          8.4834  -51.4821   12.6690 C.ar      5 PHE5        0.0000 
    142 CZ          9.0074  -51.1212   11.3106 C.ar      5 PHE5        0.0000 
    143 OG          5.7587  -54.1623   17.5314 O.2       1 SER1        0.0000 
    144 DU          6.2827  -53.8013   16.1731 H         7 CUB7        0.0000 
    145 OG          6.8067  -53.4404   14.8147 O.2       1 SER1        0.0000 
    146 OG          7.3307  -53.0795   13.4563 O.2       1 SER1        0.0000 
    147 OG          7.8547  -52.7185   12.0980 O.2       1 SER1        0.0000 
    148 CA          4.0820  -56.1205   19.6771 C.3       6 GLY6        0.0000 
    149 OG          4.6060  -55.7596   18.3187 O.2       1 SER1        0.0000 
    150 OG          5.1300  -55.3987   16.9604 O.2       1 SER1        0.0000 
    151 DU          5.6541  -55.0377   15.6020 H         7 CUB7        0.0000 
    152 OG          6.1781  -54.6768   14.2437 O.2       1 SER1        0.0000 
    153 CA          2.9294  -57.7179   20.4644 C.3       6 GLY6        0.0000 
    154 O           3.4534  -57.3569   19.1061 O.2       2 ALA2        0.0000 
    155 DU          3.9774  -56.9960   17.7477 H         7 CUB7        0.0000 
    156 DU          4.5014  -56.6351   16.3893 H         7 CUB7        0.0000 
    157 OG          5.0254  -56.2741   15.0310 O.2       1 SER1        0.0000 
    158 N           2.3007  -58.9543   19.8934 N.2       2 ALA2        0.0000 
    159 DU          2.8247  -58.5933   18.5350 H         7 CUB7        0.0000 
    160 N           3.3487  -58.2324   17.1767 N.2       2 ALA2        0.0000 
    161 N           3.8727  -57.8715   15.8183 N.2       2 ALA2        0.0000 
    162 N           4.3967  -57.5106   14.4599 N.2       2 ALA2        0.0000 
    163 CZ          4.9207  -57.1496   13.1016 C.ar      5 PHE5        0.0000 
    164 N           1.6721  -60.1907   19.3224 N.2       2 ALA2        0.0000 
    165 O           2.1961  -59.8297   17.9640 O.2       2 ALA2        0.0000 
    166 N           2.7201  -59.4688   16.6056 N.2       2 ALA2        0.0000 
    167 CA          1.0434  -61.4271   18.7513 C.3       6 GLY6        0.0000 
    168 N           1.5674  -61.0662   17.3930 N.2       2 ALA2        0.0000 
@<TRIPOS>BOND
@<TRIPOS>SUBSTRUCTURE
     1 SER1        6 GROUP   
     2 ALA2        1 GROUP   
     3 ASP3       41 GROUP   
     4 LYS4       54 GROUP   
     5 PHE5       47 GROUP   
     6 GLY6        2 GROUP   
     7 CUB7       46 GROUP   
@<TRIPOS>SET

