#    Name: 4b79_NAD_1_INTS_M
#    Modification time : Tue Mar 25 06:52:45 2014

@<TRIPOS>MOLECULE
4b79_NAD_1_INTS_M
  101     0     9     0     0
SMALL
NO_CHARGES


@<TRIPOS>ATOM
      1 N           4.3465  -60.1505   21.4585 N.am      2 SEC2        0.0000 
      2 N           5.0530  -59.2390   20.7040 N.am      8 SEL2        0.0000 
      3 N           3.6400  -61.0620   22.2130 N.am      5 SEP2        0.0000 
      4 N          -0.4250  -62.5820   21.6085 N.am      2 SEC2        0.0000 
      5 N           0.6800  -62.7740   20.4140 N.am      8 SEL2        0.0000 
      6 N          -1.5300  -62.3900   22.8030 N.am      5 SEP2        0.0000 
      7 O           0.4835  -63.6945   21.3490 O.2       1 ALC1        0.0000 
      8 O           0.6800  -62.7740   20.4140 O.2       7 ALL1        0.0000 
      9 O           0.2870  -64.6150   22.2840 O.2       4 ALP1        0.0000 
     10 N           0.7035  -66.3530   19.8715 N.am      2 SEC2        0.0000 
     11 N           1.6350  -65.2220   19.5810 N.am      8 SEL2        0.0000 
     12 N          -0.2280  -67.4840   20.1620 N.am      5 SEP2        0.0000 
     13 O           0.9610  -64.9185   20.9325 O.2       1 ALC1        0.0000 
     14 O           1.6350  -65.2220   19.5810 O.2       7 ALL1        0.0000 
     15 CA         -0.4325  -63.0910   16.1770 C.3       3 GLC5        0.0000 
     16 CA          0.9410  -63.7970   17.7080 C.3       9 GLL5        0.0000 
     17 CA         -1.8060  -62.3850   14.6460 C.3       6 GLP5        0.0000 
     18 CA          1.7425  -67.6495   16.2100 C.3       3 GLC5        0.0000 
     19 CA          0.7860  -66.4500   15.2220 C.3       9 GLL5        0.0000 
     20 CA          2.6990  -68.8490   17.1980 C.3       6 GLP5        0.0000 
     21 CA          0.6780  -68.1480   16.3530 C.3       3 GLC5        0.0000 
     22 CA         -0.0860  -67.4900   14.6420 C.3       9 GLL5        0.0000 
     23 CA          1.4420  -68.8060   18.0640 C.3       6 GLP5        0.0000 
     24 CA         -1.2810  -69.1415   15.0675 C.3       3 GLC5        0.0000 
     25 CA         -2.4760  -70.7930   15.4930 C.3       6 GLP5        0.0000 
     26 CA         -1.9775  -66.8820   13.8565 C.3       3 GLC5        0.0000 
     27 CA         -3.8690  -66.2740   13.0710 C.3       6 GLP5        0.0000 
     28 CA         -0.4345  -66.4160   13.1780 C.3       3 GLC5        0.0000 
     29 CA         -0.7830  -65.3420   11.7140 C.3       6 GLP5        0.0000 
     30 O          -0.3735  -69.4790   13.3730 O.2       1 ALC1        0.0000 
     31 O           0.3890  -68.2970   13.6690 O.2       7 ALL1        0.0000 
     32 O          -1.1360  -70.6610   13.0770 O.2       4 ALP1        0.0000 
     33 N          -2.5130  -68.3750   14.6270 N.am      2 SEC2        0.0000 
     34 N          -1.3590  -67.5980   15.1100 N.am      8 SEL2        0.0000 
     35 N          -3.6670  -69.1520   14.1440 N.am      5 SEP2        0.0000 
     36 CA         -2.0660  -66.5270   18.0785 C.3       3 GLC5        0.0000 
     37 CA         -1.8340  -66.7930   16.0850 C.3       9 GLL5        0.0000 
     38 CA         -2.2980  -66.2610   20.0720 C.3       6 GLP5        0.0000 
     39 CA         -0.1960  -67.7995   17.0745 C.3       3 GLC5        0.0000 
     40 CA         -2.1550  -68.7930   15.7890 C.3       3 GLC5        0.0000 
     41 CA         -2.8515  -66.5335   14.5780 C.3       3 GLC5        0.0000 
     42 CA          0.8155  -67.2105   17.1660 C.3       3 GLC5        0.0000 
     43 CA          0.1890  -65.6150   16.2680 C.3       9 GLL5        0.0000 
     44 CA         -0.8085  -64.0000   15.4570 C.3       3 GLC5        0.0000 
     45 N           2.3480  -56.1955   20.5615 N.am      2 SEC2        0.0000 
     46 N           3.1110  -56.8530   19.5510 N.am      8 SEL2        0.0000 
     47 N           1.5850  -55.5380   21.5720 N.am      5 SEP2        0.0000 
     48 N           6.0985  -55.6560   19.2970 N.am      2 SEC2        0.0000 
     49 N           5.1610  -56.0170   18.2230 N.am      8 SEL2        0.0000 
     50 N           7.0360  -55.2950   20.3710 N.am      5 SEP2        0.0000 
     51 CA          1.2265  -55.4820   18.3910 C.3       3 GLC5        0.0000 
     52 CA          1.8140  -56.9130   16.9660 C.3       9 GLL5        0.0000 
     53 CA          0.6390  -54.0510   19.8160 C.3       6 GLP5        0.0000 
     54 CA          0.4465  -54.7380   14.8580 C.3       3 GLC5        0.0000 
     55 CA          1.4530  -56.2970   15.6330 C.3       9 GLL5        0.0000 
     56 CA         -0.5600  -53.1790   14.0830 C.3       6 GLP5        0.0000 
     57 CA          1.9245  -58.6605   13.5390 C.3       3 GLC5        0.0000 
     58 CA          2.0220  -57.0240   14.4160 C.3       9 GLL5        0.0000 
     59 CA          1.8270  -60.2970   12.6620 C.3       6 GLP5        0.0000 
     60 N           1.0080  -56.5360   12.0010 N.am      2 SEC2        0.0000 
     61 N           1.0170  -57.0250   13.3730 N.am      8 SEL2        0.0000 
     62 N           0.9990  -56.0470   10.6290 N.am      5 SEP2        0.0000 
     63 O           0.1020  -57.6490   14.1785 O.2       1 ALC1        0.0000 
     64 O           1.0170  -57.0250   13.3730 O.2       7 ALL1        0.0000 
     65 O          -0.8130  -58.2730   14.9840 O.2       4 ALP1        0.0000 
     66 CA          4.3845  -56.4410   12.1645 C.3       3 GLC5        0.0000 
     67 CA          3.1880  -56.1350   14.0090 C.3       9 GLL5        0.0000 
     68 CA          5.5810  -56.7470   10.3200 C.3       6 GLP5        0.0000 
     69 CA          2.6840  -55.9555   11.8915 C.3       3 GLC5        0.0000 
     70 CA          2.1800  -55.7760    9.7740 C.3       6 GLP5        0.0000 
     71 N           4.4125  -55.4600   12.0935 N.am      2 SEC2        0.0000 
     72 N           3.4780  -56.2330   12.6160 N.am      8 SEL2        0.0000 
     73 N           5.3470  -54.6870   11.5710 N.am      5 SEP2        0.0000 
     74 N           2.2385  -56.1400   11.6225 N.am      2 SEC2        0.0000 
     75 CA          2.4475  -53.7635   16.3350 C.3       3 GLC5        0.0000 
     76 CA          2.6310  -54.7560   14.3400 C.3       9 GLL5        0.0000 
     77 CA          2.2640  -52.7710   18.3300 C.3       6 GLP5        0.0000 
     78 CA          1.0355  -53.9675   14.2115 C.3       3 GLC5        0.0000 
     79 N           7.3410  -50.6140   17.7060 N.am      2 SEC2        0.0000 
     80 N           7.2120  -51.7690   16.8790 N.am      8 SEL2        0.0000 
     81 N           7.4700  -49.4590   18.5330 N.am      5 SEP2        0.0000 
     82 O           7.3105  -52.7400   18.8605 O.2       1 ALC1        0.0000 
     83 O           6.5410  -53.7240   17.6480 O.2       7 ALL1        0.0000 
     84 O           8.0800  -51.7560   20.0730 O.2       4 ALP1        0.0000 
     85 CA          3.8750  -50.4250   15.2250 C.3       3 GLC5        0.0000 
     86 CA          5.4400  -51.6460   14.7940 C.3       9 GLL5        0.0000 
     87 CA          2.3100  -49.2040   15.6560 C.3       6 GLP5        0.0000 
     88 CA          1.5175  -52.9175   13.8690 C.3       3 GLC5        0.0000 
     89 CA          3.5950  -52.6560   13.6550 C.3       9 GLL5        0.0000 
     90 CA          1.0328  -65.3533   13.9610 C.3       3 GLC5        0.0000 
     91 CA          1.5780  -64.6740   12.1770 C.3       6 GLP5        0.0000 
     92 CA          3.6200  -53.0035   16.9632 C.3       3 GLC5        0.0000 
     93 CA          4.5070  -53.7500   15.5120 C.3       9 GLL5        0.0000 
     94 CA          3.6428  -51.3380   11.8397 C.3       3 GLC5        0.0000 
     95 CA          3.2370  -50.5460    9.9660 C.3       6 GLP5        0.0000 
     96 CA          2.7157  -51.1600   14.3682 C.3       3 GLC5        0.0000 
     97 CA          4.5020  -51.6040   13.7720 C.3       9 GLL5        0.0000 
     98 CA          1.3830  -50.1900   15.0230 C.3       6 GLP5        0.0000 
     99 CA         -0.1695  -62.5058   18.6086 C.3       3 GLC5        0.0000 
    100 CA          1.6970  -61.7700   18.4750 C.3       9 GLL5        0.0000 
    101 CA         -1.9530  -61.9010   18.5750 C.3       6 GLP5        0.0000 
@<TRIPOS>BOND
@<TRIPOS>SUBSTRUCTURE
     1 ALC1        7 GROUP        1 X    ALC  0     ROOT ALC X 1
     2 SEC2        1 GROUP        1 X    SEC  0     **** SEC X 2
     3 GLC5       15 GROUP        1 X    GLC  0     **** GLC X 6
     4 ALP1        9 GROUP        1 Y    ALP  0     ROOT ALP Y 8
     5 SEP2        3 GROUP        1 Y    SEP  0     **** SEP Y 9
     6 GLP5       17 GROUP        1 Y    GLP  0     **** GLP Y 13
     7 ALL1        8 GROUP        1 Z    ALL  0     ROOT ALL Z 15
     8 SEL2        2 GROUP        1 Z    SEL  0     **** SEL Z 16
     9 GLL5       16 GROUP        1 Z    GLL  0     **** GLL Z 20
@<TRIPOS>SET

