#    Name: 4b79_NAD_1_ligand
#    Modification time : Tue Mar 25 06:52:45 2014

@<TRIPOS>MOLECULE
4b79_NAD_1_ligand
   70    74     1     0     0
SMALL
NO_CHARGES


@<TRIPOS>ATOM
      1 PA          4.8550  -59.6510   19.2680 P.3       1 NAD1242     0.0000 
      2 O1A         5.7950  -60.6430   18.6430 O.co2     1 NAD1242     0.0000 
      3 O2A         5.0530  -59.2390   20.7040 O.co2     1 NAD1242     0.0000 
      4 O5B         3.3650  -60.2090   19.0890 O.3       1 NAD1242     0.0000 
      5 C5B         3.0640  -61.2100   18.1160 C.3       1 NAD1242     0.0000 
      6 C4B         1.6970  -61.7700   18.4750 C.3       1 NAD1242     0.0000 
      7 O4B         1.0970  -62.4280   17.3500 O.3       1 NAD1242     0.0000 
      8 C3B         1.8520  -62.7970   19.5850 C.3       1 NAD1242     0.0000 
      9 O3B         0.6800  -62.7740   20.4140 O.3       1 NAD1242     0.0000 
     10 C2B         1.9660  -64.0780   18.8010 C.3       1 NAD1242     0.0000 
     11 O2B         1.6350  -65.2220   19.5810 O.3       1 NAD1242     0.0000 
     12 C1B         0.9410  -63.7970   17.7080 C.3       1 NAD1242     0.0000 
     13 N9A         1.1440  -64.7670   16.6260 N.pl3     1 NAD1242     0.0000 
     14 C8A         2.2740  -65.0030   15.9320 C.2       1 NAD1242     0.0000 
     15 N7A         2.0630  -66.0250   15.0560 N.2       1 NAD1242     0.0000 
     16 C5A         0.7860  -66.4500   15.2220 C.ar      1 NAD1242     0.0000 
     17 C6A        -0.0860  -67.4900   14.6420 C.ar      1 NAD1242     0.0000 
     18 N6A         0.3890  -68.2970   13.6690 N.pl3     1 NAD1242     0.0000 
     19 N1A        -1.3590  -67.5980   15.1100 N.ar      1 NAD1242     0.0000 
     20 C2A        -1.8340  -66.7930   16.0850 C.ar      1 NAD1242     0.0000 
     21 N3A        -1.0990  -65.8210   16.6580 N.ar      1 NAD1242     0.0000 
     22 C4A         0.1890  -65.6150   16.2680 C.ar      1 NAD1242     0.0000 
     23 O3          4.8380  -58.3950   18.2940 O.3       1 NAD1242     0.0000 
     24 PN          4.0540  -57.0120   18.3990 P.3       1 NAD1242     0.0000 
     25 O1N         3.1110  -56.8530   19.5510 O.co2     1 NAD1242     0.0000 
     26 O2N         5.1610  -56.0170   18.2230 O.co2     1 NAD1242     0.0000 
     27 O5D         3.2230  -57.0640   17.0430 O.3       1 NAD1242     0.0000 
     28 C5D         1.8140  -56.9130   16.9660 C.3       1 NAD1242     0.0000 
     29 C4D         1.4530  -56.2970   15.6330 C.3       1 NAD1242     0.0000 
     30 O4D         1.8890  -54.9310   15.5560 O.3       1 NAD1242     0.0000 
     31 C3D         2.0220  -57.0240   14.4160 C.3       1 NAD1242     0.0000 
     32 O3D         1.0170  -57.0250   13.3730 O.3       1 NAD1242     0.0000 
     33 C2D         3.1880  -56.1350   14.0090 C.3       1 NAD1242     0.0000 
     34 O2D         3.4780  -56.2330   12.6160 O.3       1 NAD1242     0.0000 
     35 C1D         2.6310  -54.7560   14.3400 C.3       1 NAD1242     0.0000 
     36 N1N         3.6290  -53.6990   14.5040 N.pl3     1 NAD1242     0.0000 
     37 C2N         4.5070  -53.7500   15.5120 C.ar      1 NAD1242     0.0000 
     38 C3N         5.4450  -52.7220   15.6810 C.ar      1 NAD1242     0.0000 
     39 C7N         6.4660  -52.7260   16.7820 C.2       1 NAD1242     0.0000 
     40 O7N         7.2120  -51.7690   16.8790 O.2       1 NAD1242     0.0000 
     41 N7N         6.5410  -53.7240   17.6480 N.am      1 NAD1242     0.0000 
     42 C4N         5.4400  -51.6460   14.7940 C.ar      1 NAD1242     0.0000 
     43 C5N         4.5020  -51.6040   13.7720 C.ar      1 NAD1242     0.0000 
     44 C6N         3.5950  -52.6560   13.6550 C.ar      1 NAD1242     0.0000 
     45 H           3.7800  -62.0242   18.1362 H         1 NAD1242     0.0000 
     46 H           3.0096  -60.7989   17.1140 H         1 NAD1242     0.0000 
     47 H           1.0779  -60.9742   18.8399 H         1 NAD1242     0.0000 
     48 H           2.7473  -62.6094   20.0903 H         1 NAD1242     0.0000 
     49 H           2.9210  -64.1053   18.3481 H         1 NAD1242     0.0000 
     50 H          -0.0359  -63.9635   18.1721 H         1 NAD1242     0.0000 
     51 H           3.1120  -64.5248   16.0335 H         1 NAD1242     0.0000 
     52 H           1.3415  -68.1506   13.4019 H         1 NAD1242     0.0000 
     53 H          -0.2539  -68.9693   13.3020 H         1 NAD1242     0.0000 
     54 H          -2.8349  -66.9347   16.4142 H         1 NAD1242     0.0000 
     55 H           1.4305  -56.2585   17.7576 H         1 NAD1242     0.0000 
     56 H           1.2961  -57.8760   17.0466 H         1 NAD1242     0.0000 
     57 H           0.3528  -56.3193   15.5299 H         1 NAD1242     0.0000 
     58 H           2.3603  -57.9567   14.6926 H         1 NAD1242     0.0000 
     59 H           3.9984  -56.3256   14.6471 H         1 NAD1242     0.0000 
     60 H           1.9290  -54.4942   13.5423 H         1 NAD1242     0.0000 
     61 H           4.5171  -54.5386   16.1846 H         1 NAD1242     0.0000 
     62 H           7.2635  -53.6562   18.3360 H         1 NAD1242     0.0000 
     63 H           5.8684  -54.4554   17.5358 H         1 NAD1242     0.0000 
     64 H           6.1266  -50.8917   14.8988 H         1 NAD1242     0.0000 
     65 H           4.4746  -50.8223   13.1198 H         1 NAD1242     0.0000 
     66 H           2.8873  -52.6139   12.8904 H         1 NAD1242     0.0000 
     67 H           0.7839  -63.5544   21.0305 H         1 NAD1242     0.0000 
     68 H           1.2453  -64.8552   20.4257 H         1 NAD1242     0.0000 
     69 H           0.4829  -57.8559   13.5291 H         1 NAD1242     0.0000 
     70 H           2.6135  -56.4999   12.1900 H         1 NAD1242     0.0000 
@<TRIPOS>BOND
     1    2    1 ar   
     2    3    1 ar   
     3    4    1 1    
     4   23    1 1    
     5    5    4 1    
     6    6    5 1    
     7   45    5 1    
     8   46    5 1    
     9    7    6 1    
    10    8    6 1    
    11   47    6 1    
    12   12    7 1    
    13    9    8 1    
    14   10    8 1    
    15   48    8 1    
    16   67    9 1    
    17   11   10 1    
    18   12   10 1    
    19   49   10 1    
    20   68   11 1    
    21   13   12 1    
    22   50   12 1    
    23   14   13 1    
    24   22   13 1    
    25   15   14 2    
    26   51   14 1    
    27   16   15 1    
    28   17   16 ar   
    29   22   16 ar   
    30   18   17 1    
    31   19   17 ar   
    32   52   18 1    
    33   53   18 1    
    34   20   19 ar   
    35   21   20 ar   
    36   54   20 1    
    37   22   21 ar   
    38   24   23 1    
    39   25   24 ar   
    40   26   24 ar   
    41   27   24 1    
    42   28   27 1    
    43   29   28 1    
    44   55   28 1    
    45   56   28 1    
    46   30   29 1    
    47   31   29 1    
    48   57   29 1    
    49   35   30 1    
    50   32   31 1    
    51   33   31 1    
    52   58   31 1    
    53   69   32 1    
    54   34   33 1    
    55   35   33 1    
    56   59   33 1    
    57   70   34 1    
    58   36   35 1    
    59   60   35 1    
    60   37   36 ar   
    61   44   36 ar   
    62   38   37 ar   
    63   61   37 1    
    64   39   38 1    
    65   42   38 ar   
    66   40   39 2    
    67   41   39 am   
    68   62   41 1    
    69   63   41 1    
    70   43   42 ar   
    71   64   42 1    
    72   44   43 ar   
    73   65   43 1    
    74   66   44 1    
@<TRIPOS>SUBSTRUCTURE
     1 NAD1242     1 GROUP   
@<TRIPOS>SET

