#    Name: 3frk_TQP_1_INTS_M
#    Modification time : Tue Mar 25 06:25:11 2014

@<TRIPOS>MOLECULE
3frk_TQP_1_INTS_M
  122     0    12     0     0
SMALL
NO_CHARGES


@<TRIPOS>ATOM
      1 N          26.9640  -28.0615   -5.7845 N.am      2 SEC2        0.0000 
      2 N          25.8710  -28.0760   -6.8950 N.am     10 SEL2        0.0000 
      3 N          28.0570  -28.0470   -4.6740 N.am      6 SEP2        0.0000 
      4 N          25.6620  -27.5485   -8.0475 N.am      2 SEC2        0.0000 
      5 N          25.4530  -27.0210   -9.2000 N.am      6 SEP2        0.0000 
      6 N          23.3065  -29.1900   -8.2340 N.am      2 SEC2        0.0000 
      7 N          23.3680  -28.9200   -6.9680 N.am     10 SEL2        0.0000 
      8 N          23.2450  -29.4600   -9.5000 N.am      6 SEP2        0.0000 
      9 N          25.1825  -26.4275   -4.9490 N.am      2 SEC2        0.0000 
     10 N          24.0200  -26.8400   -5.6950 N.am     10 SEL2        0.0000 
     11 N          26.3450  -26.0150   -4.2030 N.am      6 SEP2        0.0000 
     12 N          23.0350  -26.8325   -4.6080 N.am      2 SEC2        0.0000 
     13 N          22.0500  -26.8250   -3.5210 N.am      6 SEP2        0.0000 
     14 CA         25.9770  -28.5975   -3.9995 C.3       4 GLC5        0.0000 
     15 CA         25.2670  -30.3090   -4.9190 C.3      12 GLL5        0.0000 
     16 CA         26.6870  -26.8860   -3.0800 C.3       8 GLP5        0.0000 
     17 CA         27.2265  -29.5705   -5.0025 C.3       4 GLC5        0.0000 
     18 CA         29.1860  -28.8320   -5.0860 C.3       8 GLP5        0.0000 
     19 CA         24.8210  -32.1445   -6.1210 C.3       4 GLC5        0.0000 
     20 CA         24.3750  -33.9800   -7.3230 C.3       8 GLP5        0.0000 
     21 CA         21.7590  -33.0345   -1.2880 C.3       4 GLC5        0.0000 
     22 CA         23.3500  -32.8410   -2.7200 C.3      12 GLL5        0.0000 
     23 CA         20.1680  -33.2280    0.1440 C.3       8 GLP5        0.0000 
     24 N          21.2360  -34.2620   -1.9455 N.am      2 SEC2        0.0000 
     25 N          22.1350  -33.4300   -2.5690 N.am     10 SEL2        0.0000 
     26 N          20.3370  -35.0940   -1.3220 N.am      6 SEP2        0.0000 
     27 CA         24.5340  -35.2055    0.8565 C.3       4 GLC5        0.0000 
     28 CA         24.1450  -34.1890   -0.7210 C.3      12 GLL5        0.0000 
     29 CA         24.9230  -36.2220    2.4340 C.3       8 GLP5        0.0000 
     30 CA         22.1565  -33.7085   -0.2885 C.3       4 GLC5        0.0000 
     31 N          26.4095  -33.0880   -0.9685 N.am      2 SEC2        0.0000 
     32 N          25.5910  -32.6120   -1.9750 N.am     10 SEL2        0.0000 
     33 N          27.2280  -33.5640    0.0380 N.am      6 SEP2        0.0000 
     34 CA         27.8270  -31.5555   -2.1655 C.3       4 GLC5        0.0000 
     35 CA         25.8540  -31.7120   -2.9240 C.3      12 GLL5        0.0000 
     36 CA         29.8000  -31.3990   -1.4070 C.3       8 GLP5        0.0000 
     37 N          13.6045  -23.5100  -11.8845 N.am      2 SEC2        0.0000 
     38 N          13.6380  -24.4190  -10.9940 N.am     10 SEL2        0.0000 
     39 N          13.5710  -22.6010  -12.7750 N.am      6 SEP2        0.0000 
     40 O          10.8450  -24.5370  -10.9860 O.2       1 ALC1        0.0000 
     41 O          11.8540  -25.6350  -10.6380 O.2       9 ALL1        0.0000 
     42 O           9.8360  -23.4390  -11.3340 O.2       5 ALP1        0.0000 
     43 CA         16.8640  -27.4585   -9.7415 C.3       4 GLC5        0.0000 
     44 CA         15.4980  -26.5310  -10.3170 C.3      12 GLL5        0.0000 
     45 CA         18.2300  -28.3860   -9.1660 C.3       8 GLP5        0.0000 
     46 CA         16.8085  -25.5245  -10.8650 C.3       4 GLC5        0.0000 
     47 CA         18.1190  -24.5180  -11.4130 C.3       8 GLP5        0.0000 
     48 CA         13.8670  -28.1880   -7.8100 C.3       4 GLC5        0.0000 
     49 CA         13.4040  -27.8010   -9.9230 C.3      12 GLL5        0.0000 
     50 CA         14.3300  -28.5750   -5.6970 C.3       8 GLP5        0.0000 
     51 CA         10.2375  -29.8895   -7.8540 C.3       4 GLC5        0.0000 
     52 CA         11.3290  -29.0820   -9.5010 C.3      12 GLL5        0.0000 
     53 CA          9.1460  -30.6970   -6.2070 C.3       8 GLP5        0.0000 
     54 CA         11.5100  -27.3460   -8.2150 C.3       4 GLC5        0.0000 
     55 CA         11.6910  -25.6100   -6.9290 C.3       8 GLP5        0.0000 
     56 CA         10.6160  -30.8365   -7.2475 C.3       4 GLC5        0.0000 
     57 CA         12.0860  -30.9760   -8.2880 C.3      12 GLL5        0.0000 
     58 N          16.7500  -29.7685  -10.2170 N.am      2 SEC2        0.0000 
     59 N          15.7250  -30.6290  -10.0900 N.am     10 SEL2        0.0000 
     60 N          17.7750  -28.9080  -10.3440 N.am      6 SEP2        0.0000 
     61 NZ         15.6285  -33.8940  -10.9325 N.4       3 LYC4        0.0000 
     62 NZ         14.5790  -32.9030  -10.5030 N.4      11 LYL4        0.0000 
     63 NZ         16.6780  -34.8850  -11.3620 N.4       7 LYP4        0.0000 
     64 N          15.6285  -33.8940  -10.9325 N.am      2 SEC2        0.0000 
     65 N          14.5790  -32.9030  -10.5030 N.am     10 SEL2        0.0000 
     66 N          16.6780  -34.8850  -11.3620 N.am      6 SEP2        0.0000 
     67 N          16.7015  -33.7595  -10.2535 N.am      2 SEC2        0.0000 
     68 N          16.7250  -32.6340   -9.1450 N.am     10 SEL2        0.0000 
     69 NZ         16.8265  -34.9430   -9.7925 N.4       3 LYC4        0.0000 
     70 NZ         16.9750  -35.0010   -8.2230 N.4      11 LYL4        0.0000 
     71 N          16.3185  -35.6460   -6.9210 N.am      2 SEC2        0.0000 
     72 N          16.9750  -35.0010   -8.2230 N.am     10 SEL2        0.0000 
     73 N          15.6620  -36.2910   -5.6190 N.am      6 SEP2        0.0000 
     74 N          16.8265  -34.9430   -9.7925 N.am      2 SEC2        0.0000 
     75 N          15.5415  -34.9480   -6.2665 N.am      2 SEC2        0.0000 
     76 N          15.4210  -33.6050   -6.9140 N.am     10 SEL2        0.0000 
     77 CA         22.1465  -33.0570   -7.7415 C.3       4 GLC5        0.0000 
     78 CA         20.6530  -31.5410   -7.1200 C.3      12 GLL5        0.0000 
     79 CA         23.6400  -34.5730   -8.3630 C.3       8 GLP5        0.0000 
     80 CA         19.4100  -29.7890   -6.9480 C.3       4 GLC5        0.0000 
     81 CA         18.1670  -28.0370   -6.7760 C.3       8 GLP5        0.0000 
     82 CA         21.8445  -31.0225  -10.4705 C.3       4 GLC5        0.0000 
     83 CA         20.0070  -31.2010   -9.5790 C.3      12 GLL5        0.0000 
     84 CA         23.6820  -30.8440  -11.3620 C.3       8 GLP5        0.0000 
     85 CA         19.6555  -30.8155   -4.5580 C.3       4 GLC5        0.0000 
     86 CA         20.3370  -32.2900   -5.7960 C.3      12 GLL5        0.0000 
     87 CA         18.9740  -29.3410   -3.3200 C.3       8 GLP5        0.0000 
     88 N          20.7355  -31.0875   -3.8745 N.am      2 SEC2        0.0000 
     89 N          21.3120  -32.0140   -4.7120 N.am     10 SEL2        0.0000 
     90 N          20.1590  -30.1610   -3.0370 N.am      6 SEP2        0.0000 
     91 CA         21.6030  -35.0870   -6.4515 C.3       4 GLC5        0.0000 
     92 CA         20.1620  -33.8030   -6.0730 C.3      12 GLL5        0.0000 
     93 CA         23.0440  -36.3710   -6.8300 C.3       8 GLP5        0.0000 
     94 O          19.9840  -35.5555   -4.4270 O.2       1 ALC1        0.0000 
     95 O          19.6030  -34.5090   -4.9490 O.2       9 ALL1        0.0000 
     96 O          20.3650  -36.6020   -3.9050 O.2       5 ALP1        0.0000 
     97 CA         21.0580  -34.8435   -7.6585 C.3       4 GLC5        0.0000 
     98 CA         19.1310  -33.8950   -7.2080 C.3      12 GLL5        0.0000 
     99 CA         22.9850  -35.7920   -8.1090 C.3       8 GLP5        0.0000 
    100 CA         17.9535  -35.4690   -6.2795 C.3       4 GLC5        0.0000 
    101 CA         16.7760  -37.0430   -5.3510 C.3       8 GLP5        0.0000 
    102 CA         23.9286  -35.0015   -2.9775 C.3       4 GLC5        0.0000 
    103 CA         23.8510  -36.4050   -4.4570 C.3       8 GLP5        0.0000 
    104 CA         23.7681  -31.9865   -0.8595 C.3       4 GLC5        0.0000 
    105 CA         23.5300  -30.3750   -0.2210 C.3       8 GLP5        0.0000 
    106 CA         26.0276  -32.3806   -4.7792 C.3       4 GLC5        0.0000 
    107 CA         23.5900  -31.8990   -3.7730 C.3      12 GLL5        0.0000 
    108 CA         26.9610  -33.2270   -6.0570 C.3       8 GLP5        0.0000 
    109 CA         24.2886  -31.0177   -1.7945 C.3       4 GLC5        0.0000 
    110 CA         24.8910  -31.3190   -3.8510 C.3      12 GLL5        0.0000 
    111 CA         12.6943  -26.4097   -8.5190 C.3       4 GLC5        0.0000 
    112 CA         15.1582  -25.3202   -9.0280 C.3       4 GLC5        0.0000 
    113 CA         13.9910  -26.6180  -10.2950 C.3      12 GLL5        0.0000 
    114 CA         15.5720  -24.0660   -7.7500 C.3       8 GLP5        0.0000 
    115 CA         12.4288  -27.5613  -11.7640 C.3       4 GLC5        0.0000 
    116 CA         11.1600  -27.9130  -13.4190 C.3       8 GLP5        0.0000 
    117 CA         11.2985  -28.7730  -11.7178 C.3       4 GLC5        0.0000 
    118 CA         13.5540  -29.8032   -6.8332 C.3       4 GLC5        0.0000 
    119 CA         19.0515  -29.9848   -9.0488 C.3       4 GLC5        0.0000 
    120 CA         19.7390  -31.9660   -8.2840 C.3      12 GLL5        0.0000 
    121 CA         19.8253  -35.8400   -6.2618 C.3       4 GLC5        0.0000 
    122 CA         20.0040  -37.8310   -5.8830 C.3       8 GLP5        0.0000 
@<TRIPOS>BOND
@<TRIPOS>SUBSTRUCTURE
     1 ALC1       40 GROUP        1 X    ALC  0     ROOT ALC X 1
     2 SEC2        1 GROUP        1 X    SEC  0     **** SEC X 2
     3 LYC4       61 GROUP        1 X    LYC  0     **** LYC X 4
     4 GLC5       14 GROUP        1 X    GLC  0     **** GLC X 6
     5 ALP1       42 GROUP        1 Y    ALP  0     ROOT ALP Y 8
     6 SEP2        3 GROUP        1 Y    SEP  0     **** SEP Y 9
     7 LYP4       63 GROUP        1 Y    LYP  0     **** LYP Y 11
     8 GLP5       16 GROUP        1 Y    GLP  0     **** GLP Y 13
     9 ALL1       41 GROUP        1 Z    ALL  0     ROOT ALL Z 15
    10 SEL2        2 GROUP        1 Z    SEL  0     **** SEL Z 16
    11 LYL4       62 GROUP        1 Z    LYL  0     **** LYL Z 18
    12 GLL5       15 GROUP        1 Z    GLL  0     **** GLL Z 20
@<TRIPOS>SET

