#    Name: 3frk_TQP_1_ligand
#    Modification time : Tue Mar 25 06:25:12 2014

@<TRIPOS>MOLECULE
3frk_TQP_1_ligand
   81    84     1     0     0
SMALL
NO_CHARGES


@<TRIPOS>ATOM
      1 O2P        25.8710  -28.0760   -6.8950 O.co2     1 TQP374      0.0000 
      2 P          24.4860  -28.1980   -6.0700 P.3       1 TQP374      0.0000 
      3 O3P        23.3680  -28.9200   -6.9680 O.co2     1 TQP374      0.0000 
      4 O1P        24.0200  -26.8400   -5.6950 O.co2     1 TQP374      0.0000 
      5 O4P        24.7700  -28.9930   -4.6530 O.3       1 TQP374      0.0000 
      6 C5'        25.2670  -30.3090   -4.9190 C.3       1 TQP374      0.0000 
      7 C5P        24.8910  -31.3190   -3.8510 C.ar      1 TQP374      0.0000 
      8 C4P        23.5900  -31.8990   -3.7730 C.ar      1 TQP374      0.0000 
      9 C4'        22.5130  -31.5380   -4.7500 C.2       1 TQP374      0.0000 
     10 C3P        23.3500  -32.8410   -2.7200 C.ar      1 TQP374      0.0000 
     11 O3'        22.1350  -33.4300   -2.5690 O.3       1 TQP374      0.0000 
     12 C2P        24.3850  -33.1730   -1.8300 C.ar      1 TQP374      0.0000 
     13 C2'        24.1450  -34.1890   -0.7210 C.3       1 TQP374      0.0000 
     14 N1P        25.5910  -32.6120   -1.9750 N.ar      1 TQP374      0.0000 
     15 C6P        25.8540  -31.7120   -2.9240 C.ar      1 TQP374      0.0000 
     16 O4         13.6380  -24.4190  -10.9940 O.2       1 TQP374      0.0000 
     17 C4         13.1800  -25.4970  -10.6590 C.2       1 TQP374      0.0000 
     18 N3         11.8540  -25.6350  -10.6380 N.am      1 TQP374      0.0000 
     19 C2         11.3120  -26.8090  -10.2600 C.2       1 TQP374      0.0000 
     20 O2         10.1000  -26.9330  -10.2270 O.2       1 TQP374      0.0000 
     21 C5         13.9910  -26.6180  -10.2950 C.2       1 TQP374      0.0000 
     22 C5M        15.4980  -26.5310  -10.3170 C.3       1 TQP374      0.0000 
     23 C6         13.4040  -27.8010   -9.9230 C.2       1 TQP374      0.0000 
     24 N1         12.0480  -27.8720   -9.9070 N.am      1 TQP374      0.0000 
     25 C1'        11.3290  -29.0820   -9.5010 C.3       1 TQP374      0.0000 
     26 O4'        11.8710  -29.5510   -8.2600 O.3       1 TQP374      0.0000 
     27 C2H        11.5450  -30.1840  -10.5320 C.3       1 TQP374      0.0000 
     28 C3'        11.8380  -31.4640   -9.7340 C.3       1 TQP374      0.0000 
     29 O3H        10.5970  -32.1600   -9.6900 O.3       1 TQP374      0.0000 
     30 C4H        12.0860  -30.9760   -8.2880 C.3       1 TQP374      0.0000 
     31 C5H        13.4700  -31.0870   -7.6510 C.3       1 TQP374      0.0000 
     32 O5'        14.6520  -31.8050   -8.0270 O.3       1 TQP374      0.0000 
     33 PA         15.3450  -31.9120   -9.4700 P.3       1 TQP374      0.0000 
     34 O1A        15.7250  -30.6290  -10.0900 O.co2     1 TQP374      0.0000 
     35 O2A        14.5790  -32.9030  -10.5030 O.co2     1 TQP374      0.0000 
     36 O3A        16.7250  -32.6340   -9.1450 O.3       1 TQP374      0.0000 
     37 PB         16.7110  -33.5770   -7.8280 P.3       1 TQP374      0.0000 
     38 O1B        16.9750  -35.0010   -8.2230 O.co2     1 TQP374      0.0000 
     39 O2B        15.4210  -33.6050   -6.9140 O.co2     1 TQP374      0.0000 
     40 O3B        17.8770  -33.1750   -6.8350 O.3       1 TQP374      0.0000 
     41 O4Q        20.4590  -30.1390   -6.9710 O.3       1 TQP374      0.0000 
     42 C4Q        20.6530  -31.5410   -7.1200 C.3       1 TQP374      0.0000 
     43 C5Q        19.7390  -31.9660   -8.2840 C.3       1 TQP374      0.0000 
     44 O5Q        19.6740  -33.3810   -8.4340 O.3       1 TQP374      0.0000 
     45 C6Q        20.0070  -31.2010   -9.5790 C.3       1 TQP374      0.0000 
     46 C3Q        20.3370  -32.2900   -5.7960 C.3       1 TQP374      0.0000 
     47 N3Q        21.3120  -32.0140   -4.7120 N.2       1 TQP374      0.0000 
     48 C2Q        20.1620  -33.8030   -6.0730 C.3       1 TQP374      0.0000 
     49 O2Q        19.6030  -34.5090   -4.9490 O.3       1 TQP374      0.0000 
     50 C1Q        19.1310  -33.8950   -7.2080 C.3       1 TQP374      0.0000 
     51 H          26.3751  -30.3076   -5.0070 H         1 TQP374      0.0000 
     52 H          24.8884  -30.6901   -5.8922 H         1 TQP374      0.0000 
     53 H          22.8377  -30.8459   -5.4833 H         1 TQP374      0.0000 
     54 H          26.8053  -31.2729   -2.9956 H         1 TQP374      0.0000 
     55 H          11.2343  -24.8423  -10.9115 H         1 TQP374      0.0000 
     56 H          13.9812  -28.6086   -9.6644 H         1 TQP374      0.0000 
     57 H          10.2846  -28.8951   -9.4200 H         1 TQP374      0.0000 
     58 H          12.3876  -29.9477  -11.1456 H         1 TQP374      0.0000 
     59 H          10.6559  -30.3213  -11.1091 H         1 TQP374      0.0000 
     60 H          12.6196  -31.9624  -10.0976 H         1 TQP374      0.0000 
     61 H          11.3623  -31.4307   -7.6202 H         1 TQP374      0.0000 
     62 H          13.2438  -31.3421   -6.4976 H         1 TQP374      0.0000 
     63 H          13.7908  -29.9467   -7.4428 H         1 TQP374      0.0000 
     64 H          21.6700  -31.7586   -7.4054 H         1 TQP374      0.0000 
     65 H          18.6909  -31.6126   -7.9511 H         1 TQP374      0.0000 
     66 H          19.3323  -31.9233   -5.4722 H         1 TQP374      0.0000 
     67 H          21.0682  -34.2047   -6.4159 H         1 TQP374      0.0000 
     68 H          18.8874  -34.9606   -7.3260 H         1 TQP374      0.0000 
     69 H          24.9626  -34.3294   -0.1626 H         1 TQP374      0.0000 
     70 H          23.4144  -33.8986   -0.1031 H         1 TQP374      0.0000 
     71 H          23.8825  -35.0822   -1.0861 H         1 TQP374      0.0000 
     72 H          15.9238  -27.3927  -10.0409 H         1 TQP374      0.0000 
     73 H          15.8441  -26.3121  -11.2293 H         1 TQP374      0.0000 
     74 H          15.8383  -25.8240   -9.6970 H         1 TQP374      0.0000 
     75 H          20.9456  -31.3298   -9.8990 H         1 TQP374      0.0000 
     76 H          19.4021  -31.4980  -10.3178 H         1 TQP374      0.0000 
     77 H          19.8688  -30.2172   -9.4646 H         1 TQP374      0.0000 
     78 H          21.5915  -33.1039   -3.3425 H         1 TQP374      0.0000 
     79 H          10.8275  -33.1126   -9.8887 H         1 TQP374      0.0000 
     80 H          21.3803  -29.7503   -6.9581 H         1 TQP374      0.0000 
     81 H          20.3559  -35.0599   -4.5891 H         1 TQP374      0.0000 
@<TRIPOS>BOND
     1    2    1 ar   
     2    3    2 ar   
     3    4    2 ar   
     4    5    2 1    
     5    6    5 1    
     6    7    6 1    
     7   51    6 1    
     8   52    6 1    
     9    8    7 ar   
    10   15    7 ar   
    11    9    8 1    
    12   10    8 ar   
    13   47    9 2    
    14   53    9 1    
    15   11   10 1    
    16   12   10 ar   
    17   78   11 1    
    18   13   12 1    
    19   14   12 ar   
    20   69   13 1    
    21   70   13 1    
    22   71   13 1    
    23   15   14 ar   
    24   54   15 1    
    25   17   16 2    
    26   18   17 am   
    27   21   17 1    
    28   19   18 am   
    29   55   18 1    
    30   20   19 2    
    31   24   19 am   
    32   22   21 1    
    33   23   21 2    
    34   72   22 1    
    35   73   22 1    
    36   74   22 1    
    37   24   23 1    
    38   56   23 1    
    39   25   24 1    
    40   26   25 1    
    41   27   25 1    
    42   57   25 1    
    43   30   26 1    
    44   28   27 1    
    45   58   27 1    
    46   59   27 1    
    47   29   28 1    
    48   30   28 1    
    49   60   28 1    
    50   79   29 1    
    51   31   30 1    
    52   61   30 1    
    53   32   31 1    
    54   62   31 1    
    55   63   31 1    
    56   33   32 1    
    57   34   33 ar   
    58   35   33 ar   
    59   36   33 1    
    60   37   36 1    
    61   38   37 ar   
    62   39   37 ar   
    63   40   37 1    
    64   50   40 1    
    65   42   41 1    
    66   80   41 1    
    67   43   42 1    
    68   46   42 1    
    69   64   42 1    
    70   44   43 1    
    71   45   43 1    
    72   65   43 1    
    73   50   44 1    
    74   75   45 1    
    75   76   45 1    
    76   77   45 1    
    77   47   46 1    
    78   48   46 1    
    79   66   46 1    
    80   49   48 1    
    81   50   48 1    
    82   67   48 1    
    83   81   49 1    
    84   68   50 1    
@<TRIPOS>SUBSTRUCTURE
     1 TQP374      1 GROUP   
@<TRIPOS>SET

