#    Name: 3f3u_1AW_2_INTS_M
#    Modification time : Tue Mar 25 03:06:35 2014

@<TRIPOS>MOLECULE
3f3u_1AW_2_INTS_M
   48     0     3     0     0
SMALL
NO_CHARGES


@<TRIPOS>ATOM
      1 CA         -9.0900   38.6610   -6.8520 C.3       1 GLC5        0.0000 
      2 CA         -9.7090   37.5940   -5.1000 C.3       3 GLL5        0.0000 
      3 CA         -8.4710   39.7280   -8.6040 C.3       2 GLP5        0.0000 
      4 CA         -6.0235   41.1110   -6.5145 C.3       1 GLC5        0.0000 
      5 CA         -5.9250   41.7350   -4.6980 C.3       3 GLL5        0.0000 
      6 CA         -6.1220   40.4870   -8.3310 C.3       2 GLP5        0.0000 
      7 CA         -5.8895   44.1790   -5.8765 C.3       1 GLC5        0.0000 
      8 CA         -4.2060   43.3010   -6.7780 C.3       3 GLL5        0.0000 
      9 CA         -7.5730   45.0570   -4.9750 C.3       2 GLP5        0.0000 
     10 CA         -4.5130   45.2645   -6.6320 C.3       1 GLC5        0.0000 
     11 CA         -4.8200   47.2280   -6.4860 C.3       2 GLP5        0.0000 
     12 CA         -4.7880   44.0260   -8.4320 C.3       1 GLC5        0.0000 
     13 CA         -5.3700   44.7510  -10.0860 C.3       2 GLP5        0.0000 
     14 CA         -3.8060   45.5785   -5.6365 C.3       1 GLC5        0.0000 
     15 CA         -2.7920   43.9290   -4.7870 C.3       3 GLL5        0.0000 
     16 CA         -1.9185   45.3475   -5.5210 C.3       1 GLC5        0.0000 
     17 CA         -1.0450   46.7660   -6.2550 C.3       2 GLP5        0.0000 
     18 CA         -2.5120   39.8660   -4.3490 C.3       1 GLC5        0.0000 
     19 CA         -2.8030   41.5870   -5.6670 C.3       3 GLL5        0.0000 
     20 CA         -2.2210   38.1450   -3.0310 C.3       2 GLP5        0.0000 
     21 CA         -7.3000   44.2375   -2.9175 C.3       1 GLC5        0.0000 
     22 CA         -7.0270   43.4180   -0.8600 C.3       3 GLL5        0.0000 
     23 CA        -11.9577   38.9147   -5.0547 C.3       1 GLC5        0.0000 
     24 CA        -11.3740   38.1310   -3.4440 C.3       3 GLL5        0.0000 
     25 CA        -12.1390   40.2170   -6.4330 C.3       2 GLP5        0.0000 
     26 CA        -12.0328   37.3278   -1.8247 C.3       1 GLC5        0.0000 
     27 CA        -12.2890   37.0430    0.0270 C.3       2 GLP5        0.0000 
     28 CA        -10.6162   36.1913   -2.8197 C.3       1 GLC5        0.0000 
     29 CA         -9.4560   34.7700   -1.9630 C.3       2 GLP5        0.0000 
     30 CA        -13.1025   34.9363   -4.1675 C.3       1 GLC5        0.0000 
     31 CA        -12.1790   37.0940   -3.9090 C.3       3 GLL5        0.0000 
     32 CA        -14.2360   33.1770   -3.8950 C.3       2 GLP5        0.0000 
     33 CA        -11.6402   38.3210   -5.8515 C.3       1 GLC5        0.0000 
     34 CA        -11.7590   36.2970   -4.9710 C.3       3 GLL5        0.0000 
     35 CA        -10.9698   36.2175   -7.2380 C.3       1 GLC5        0.0000 
     36 CA        -10.5240   36.5530   -5.5690 C.3       3 GLL5        0.0000 
     37 CA        -10.7980   36.0100   -9.2060 C.3       2 GLP5        0.0000 
     38 CA        -10.2987   35.5975   -3.6165 C.3       1 GLC5        0.0000 
     39 CA        -11.0310   39.1078   -5.5002 C.3       1 GLC5        0.0000 
     40 CA         -9.6895   36.3843   -3.2652 C.3       1 GLC5        0.0000 
     41 CA        -10.1370   38.4030   -4.0350 C.3       3 GLL5        0.0000 
     42 CA         -6.9195   43.3738   -4.5482 C.3       1 GLC5        0.0000 
     43 CA         -6.6070   41.6460   -3.5450 C.3       3 GLL5        0.0000 
     44 CA         -4.7468   41.4074   -7.1061 C.3       1 GLC5        0.0000 
     45 CA         -3.6740   42.8360   -5.4130 C.3       3 GLL5        0.0000 
     46 CA         -6.7390   40.2514    1.6259 C.3       1 GLC5        0.0000 
     47 CA         -5.8340   41.3490   -0.4500 C.3       3 GLL5        0.0000 
     48 CA         -6.9880   38.5900    2.4600 C.3       2 GLP5        0.0000 
@<TRIPOS>BOND
@<TRIPOS>SUBSTRUCTURE
     1 GLC5        1 GROUP        1 X    GLC  0     ROOT GLC X 6
     2 GLP5        3 GROUP        1 Y    GLP  0     ROOT GLP Y 13
     3 GLL5        2 GROUP        1 Z    GLL  0     ROOT GLL Z 20
@<TRIPOS>SET

