#    Name: 3f3u_1AW_2_ligand
#    Modification time : Tue Mar 25 03:06:35 2014

@<TRIPOS>MOLECULE
3f3u_1AW_2_ligand
   49    51     1     0     0
SMALL
NO_CHARGES


@<TRIPOS>ATOM
      1 CBB       -11.3740   38.1310   -3.4440 C.ar      1 1AW534      0.0000 
      2 CBA       -12.1790   37.0940   -3.9090 C.ar      1 1AW534      0.0000 
      3 CAN       -11.7590   36.2970   -4.9710 C.ar      1 1AW534      0.0000 
      4 CAI       -10.5240   36.5530   -5.5690 C.ar      1 1AW534      0.0000 
      5 CAL        -9.7090   37.5940   -5.1000 C.ar      1 1AW534      0.0000 
      6 CAX       -10.1370   38.4030   -4.0350 C.ar      1 1AW534      0.0000 
      7 NAS        -9.4020   39.4190   -3.5270 N.am      1 1AW534      0.0000 
      8 CAU        -8.2720   39.9680   -4.0050 C.2       1 1AW534      0.0000 
      9 OAE        -7.7420   39.5810   -5.0510 O.2       1 1AW534      0.0000 
     10 NAT        -7.7700   40.9860   -3.2760 N.am      1 1AW534      0.0000 
     11 CAZ        -6.6070   41.6460   -3.5450 C.2       1 1AW534      0.0000 
     12 CAQ        -5.9250   41.7350   -4.6980 C.2       1 1AW534      0.0000 
     13 CAY        -4.8230   42.4490   -4.4050 C.2       1 1AW534      0.0000 
     14 CBD        -3.6740   42.8360   -5.4130 C.3       1 1AW534      0.0000 
     15 CAB        -4.2060   43.3010   -6.7780 C.3       1 1AW534      0.0000 
     16 CAC        -2.7920   43.9290   -4.7870 C.3       1 1AW534      0.0000 
     17 CAA        -2.8030   41.5870   -5.6670 C.3       1 1AW534      0.0000 
     18 NAR        -4.8420   42.7480   -3.0940 N.2       1 1AW534      0.0000 
     19 NBC        -5.8800   42.2750   -2.6090 N.pl3     1 1AW534      0.0000 
     20 CAW        -6.2440   42.3600   -1.3260 C.ar      1 1AW534      0.0000 
     21 CAP        -5.8340   41.3490   -0.4500 C.ar      1 1AW534      0.0000 
     22 CAK        -7.0270   43.4180   -0.8600 C.ar      1 1AW534      0.0000 
     23 CAH        -7.3840   43.4610    0.4870 C.ar      1 1AW534      0.0000 
     24 CAJ        -6.9670   42.4530    1.3610 C.ar      1 1AW534      0.0000 
     25 CAV        -6.1920   41.3960    0.8950 C.ar      1 1AW534      0.0000 
     26 NAD        -5.7880   40.4380    1.7210 N.pl3     1 1AW534      0.0000 
     27 H         -11.6944   38.7098   -2.6495 H         1 1AW534      0.0000 
     28 H         -13.0914   36.9153   -3.4643 H         1 1AW534      0.0000 
     29 H         -12.3471   35.5332   -5.3097 H         1 1AW534      0.0000 
     30 H         -10.2065   35.9761   -6.3592 H         1 1AW534      0.0000 
     31 H          -8.7966   37.7655   -5.5364 H         1 1AW534      0.0000 
     32 H          -9.7870   39.8564   -2.5881 H         1 1AW534      0.0000 
     33 H          -8.3262   41.3070   -2.4135 H         1 1AW534      0.0000 
     34 H          -6.1669   41.3725   -5.5403 H         1 1AW534      0.0000 
     35 H          -5.2653   40.5682   -0.8041 H         1 1AW534      0.0000 
     36 H          -7.3346   44.1526   -1.5002 H         1 1AW534      0.0000 
     37 H          -7.9576   44.2384    0.8413 H         1 1AW534      0.0000 
     38 H          -7.2362   42.4957    2.3534 H         1 1AW534      0.0000 
     39 H          -6.3847   40.2489    2.5010 H         1 1AW534      0.0000 
     40 H          -4.9236   39.9921    1.4885 H         1 1AW534      0.0000 
     41 H          -3.4639   43.5440   -7.4027 H         1 1AW534      0.0000 
     42 H          -4.7467   42.5900   -7.2277 H         1 1AW534      0.0000 
     43 H          -4.7931   44.1060   -6.6931 H         1 1AW534      0.0000 
     44 H          -2.3688   43.6218   -3.9346 H         1 1AW534      0.0000 
     45 H          -2.0511   44.2044   -5.3995 H         1 1AW534      0.0000 
     46 H          -3.3171   44.7528   -4.5733 H         1 1AW534      0.0000 
     47 H          -2.0543   41.7791   -6.3015 H         1 1AW534      0.0000 
     48 H          -2.3911   41.2436   -4.8230 H         1 1AW534      0.0000 
     49 H          -3.3350   40.8369   -6.0598 H         1 1AW534      0.0000 
@<TRIPOS>BOND
     1    2    1 ar   
     2    6    1 ar   
     3   27    1 1    
     4    3    2 ar   
     5   28    2 1    
     6    4    3 ar   
     7   29    3 1    
     8    5    4 ar   
     9   30    4 1    
    10    6    5 ar   
    11   31    5 1    
    12    7    6 1    
    13    8    7 am   
    14   32    7 1    
    15    9    8 2    
    16   10    8 am   
    17   11   10 1    
    18   33   10 1    
    19   12   11 2    
    20   19   11 1    
    21   13   12 1    
    22   34   12 1    
    23   14   13 1    
    24   18   13 2    
    25   15   14 1    
    26   16   14 1    
    27   17   14 1    
    28   41   15 1    
    29   42   15 1    
    30   43   15 1    
    31   44   16 1    
    32   45   16 1    
    33   46   16 1    
    34   47   17 1    
    35   48   17 1    
    36   49   17 1    
    37   19   18 1    
    38   20   19 1    
    39   21   20 ar   
    40   22   20 ar   
    41   25   21 ar   
    42   35   21 1    
    43   23   22 ar   
    44   36   22 1    
    45   24   23 ar   
    46   37   23 1    
    47   25   24 ar   
    48   38   24 1    
    49   26   25 1    
    50   39   26 1    
    51   40   26 1    
@<TRIPOS>SUBSTRUCTURE
     1 1AW534      1 GROUP   
@<TRIPOS>SET

