#    Name: 4mp7_PFT_1_INTS_M
#    Modification time : Tue Mar 25 12:17:39 2014

@<TRIPOS>MOLECULE
4mp7_PFT_1_INTS_M
   46     0     9     0     0
SMALL
NO_CHARGES


@<TRIPOS>ATOM
      1 CA         14.1390   -0.7625  -36.3210 C.3       3 GLC5        0.0000 
      2 CA         15.0280    0.0160  -37.7010 C.3       9 GLL5        0.0000 
      3 CA         13.2500   -1.5410  -34.9410 C.3       6 GLP5        0.0000 
      4 N          10.9260   -0.0585  -37.9065 N.am      2 SEC2        0.0000 
      5 N          12.2090    0.1150  -37.7090 N.am      8 SEL2        0.0000 
      6 N           9.6430   -0.2320  -38.1040 N.am      5 SEP2        0.0000 
      7 CA         13.1015    2.6385  -39.2920 C.3       3 GLC5        0.0000 
      8 CA         11.4570    3.0760  -37.9590 C.3       9 GLL5        0.0000 
      9 CA         14.7460    2.2010  -40.6250 C.3       6 GLP5        0.0000 
     10 O          10.8545    3.0275  -40.1415 O.2       1 ALC1        0.0000 
     11 O          11.6170    2.6050  -39.2350 O.2       7 ALL1        0.0000 
     12 O          10.0920    3.4500  -41.0480 O.2       4 ALP1        0.0000 
     13 CA         11.3945    5.1190  -33.4360 C.3       3 GLC5        0.0000 
     14 CA         11.2170    3.9760  -35.3370 C.3       9 GLL5        0.0000 
     15 CA         11.5720    6.2620  -31.5350 C.3       6 GLP5        0.0000 
     16 CA          9.8445    3.8310  -33.7665 C.3       3 GLC5        0.0000 
     17 CA          8.4720    3.6860  -32.1960 C.3       6 GLP5        0.0000 
     18 CA          8.8690    4.6330  -35.2330 C.3       3 GLC5        0.0000 
     19 CA         10.6200    4.6770  -36.3670 C.3       9 GLL5        0.0000 
     20 CA          7.1180    4.5890  -34.0990 C.3       6 GLP5        0.0000 
     21 CA         10.2632    1.7790  -38.0020 C.3       3 GLC5        0.0000 
     22 CA         12.0280    2.4020  -36.9590 C.3       9 GLL5        0.0000 
     23 CA          8.7840    0.8190  -38.5450 C.3       6 GLP5        0.0000 
     24 CA         11.7295    4.8785  -39.4065 C.3       3 GLC5        0.0000 
     25 CA         10.7370    4.2380  -37.6930 C.3       9 GLL5        0.0000 
     26 CA         12.3620    6.1000  -40.9870 C.3       6 GLP5        0.0000 
     27 CA         11.6430    2.5892  -33.5528 C.3       3 GLC5        0.0000 
     28 CA         11.7190    1.7640  -31.6370 C.3       6 GLP5        0.0000 
     29 CA          9.8430    2.4417  -36.3978 C.3       3 GLC5        0.0000 
     30 CA         11.9170    2.8530  -35.6000 C.3       9 GLL5        0.0000 
     31 CA          8.1190    1.4690  -37.3270 C.3       6 GLP5        0.0000 
     32 CA         18.8475    3.9722  -38.5798 C.3       3 GLC5        0.0000 
     33 CA         17.5730    2.7120  -37.5880 C.3       9 GLL5        0.0000 
     34 CA         19.5760    5.5060  -39.3070 C.3       6 GLP5        0.0000 
     35 CA         17.1240    2.4733  -39.5323 C.3       3 GLC5        0.0000 
     36 CA         18.6650    2.1650  -38.1170 C.3       9 GLL5        0.0000 
     37 CA         16.1290    2.5080  -41.2120 C.3       6 GLP5        0.0000 
     38 CA         17.1230    1.4655  -39.8723 C.3       3 GLC5        0.0000 
     39 CA         18.6840    0.8090  -38.5810 C.3       9 GLL5        0.0000 
     40 CA          9.3987    2.9633  -37.1785 C.3       3 GLC5        0.0000 
     41 CA         19.7317    1.4065  -40.1405 C.3       3 GLC5        0.0000 
     42 CA         20.7890    1.3260  -41.9320 C.3       6 GLP5        0.0000 
     43 CA         15.2245    1.6957  -39.0706 C.3       3 GLC5        0.0000 
     44 CA         15.0200    2.2450  -36.9520 C.3       9 GLL5        0.0000 
     45 CA         12.1994    5.3069  -36.4898 C.3       3 GLC5        0.0000 
     46 CA         13.1860    6.8230  -36.6970 C.3       6 GLP5        0.0000 
@<TRIPOS>BOND
@<TRIPOS>SUBSTRUCTURE
     1 ALC1       10 GROUP        1 X    ALC  0     ROOT ALC X 1
     2 SEC2        4 GROUP        1 X    SEC  0     **** SEC X 2
     3 GLC5        1 GROUP        1 X    GLC  0     **** GLC X 6
     4 ALP1       12 GROUP        1 Y    ALP  0     ROOT ALP Y 8
     5 SEP2        6 GROUP        1 Y    SEP  0     **** SEP Y 9
     6 GLP5        3 GROUP        1 Y    GLP  0     **** GLP Y 13
     7 ALL1       11 GROUP        1 Z    ALL  0     ROOT ALL Z 15
     8 SEL2        5 GROUP        1 Z    SEL  0     **** SEL Z 16
     9 GLL5        2 GROUP        1 Z    GLL  0     **** GLL Z 20
@<TRIPOS>SET

