#    Name: 4mp7_PFT_1_ligand
#    Modification time : Tue Mar 25 12:17:39 2014

@<TRIPOS>MOLECULE
4mp7_PFT_1_ligand
   32    34     1     0     0
SMALL
NO_CHARGES


@<TRIPOS>ATOM
      1 N1         14.2130    1.1330  -37.3340 N.am      1 PFT501      0.0000 
      2 C2         12.7910    1.1240  -37.3500 C.2       1 PFT501      0.0000 
      3 C3         15.0200    2.2450  -36.9520 C.3       1 PFT501      0.0000 
      4 C4         15.0280    0.0160  -37.7010 C.3       1 PFT501      0.0000 
      5 C5         12.0280    2.4020  -36.9590 C.ar      1 PFT501      0.0000 
      6 O6         12.2090    0.1150  -37.7090 O.2       1 PFT501      0.0000 
      7 C7         16.3760    1.8920  -37.4880 C.ar      1 PFT501      0.0000 
      8 C8         16.3880    0.6090  -37.9240 C.ar      1 PFT501      0.0000 
      9 C9         11.4570    3.0760  -37.9590 C.ar      1 PFT501      0.0000 
     10 C10        11.9170    2.8530  -35.6000 C.ar      1 PFT501      0.0000 
     11 C11        17.5730    2.7120  -37.5880 C.ar      1 PFT501      0.0000 
     12 C12        17.5500    0.0370  -38.4840 C.ar      1 PFT501      0.0000 
     13 C13        10.7370    4.2380  -37.6930 C.ar      1 PFT501      0.0000 
     14 O14        11.6170    2.6050  -39.2350 O.3       1 PFT501      0.0000 
     15 C15        11.2170    3.9760  -35.3370 C.ar      1 PFT501      0.0000 
     16 C16        18.6650    2.1650  -38.1170 C.ar      1 PFT501      0.0000 
     17 C17        18.6840    0.8090  -38.5810 C.ar      1 PFT501      0.0000 
     18 C18        10.6200    4.6770  -36.3670 C.ar      1 PFT501      0.0000 
     19 O19         9.9160    5.8340  -36.0960 O.3       1 PFT501      0.0000 
     20 H          15.0830    2.3490  -35.8847 H         1 PFT501      0.0000 
     21 H          14.6903    3.1584  -37.4113 H         1 PFT501      0.0000 
     22 H          14.6917   -0.4417  -38.6157 H         1 PFT501      0.0000 
     23 H          15.0892   -0.7121  -36.9101 H         1 PFT501      0.0000 
     24 H          12.3760    2.3035  -34.8709 H         1 PFT501      0.0000 
     25 H          17.5187    3.6676  -37.2479 H         1 PFT501      0.0000 
     26 H          17.5325   -0.9290  -38.8049 H         1 PFT501      0.0000 
     27 H          10.3000    4.7644  -38.4485 H         1 PFT501      0.0000 
     28 H          11.1185    4.3254  -34.3653 H         1 PFT501      0.0000 
     29 H          19.5557    2.7031  -38.2160 H         1 PFT501      0.0000 
     30 H          19.5512    0.4407  -38.9790 H         1 PFT501      0.0000 
     31 H          11.3097    3.3505  -39.8263 H         1 PFT501      0.0000 
     32 H           9.5718    6.1412  -36.9832 H         1 PFT501      0.0000 
@<TRIPOS>BOND
     1    2    1 am   
     2    3    1 1    
     3    4    1 1    
     4    5    2 1    
     5    6    2 2    
     6    7    3 1    
     7   20    3 1    
     8   21    3 1    
     9    8    4 1    
    10   22    4 1    
    11   23    4 1    
    12    9    5 ar   
    13   10    5 ar   
    14    8    7 ar   
    15   11    7 ar   
    16   12    8 ar   
    17   13    9 ar   
    18   14    9 1    
    19   15   10 ar   
    20   24   10 1    
    21   16   11 ar   
    22   25   11 1    
    23   17   12 ar   
    24   26   12 1    
    25   18   13 ar   
    26   27   13 1    
    27   31   14 1    
    28   18   15 ar   
    29   28   15 1    
    30   17   16 ar   
    31   29   16 1    
    32   30   17 1    
    33   19   18 1    
    34   32   19 1    
@<TRIPOS>SUBSTRUCTURE
     1 PFT501      1 GROUP   
@<TRIPOS>SET

