#    Name: 3sl8_JN7_3_INTS_M
#    Modification time : Mon Mar 24 17:51:47 2014

@<TRIPOS>MOLECULE
3sl8_JN7_3_INTS_M
   65     0     6     0     0
SMALL
NO_CHARGES


@<TRIPOS>ATOM
      1 CA         32.6720    9.2715   34.6450 C.3       2 GLC5        0.0000 
      2 CA         30.7590    9.2920   33.8170 C.3       6 GLL5        0.0000 
      3 CA         34.5850    9.2510   35.4730 C.3       4 GLP5        0.0000 
      4 CA         29.0285    8.1175   34.3600 C.3       2 GLC5        0.0000 
      5 CA         27.2980    6.9430   34.9030 C.3       4 GLP5        0.0000 
      6 CA         30.4095    6.0700   30.0170 C.3       2 GLC5        0.0000 
      7 CA         30.5600    7.4030   31.4140 C.3       6 GLL5        0.0000 
      8 CA         30.2590    4.7370   28.6200 C.3       4 GLP5        0.0000 
      9 CA         30.2675    4.4110   31.4740 C.3       2 GLC5        0.0000 
     10 CA         31.1170    5.3390   33.3230 C.3       6 GLL5        0.0000 
     11 CA         29.4180    3.4830   29.6250 C.3       4 GLP5        0.0000 
     12 CA         26.9845    7.3040   32.9610 C.3       2 GLC5        0.0000 
     13 CA         26.6710    7.6650   31.0190 C.3       6 GLL5        0.0000 
     14 CA         25.1125    5.5930   29.1745 C.3       2 GLC5        0.0000 
     15 CA         26.0890    6.3510   30.5940 C.3       6 GLL5        0.0000 
     16 CA         24.1360    4.8350   27.7550 C.3       4 GLP5        0.0000 
     17 CA         33.1835    1.4160   36.4910 C.3       2 GLC5        0.0000 
     18 CA         31.3560    2.0140   36.7110 C.3       6 GLL5        0.0000 
     19 CA         35.0110    0.8180   36.2710 C.3       4 GLP5        0.0000 
     20 CA         33.3955    1.8475   40.3325 C.3       2 GLC5        0.0000 
     21 CA         32.3750    3.1700   39.0340 C.3       6 GLL5        0.0000 
     22 CA         34.4160    0.5250   41.6310 C.3       4 GLP5        0.0000 
     23 CA         33.1805    4.4040   41.5560 C.3       2 GLC5        0.0000 
     24 CA         31.6930    4.0380   40.2240 C.3       6 GLL5        0.0000 
     25 CA         34.6680    4.7700   42.8880 C.3       4 GLP5        0.0000 
     26 CA         28.7055    3.3135   40.3835 C.3       2 GLC5        0.0000 
     27 CA         30.1910    4.1410   39.9410 C.3       6 GLL5        0.0000 
     28 CA         27.2200    2.4860   40.8260 C.3       4 GLP5        0.0000 
     29 CA         28.7270    2.2740   39.3500 C.3       2 GLC5        0.0000 
     30 CA         29.8560    3.3530   38.5500 C.3       6 GLL5        0.0000 
     31 CA         27.5980    1.1950   40.1500 C.3       4 GLP5        0.0000 
     32 N          31.2455    7.2190   39.3920 N.am      1 SEC2        0.0000 
     33 N          31.4890    6.8380   37.7810 N.am      5 SEL2        0.0000 
     34 N          31.0020    7.6000   41.0030 N.am      3 SEP2        0.0000 
     35 CA         31.3110   13.6835   37.0040 C.3       2 GLC5        0.0000 
     36 CA         30.9360   11.7280   36.9930 C.3       6 GLL5        0.0000 
     37 CA         31.6860   15.6390   37.0150 C.3       4 GLP5        0.0000 
     38 CA         29.0475    9.6275   40.4355 C.3       2 GLC5        0.0000 
     39 CA         30.0680   10.0390   38.5040 C.3       6 GLL5        0.0000 
     40 CA         28.0270    9.2160   42.3670 C.3       4 GLP5        0.0000 
     41 CA         32.8725    5.5344   35.4491 C.3       2 GLC5        0.0000 
     42 CA         31.3610    5.4240   34.9860 C.3       6 GLL5        0.0000 
     43 CA         34.5050    4.9470   36.1360 C.3       4 GLP5        0.0000 
     44 CA         27.0470    5.5260   30.1943 C.3       2 GLC5        0.0000 
     45 CA         27.7140    4.0440   29.5820 C.3       4 GLP5        0.0000 
     46 CA         24.9305    7.1950   31.6242 C.3       2 GLC5        0.0000 
     47 CA         23.4810    7.3820   32.4420 C.3       4 GLP5        0.0000 
     48 CA         30.8680    1.0915   38.6787 C.3       2 GLC5        0.0000 
     49 CA         30.4680   -0.2000   40.0010 C.3       4 GLP5        0.0000 
     50 CA         32.8865    3.6650   36.7463 C.3       2 GLC5        0.0000 
     51 CA         31.1800    2.7520   38.0020 C.3       6 GLL5        0.0000 
     52 CA         31.2510    1.7020   39.8150 C.3       2 GLC5        0.0000 
     53 CA         33.5140    4.8475   39.3080 C.3       2 GLC5        0.0000 
     54 CA         34.9940    6.0910   38.9870 C.3       4 GLP5        0.0000 
     55 CA         30.0525    1.8727   39.5734 C.3       2 GLC5        0.0000 
     56 CA         33.3460   10.2900   38.9985 C.3       2 GLC5        0.0000 
     57 CA         31.3410    9.5580   37.8480 C.3       6 GLL5        0.0000 
     58 CA         34.9870   10.3620   40.2660 C.3       4 GLP5        0.0000 
     59 CA         33.1450    9.7345   36.6020 C.3       2 GLC5        0.0000 
     60 CA         32.0690   10.8780   37.6140 C.3       6 GLL5        0.0000 
     61 CA         28.2133    9.6110   38.1075 C.3       2 GLC5        0.0000 
     62 CA         26.5770    8.6520   38.2100 C.3       4 GLP5        0.0000 
     63 CA         30.3855   11.8763   39.2271 C.3       2 GLC5        0.0000 
     64 CA         29.6310   11.1010   37.5060 C.3       6 GLL5        0.0000 
     65 CA         30.0950   12.8160   40.8000 C.3       4 GLP5        0.0000 
@<TRIPOS>BOND
@<TRIPOS>SUBSTRUCTURE
     1 SEC2       32 GROUP        1 X    SEC  0     ROOT SEC X 2
     2 GLC5        1 GROUP        1 X    GLC  0     **** GLC X 6
     3 SEP2       34 GROUP        1 Y    SEP  0     ROOT SEP Y 9
     4 GLP5        3 GROUP        1 Y    GLP  0     **** GLP Y 13
     5 SEL2       33 GROUP        1 Z    SEL  0     ROOT SEL Z 16
     6 GLL5        2 GROUP        1 Z    GLL  0     **** GLL Z 20
@<TRIPOS>SET

