#    Name: 3sl8_JN7_3_ligand
#    Modification time : Mon Mar 24 17:51:47 2014

@<TRIPOS>MOLECULE
3sl8_JN7_3_ligand
   53    56     1     0     0
SMALL
NO_CHARGES


@<TRIPOS>ATOM
      1 C1         30.7590    9.2920   33.8170 C.3       1 JN71        0.0000 
      2 C2         30.8830    9.7040   32.3280 C.3       1 JN71        0.0000 
      3 N3         30.0990    8.7950   31.5160 N.am      1 JN71        0.0000 
      4 C4         30.5600    7.4030   31.4140 C.3       1 JN71        0.0000 
      5 C5         30.8450    6.8310   32.8010 C.2       1 JN71        0.0000 
      6 C6         30.9170    7.7600   33.9740 C.2       1 JN71        0.0000 
      7 S7         31.1170    5.3390   33.3230 S.3       1 JN71        0.0000 
      8 C8         31.3610    5.4240   34.9860 C.2       1 JN71        0.0000 
      9 C9         31.2410    6.8620   35.3700 C.2       1 JN71        0.0000 
     10 C10        28.6630    8.8310   31.4040 C.2       1 JN71        0.0000 
     11 O11        28.0490    9.9050   31.6420 O.2       1 JN71        0.0000 
     12 O12        28.0520    7.7930   30.9930 O.3       1 JN71        0.0000 
     13 C13        26.6710    7.6650   31.0190 C.2       1 JN71        0.0000 
     14 C14        26.0890    6.3510   30.5940 C.2       1 JN71        0.0000 
     15 C15        31.3610    7.5070   36.7260 C.2       1 JN71        0.0000 
     16 N16        31.6080    4.3380   35.9030 N.am      1 JN71        0.0000 
     17 C17        31.2890    2.9780   35.5720 C.2       1 JN71        0.0000 
     18 C18        31.3560    2.0140   36.7110 C.3       1 JN71        0.0000 
     19 C19        31.1800    2.7520   38.0020 C.2       1 JN71        0.0000 
     20 S20        32.3750    3.1700   39.0340 S.3       1 JN71        0.0000 
     21 C21        31.6930    4.0380   40.2240 C.2       1 JN71        0.0000 
     22 C22        30.1910    4.1410   39.9410 C.2       1 JN71        0.0000 
     23 C23        29.8560    3.3530   38.5500 C.2       1 JN71        0.0000 
     24 O24        30.5220    2.7740   34.6590 O.2       1 JN71        0.0000 
     25 O25        31.2040    8.7610   36.7400 O.3       1 JN71        0.0000 
     26 O26        31.4890    6.8380   37.7810 O.2       1 JN71        0.0000 
     27 C27        31.3410    9.5580   37.8480 C.3       1 JN71        0.0000 
     28 C28        32.0690   10.8780   37.6140 C.3       1 JN71        0.0000 
     29 C29        30.9360   11.7280   36.9930 C.3       1 JN71        0.0000 
     30 C30        29.6310   11.1010   37.5060 C.3       1 JN71        0.0000 
     31 C31        30.0680   10.0390   38.5040 C.3       1 JN71        0.0000 
     32 H          29.7848    9.5884   34.1864 H         1 JN71        0.0000 
     33 H          31.5338    9.7894   34.3877 H         1 JN71        0.0000 
     34 H          31.9388    9.6708   32.0636 H         1 JN71        0.0000 
     35 H          30.5290   10.7299   32.2393 H         1 JN71        0.0000 
     36 H          31.4773    7.3423   30.8207 H         1 JN71        0.0000 
     37 H          29.8010    6.7790   30.9328 H         1 JN71        0.0000 
     38 H          26.0467    8.3859   31.3002 H         1 JN71        0.0000 
     39 H          32.0238    4.5467   36.8174 H         1 JN71        0.0000 
     40 H          32.3217    1.5076   36.7083 H         1 JN71        0.0000 
     41 H          30.5691    1.2664   36.6073 H         1 JN71        0.0000 
     42 H          32.1498    4.3703   40.8938 H         1 JN71        0.0000 
     43 H          29.5679    4.5446   40.4144 H         1 JN71        0.0000 
     44 H          29.0575    3.3030   38.2094 H         1 JN71        0.0000 
     45 H          31.9193    9.0706   38.6695 H         1 JN71        0.0000 
     46 H          32.8346   10.7509   36.9108 H         1 JN71        0.0000 
     47 H          32.3599   11.2993   38.5276 H         1 JN71        0.0000 
     48 H          30.9793   11.6533   35.9334 H         1 JN71        0.0000 
     49 H          31.0154   12.7296   37.3406 H         1 JN71        0.0000 
     50 H          29.1128   10.6470   36.6938 H         1 JN71        0.0000 
     51 H          29.0493   11.8457   37.9973 H         1 JN71        0.0000 
     52 H          30.2811   10.4854   39.4302 H         1 JN71        0.0000 
     53 H          29.3589    9.2652   38.5355 H         1 JN71        0.0000 
@<TRIPOS>BOND
     1    2    1 1    
     2    6    1 1    
     3   32    1 1    
     4   33    1 1    
     5    3    2 1    
     6   34    2 1    
     7   35    2 1    
     8    4    3 1    
     9   10    3 am   
    10    5    4 1    
    11   36    4 1    
    12   37    4 1    
    13    6    5 2    
    14    7    5 1    
    15    9    6 1    
    16    8    7 1    
    17    9    8 2    
    18   16    8 1    
    19   15    9 1    
    20   11   10 2    
    21   12   10 1    
    22   13   12 1    
    23   14   13 2    
    24   38   13 1    
    25   25   15 1    
    26   26   15 2    
    27   17   16 am   
    28   39   16 1    
    29   18   17 1    
    30   24   17 2    
    31   19   18 1    
    32   40   18 1    
    33   41   18 1    
    34   20   19 1    
    35   23   19 2    
    36   21   20 1    
    37   22   21 2    
    38   42   21 1    
    39   23   22 1    
    40   43   22 1    
    41   44   23 1    
    42   27   25 1    
    43   28   27 1    
    44   31   27 1    
    45   45   27 1    
    46   29   28 1    
    47   46   28 1    
    48   47   28 1    
    49   30   29 1    
    50   48   29 1    
    51   49   29 1    
    52   31   30 1    
    53   50   30 1    
    54   51   30 1    
    55   52   31 1    
    56   53   31 1    
@<TRIPOS>SUBSTRUCTURE
     1 JN71        1 GROUP   
@<TRIPOS>SET

