#    Name: 3fal_LO2_2_INTS_M
#    Modification time : Tue Mar 25 03:29:38 2014

@<TRIPOS>MOLECULE
3fal_LO2_2_INTS_M
  115     0     9     0     0
SMALL
NO_CHARGES


@<TRIPOS>ATOM
      1 CA         64.0200   36.2965   22.1875 C.3       3 GLC5        0.0000 
      2 CA         64.7110   37.0980   23.6580 C.3       9 GLL5        0.0000 
      3 CA         63.3290   35.4950   20.7170 C.3       6 GLP5        0.0000 
      4 CA         65.6330   39.0330   23.0630 C.3       3 GLC5        0.0000 
      5 CA         66.5550   40.9680   22.4680 C.3       6 GLP5        0.0000 
      6 CA         66.8780   36.8035   23.5385 C.3       3 GLC5        0.0000 
      7 CA         69.0450   36.5090   23.4190 C.3       6 GLP5        0.0000 
      8 CA         62.5045   36.2625   25.4105 C.3       3 GLC5        0.0000 
      9 CA         63.5030   37.6280   24.3860 C.3       9 GLL5        0.0000 
     10 CA         61.5060   34.8970   26.4350 C.3       6 GLP5        0.0000 
     11 CA         62.2865   36.6725   23.3860 C.3       3 GLC5        0.0000 
     12 CA         61.0700   35.7170   22.3860 C.3       6 GLP5        0.0000 
     13 CA         64.9785   40.0465   23.3410 C.3       3 GLC5        0.0000 
     14 CA         63.4020   39.1250   24.2140 C.3       9 GLL5        0.0000 
     15 CA         65.0440   39.7305   25.0720 C.3       3 GLC5        0.0000 
     16 CA         66.6860   40.3360   25.9300 C.3       6 GLP5        0.0000 
     17 CA         59.9580   38.7450   24.4860 C.3       3 GLC5        0.0000 
     18 CA         61.9590   39.5670   24.0540 C.3       9 GLL5        0.0000 
     19 CA         57.9570   37.9230   24.9180 C.3       6 GLP5        0.0000 
     20 CA         62.5385   41.5605   26.8545 C.3       3 GLC5        0.0000 
     21 CA         61.0470   41.4450   25.4380 C.3       9 GLL5        0.0000 
     22 CA         64.0300   41.6760   28.2710 C.3       6 GLP5        0.0000 
     23 CA         58.2255   39.7940   20.1895 C.3       3 GLC5        0.0000 
     24 CA         57.7150   41.3560   21.5800 C.3       9 GLL5        0.0000 
     25 CA         58.7360   38.2320   18.7990 C.3       6 GLP5        0.0000 
     26 CA         56.1080   41.2030   20.8435 C.3       3 GLC5        0.0000 
     27 CA         54.5010   41.0500   20.1070 C.3       6 GLP5        0.0000 
     28 CA         57.6070   43.2350   21.2790 C.3       3 GLC5        0.0000 
     29 CA         57.4990   45.1140   20.9780 C.3       6 GLP5        0.0000 
     30 CA         54.7145   40.9840   22.2810 C.3       3 GLC5        0.0000 
     31 CA         54.9280   40.9180   24.4550 C.3       9 GLL5        0.0000 
     32 CA         54.6545   42.8585   24.9040 C.3       3 GLC5        0.0000 
     33 CA         54.3810   44.7990   25.3530 C.3       6 GLP5        0.0000 
     34 CA         55.3215   39.4105   25.1145 C.3       3 GLC5        0.0000 
     35 CA         55.7150   37.9030   25.7740 C.3       6 GLP5        0.0000 
     36 N          55.1780   42.6825   25.6935 N.am      2 SEC2        0.0000 
     37 N          56.1990   41.9280   26.3490 N.am      8 SEL2        0.0000 
     38 N          54.1570   43.4370   25.0380 N.am      5 SEP2        0.0000 
     39 CA         57.7520   42.7320   28.3940 C.3       3 GLC5        0.0000 
     40 CA         56.5170   41.2990   27.5800 C.3       9 GLL5        0.0000 
     41 CA         58.9870   44.1650   29.2080 C.3       6 GLP5        0.0000 
     42 CA         56.4160   41.3325   29.2810 C.3       3 GLC5        0.0000 
     43 CA         56.3150   41.3660   30.9820 C.3       6 GLP5        0.0000 
     44 CA         56.7825   39.7640   26.7520 C.3       3 GLC5        0.0000 
     45 CA         57.0480   38.2290   25.9240 C.3       6 GLP5        0.0000 
     46 O          63.9555   46.3445   21.5465 O.2       1 ALC1        0.0000 
     47 O          63.1990   45.9790   20.5740 O.2       7 ALL1        0.0000 
     48 O          64.7120   46.7100   22.5190 O.2       4 ALP1        0.0000 
     49 CA         63.7055   43.5345   16.5570 C.3       3 GLC5        0.0000 
     50 CA         64.2430   43.2940   18.4870 C.3       9 GLL5        0.0000 
     51 CA         63.1680   43.7750   14.6270 C.3       6 GLP5        0.0000 
     52 CA         63.9275   44.6045   16.5695 C.3       3 GLC5        0.0000 
     53 CA         64.6870   45.4340   18.5120 C.3       9 GLL5        0.0000 
     54 CA         65.7445   46.9330   19.1235 C.3       3 GLC5        0.0000 
     55 CA         66.8020   48.4320   19.7350 C.3       6 GLP5        0.0000 
     56 CA         63.8075   46.8845   17.5835 C.3       3 GLC5        0.0000 
     57 CA         62.9280   48.3350   16.6550 C.3       6 GLP5        0.0000 
     58 CA         65.9320   43.1325   21.6935 C.3       3 GLC5        0.0000 
     59 CA         65.3930   44.1390   20.1520 C.3       9 GLL5        0.0000 
     60 CA         66.4710   42.1260   23.2350 C.3       6 GLP5        0.0000 
     61 CA         59.1900   44.8020   18.2095 C.3       3 GLC5        0.0000 
     62 CA         60.7630   45.1340   19.6780 C.3       9 GLL5        0.0000 
     63 CA         57.6170   44.4700   16.7410 C.3       6 GLP5        0.0000 
     64 CA         59.1310   45.1240   20.3280 C.3       3 GLC5        0.0000 
     65 CA         59.7365   46.5885   18.9445 C.3       3 GLC5        0.0000 
     66 CA         58.7100   48.0430   18.2110 C.3       6 GLP5        0.0000 
     67 CA         60.7535   46.6535   20.6985 C.3       3 GLC5        0.0000 
     68 CA         60.7440   48.1730   21.7190 C.3       6 GLP5        0.0000 
     69 CA         62.6430   44.5585   16.2920 C.3       3 GLC5        0.0000 
     70 CA         62.1180   45.3420   17.9570 C.3       9 GLL5        0.0000 
     71 CA         62.5230   46.8385   17.3060 C.3       3 GLC5        0.0000 
     72 CA         60.4140   46.6925   18.0840 C.3       3 GLC5        0.0000 
     73 CA         62.3670   43.5740   16.6430 C.3       3 GLC5        0.0000 
     74 CA         61.5660   43.3730   18.6590 C.3       9 GLL5        0.0000 
     75 CA         60.3965   41.8410   18.0755 C.3       3 GLC5        0.0000 
     76 CA         59.2270   40.3090   17.4920 C.3       6 GLP5        0.0000 
     77 CA         64.7135   37.7695   25.9070 C.3       3 GLC5        0.0000 
     78 CA         65.3200   38.1760   27.7920 C.3       6 GLP5        0.0000 
     79 CA         64.3910   35.5345   24.5100 C.3       3 GLC5        0.0000 
     80 CA         64.6750   33.7060   24.9980 C.3       6 GLP5        0.0000 
     81 CA         62.0337   38.0400   22.8110 C.3       3 GLC5        0.0000 
     82 CA         61.3870   36.7340   21.4880 C.3       6 GLP5        0.0000 
     83 CA         58.6230   43.0965   24.0623 C.3       3 GLC5        0.0000 
     84 CA         59.3590   41.4080   23.6730 C.3       9 GLL5        0.0000 
     85 CA         58.5360   44.7510   24.6640 C.3       6 GLP5        0.0000 
     86 CA         56.8023   43.1960   22.5645 C.3       3 GLC5        0.0000 
     87 CA         58.0610   41.4760   23.2480 C.3       9 GLL5        0.0000 
     88 CA         56.0610   44.8320   21.4390 C.3       6 GLP5        0.0000 
     89 CA         55.7670   43.2475   25.0800 C.3       3 GLC5        0.0000 
     90 CA         57.0260   41.6440   24.1320 C.3       9 GLL5        0.0000 
     91 CA         57.8445   43.2235   24.7355 C.3       3 GLC5        0.0000 
     92 CA         57.2800   41.7480   25.4820 C.3       9 GLL5        0.0000 
     93 CA         58.9981   43.1664   25.1205 C.3       3 GLC5        0.0000 
     94 CA         58.5870   41.6840   25.9260 C.3       9 GLL5        0.0000 
     95 CA         62.7287   44.8440   24.3410 C.3       3 GLC5        0.0000 
     96 CA         62.0300   43.2470   23.4090 C.3       9 GLL5        0.0000 
     97 CA         63.2840   45.9990   25.7850 C.3       6 GLP5        0.0000 
     98 CA         60.3548   44.2200   23.7805 C.3       3 GLC5        0.0000 
     99 CA         63.9023   44.7700   22.9840 C.3       3 GLC5        0.0000 
    100 CA         65.6310   45.8510   23.0710 C.3       6 GLP5        0.0000 
    101 CA         64.2795   45.0100   21.8418 C.3       3 GLC5        0.0000 
    102 CA         62.7860   43.6820   21.1710 C.3       9 GLL5        0.0000 
    103 CA         63.8653   40.4398   20.3422 C.3       3 GLC5        0.0000 
    104 CA         62.9540   42.3210   21.0260 C.3       9 GLL5        0.0000 
    105 CA         64.9170   38.9970   19.1430 C.3       6 GLP5        0.0000 
    106 CA         65.2535   45.0535   21.3990 C.3       3 GLC5        0.0000 
    107 CA         64.3590   44.3730   19.3020 C.3       9 GLL5        0.0000 
    108 CA         65.4640   42.3996   18.7261 C.3       3 GLC5        0.0000 
    109 CA         66.0810   40.8130   17.9290 C.3       6 GLP5        0.0000 
    110 CA         66.6785   43.5616   19.5596 C.3       3 GLC5        0.0000 
    111 CA         68.5100   43.1370   19.5960 C.3       6 GLP5        0.0000 
    112 CA         65.5807   44.3587   17.7358 C.3       3 GLC5        0.0000 
    113 CA         66.2180   44.3310   16.0440 C.3       6 GLP5        0.0000 
    114 CA         60.7218   44.7086   16.9990 C.3       3 GLC5        0.0000 
    115 CA         59.6610   45.2390   15.4070 C.3       6 GLP5        0.0000 
@<TRIPOS>BOND
@<TRIPOS>SUBSTRUCTURE
     1 ALC1       46 GROUP        1 X    ALC  0     ROOT ALC X 1
     2 SEC2       36 GROUP        1 X    SEC  0     **** SEC X 2
     3 GLC5        1 GROUP        1 X    GLC  0     **** GLC X 6
     4 ALP1       48 GROUP        1 Y    ALP  0     ROOT ALP Y 8
     5 SEP2       38 GROUP        1 Y    SEP  0     **** SEP Y 9
     6 GLP5        3 GROUP        1 Y    GLP  0     **** GLP Y 13
     7 ALL1       47 GROUP        1 Z    ALL  0     ROOT ALL Z 15
     8 SEL2       37 GROUP        1 Z    SEL  0     **** SEL Z 16
     9 GLL5        2 GROUP        1 Z    GLL  0     **** GLL Z 20
@<TRIPOS>SET

