#    Name: 3fal_LO2_2_ligand
#    Modification time : Tue Mar 25 03:29:38 2014

@<TRIPOS>MOLECULE
3fal_LO2_2_ligand
   57    58     1     0     0
SMALL
NO_CHARGES


@<TRIPOS>ATOM
      1 C1         64.7110   37.0980   23.6580 C.3       1 LO21        0.0000 
      2 C2         63.5030   37.6280   24.3860 C.3       1 LO21        0.0000 
      3 C3         63.4020   39.1250   24.2140 C.3       1 LO21        0.0000 
      4 C4         61.9590   39.5670   24.0540 C.3       1 LO21        0.0000 
      5 N5         61.9050   40.9870   24.3490 N.pl3     1 LO21        0.0000 
      6 C6         61.0470   41.4450   25.4380 C.3       1 LO21        0.0000 
      7 C7         59.6200   41.5140   25.0180 C.ar      1 LO21        0.0000 
      8 C8         59.3590   41.4080   23.6730 C.ar      1 LO21        0.0000 
      9 C9         58.0610   41.4760   23.2480 C.ar      1 LO21        0.0000 
     10 CL10       57.7150   41.3560   21.5800 Cl        1 LO21        0.0000 
     11 C11        57.0260   41.6440   24.1320 C.ar      1 LO21        0.0000 
     12 O12        55.7440   41.7120   23.6110 O.3       1 LO21        0.0000 
     13 C13        54.9280   40.9180   24.4550 C.3       1 LO21        0.0000 
     14 C14        57.2800   41.7480   25.4820 C.ar      1 LO21        0.0000 
     15 O15        56.1990   41.9280   26.3490 O.3       1 LO21        0.0000 
     16 C16        56.5170   41.2990   27.5800 C.3       1 LO21        0.0000 
     17 C17        58.5870   41.6840   25.9260 C.ar      1 LO21        0.0000 
     18 C18        62.1960   41.8840   23.2770 C.ar      1 LO21        0.0000 
     19 C19        62.0300   43.2470   23.4090 C.ar      1 LO21        0.0000 
     20 C20        62.3170   44.1310   22.3850 C.ar      1 LO21        0.0000 
     21 C21        62.7860   43.6820   21.1710 C.ar      1 LO21        0.0000 
     22 C22        62.9540   42.3210   21.0260 C.ar      1 LO21        0.0000 
     23 C23        62.6730   41.4440   22.0570 C.ar      1 LO21        0.0000 
     24 C24        63.0700   44.6560   20.0540 C.3       1 LO21        0.0000 
     25 O25        63.1990   45.9790   20.5740 O.3       1 LO21        0.0000 
     26 C26        64.3590   44.3730   19.3020 C.3       1 LO21        0.0000 
     27 F27        64.2430   43.2940   18.4870 F         1 LO21        0.0000 
     28 F28        64.6870   45.4340   18.5120 F         1 LO21        0.0000 
     29 F29        65.3930   44.1390   20.1520 F         1 LO21        0.0000 
     30 C30        61.8800   44.6250   19.0890 C.3       1 LO21        0.0000 
     31 F31        60.7630   45.1340   19.6780 F         1 LO21        0.0000 
     32 F32        62.1180   45.3420   17.9570 F         1 LO21        0.0000 
     33 F33        61.5660   43.3730   18.6590 F         1 LO21        0.0000 
     34 H          63.5832   37.3899   25.4475 H         1 LO21        0.0000 
     35 H          62.6025   37.1563   23.9903 H         1 LO21        0.0000 
     36 H          63.9711   39.4297   23.3306 H         1 LO21        0.0000 
     37 H          63.8353   39.6223   25.0869 H         1 LO21        0.0000 
     38 H          61.3444   38.9978   24.7430 H         1 LO21        0.0000 
     39 H          61.6458   39.3640   23.0356 H         1 LO21        0.0000 
     40 H          61.3690   42.4429   25.7824 H         1 LO21        0.0000 
     41 H          61.1347   40.7654   26.3032 H         1 LO21        0.0000 
     42 H          60.1255   41.2803   23.0029 H         1 LO21        0.0000 
     43 H          58.7954   41.7625   26.9323 H         1 LO21        0.0000 
     44 H          61.6734   43.6281   24.3180 H         1 LO21        0.0000 
     45 H          62.1756   45.1490   22.5368 H         1 LO21        0.0000 
     46 H          63.3008   41.9433   20.1186 H         1 LO21        0.0000 
     47 H          62.8253   40.4222   21.9097 H         1 LO21        0.0000 
     48 H          65.5582   37.5065   23.9977 H         1 LO21        0.0000 
     49 H          64.8015   36.1074   23.7607 H         1 LO21        0.0000 
     50 H          64.6666   37.2882   22.6773 H         1 LO21        0.0000 
     51 H          55.2372   39.9674   24.4833 H         1 LO21        0.0000 
     52 H          54.9292   41.2547   25.3966 H         1 LO21        0.0000 
     53 H          53.9761   40.9077   24.1486 H         1 LO21        0.0000 
     54 H          56.6816   40.3194   27.4649 H         1 LO21        0.0000 
     55 H          57.3400   41.6878   27.9940 H         1 LO21        0.0000 
     56 H          55.7791   41.3957   28.2480 H         1 LO21        0.0000 
     57 H          63.7764   46.5564   21.1514 H         1 LO21        0.0000 
@<TRIPOS>BOND
     1    2    1 1    
     2   48    1 1    
     3   49    1 1    
     4   50    1 1    
     5    3    2 1    
     6   34    2 1    
     7   35    2 1    
     8    4    3 1    
     9   36    3 1    
    10   37    3 1    
    11    5    4 1    
    12   38    4 1    
    13   39    4 1    
    14    6    5 1    
    15   18    5 1    
    16    7    6 1    
    17   40    6 1    
    18   41    6 1    
    19    8    7 ar   
    20   17    7 ar   
    21    9    8 ar   
    22   42    8 1    
    23   10    9 1    
    24   11    9 ar   
    25   12   11 1    
    26   14   11 ar   
    27   13   12 1    
    28   51   13 1    
    29   52   13 1    
    30   53   13 1    
    31   15   14 1    
    32   17   14 ar   
    33   16   15 1    
    34   54   16 1    
    35   55   16 1    
    36   56   16 1    
    37   43   17 1    
    38   19   18 ar   
    39   23   18 ar   
    40   20   19 ar   
    41   44   19 1    
    42   21   20 ar   
    43   45   20 1    
    44   22   21 ar   
    45   24   21 1    
    46   23   22 ar   
    47   46   22 1    
    48   47   23 1    
    49   25   24 1    
    50   26   24 1    
    51   30   24 1    
    52   57   25 1    
    53   27   26 1    
    54   28   26 1    
    55   29   26 1    
    56   31   30 1    
    57   32   30 1    
    58   33   30 1    
@<TRIPOS>SUBSTRUCTURE
     1 LO21        1 GROUP   
@<TRIPOS>SET

