#    Name: 4k0y_1OA_1_INTS_M
#    Modification time : Tue Mar 25 06:45:02 2014

@<TRIPOS>MOLECULE
4k0y_1OA_1_INTS_M
   50     0     6     0     0
SMALL
NO_CHARGES


@<TRIPOS>ATOM
      1 CA        -68.3470   43.3545    0.9445 C.3       2 GLC5        0.0000 
      2 CA        -69.7770   44.3290    1.9860 C.3       6 GLL5        0.0000 
      3 CA        -66.9170   42.3800   -0.0970 C.3       4 GLP5        0.0000 
      4 CA        -69.3875   47.1190   -1.7005 C.3       2 GLC5        0.0000 
      5 CA        -67.5560   46.9450   -0.7910 C.3       6 GLL5        0.0000 
      6 CA        -71.2190   47.2930   -2.6100 C.3       4 GLP5        0.0000 
      7 CA        -64.8070   51.5350   -1.0155 C.3       2 GLC5        0.0000 
      8 CA        -64.7460   49.7130    0.2990 C.3       6 GLL5        0.0000 
      9 CA        -64.8680   53.3570   -2.3300 C.3       4 GLP5        0.0000 
     10 CA        -65.5625   51.0655   -2.0040 C.3       2 GLC5        0.0000 
     11 CA        -65.0590   49.4160   -0.9960 C.3       6 GLL5        0.0000 
     12 CA        -66.0660   52.7150   -3.0120 C.3       4 GLP5        0.0000 
     13 N         -64.0065   51.3180   -2.3405 N.am      1 SEC2        0.0000 
     14 N         -64.4160   50.0280   -2.0100 N.am      5 SEL2        0.0000 
     15 N         -63.5970   52.6080   -2.6710 N.am      3 SEP2        0.0000 
     16 CA        -67.3270   50.2395    5.7145 C.3       2 GLC5        0.0000 
     17 CA        -65.4390   49.1700    5.1750 C.3       6 GLL5        0.0000 
     18 CA        -69.2150   51.3090    6.2540 C.3       4 GLP5        0.0000 
     19 CA        -61.8525   47.5915    5.5000 C.3       2 GLC5        0.0000 
     20 CA        -63.1580   48.8220    4.4320 C.3       6 GLL5        0.0000 
     21 CA        -60.5470   46.3610    6.5680 C.3       4 GLP5        0.0000 
     22 CA        -70.6680   41.4480    3.8710 C.3       2 GLC5        0.0000 
     23 CA        -70.1660   42.7380    5.2290 C.3       6 GLL5        0.0000 
     24 CA        -71.1700   40.1580    2.5130 C.3       4 GLP5        0.0000 
     25 CA        -69.2500   40.8400    5.6270 C.3       2 GLC5        0.0000 
     26 CA        -68.3340   38.9420    6.0250 C.3       4 GLP5        0.0000 
     27 CA        -68.0062   42.9477    2.9478 C.3       2 GLC5        0.0000 
     28 CA        -70.2560   43.5140    2.9900 C.3       6 GLL5        0.0000 
     29 CA        -66.0420   42.3630    2.2710 C.3       4 GLP5        0.0000 
     30 CA        -70.5219   42.0444    2.6591 C.3       2 GLC5        0.0000 
     31 CA        -70.8596   45.7431    2.1160 C.3       2 GLC5        0.0000 
     32 CA        -72.3420   46.9190    1.8550 C.3       4 GLP5        0.0000 
     33 CA        -67.3025   43.6902    2.7105 C.3       2 GLC5        0.0000 
     34 CA        -68.7380   45.2130    2.2660 C.3       6 GLL5        0.0000 
     35 CA        -68.5735   48.7168   -0.2290 C.3       2 GLC5        0.0000 
     36 CA        -70.0490   50.0390    0.0430 C.3       4 GLP5        0.0000 
     37 CA        -65.6110   46.4668    0.1520 C.3       2 GLC5        0.0000 
     38 CA        -64.1240   45.5390    0.8050 C.3       4 GLP5        0.0000 
     39 CA        -66.5553   50.6433   -0.0238 C.3       2 GLC5        0.0000 
     40 CA        -68.2080   51.7220    0.3010 C.3       4 GLP5        0.0000 
     41 CA        -64.5132   47.5517    0.2283 C.3       2 GLC5        0.0000 
     42 CA        -63.0712   49.4932   -0.6308 C.3       2 GLC5        0.0000 
     43 CA        -61.2400   49.4220   -0.9130 C.3       4 GLP5        0.0000 
     44 CA        -64.2322   47.2957    1.8367 C.3       2 GLC5        0.0000 
     45 CA        -65.0190   49.4020    2.7520 C.3       6 GLL5        0.0000 
     46 CA        -65.4020   50.8475    4.2235 C.3       2 GLC5        0.0000 
     47 CA        -65.3260   52.5400    4.2250 C.3       4 GLP5        0.0000 
     48 CA        -63.6860   50.7077    4.0753 C.3       2 GLC5        0.0000 
     49 CA        -63.6620   48.7030    2.9850 C.3       6 GLL5        0.0000 
     50 CA        -63.9620   52.6530    4.4420 C.3       4 GLP5        0.0000 
@<TRIPOS>BOND
@<TRIPOS>SUBSTRUCTURE
     1 SEC2       13 GROUP        1 X    SEC  0     ROOT SEC X 2
     2 GLC5        1 GROUP        1 X    GLC  0     **** GLC X 6
     3 SEP2       15 GROUP        1 Y    SEP  0     ROOT SEP Y 9
     4 GLP5        3 GROUP        1 Y    GLP  0     **** GLP Y 13
     5 SEL2       14 GROUP        1 Z    SEL  0     ROOT SEL Z 16
     6 GLL5        2 GROUP        1 Z    GLL  0     **** GLL Z 20
@<TRIPOS>SET

