#    Name: 4k0y_1OA_1_ligand
#    Modification time : Tue Mar 25 06:45:02 2014

@<TRIPOS>MOLECULE
4k0y_1OA_1_ligand
   43    46     1     0     0
SMALL
NO_CHARGES


@<TRIPOS>ATOM
      1 C1        -68.1470   45.2320    3.5330 C.ar      1 1OA401      0.0000 
      2 C2        -68.6290   44.4120    4.5350 C.ar      1 1OA401      0.0000 
      3 C3        -69.6850   43.5510    4.2590 C.ar      1 1OA401      0.0000 
      4 C4        -70.2560   43.5140    2.9900 C.ar      1 1OA401      0.0000 
      5 C5        -69.7770   44.3290    1.9860 C.ar      1 1OA401      0.0000 
      6 C6        -68.7380   45.2130    2.2660 C.ar      1 1OA401      0.0000 
      7 N7        -68.1640   46.0390    1.2960 N.am      1 1OA401      0.0000 
      8 C8        -68.4010   46.0360   -0.0370 C.2       1 1OA401      0.0000 
      9 O9        -69.1950   45.3050   -0.6080 O.2       1 1OA401      0.0000 
     10 C10       -67.5560   46.9450   -0.7910 C.2       1 1OA401      0.0000 
     11 C11       -67.4150   47.0330   -2.1900 C.2       1 1OA401      0.0000 
     12 N12       -66.5160   47.9540   -2.4500 N.2       1 1OA401      0.0000 
     13 N13       -66.0100   48.4710   -1.2530 N.pl3     1 1OA401      0.0000 
     14 C14       -66.6400   47.8440   -0.2110 C.2       1 1OA401      0.0000 
     15 N15       -66.3370   48.1430    1.0590 N.2       1 1OA401      0.0000 
     16 C16       -65.4220   49.0610    1.3370 C.2       1 1OA401      0.0000 
     17 C17       -64.7460   49.7130    0.2990 C.2       1 1OA401      0.0000 
     18 C18       -65.0590   49.4160   -0.9960 C.2       1 1OA401      0.0000 
     19 O19       -64.4160   50.0280   -2.0100 O.3       1 1OA401      0.0000 
     20 C20       -65.0190   49.4020    2.7520 C.3       1 1OA401      0.0000 
     21 C21       -66.0150   48.8780    3.7860 C.3       1 1OA401      0.0000 
     22 C22       -65.4390   49.1700    5.1750 C.3       1 1OA401      0.0000 
     23 N23       -64.2090   48.3840    5.3670 N.4       1 1OA401      0.0000 
     24 C24       -63.1580   48.8220    4.4320 C.3       1 1OA401      0.0000 
     25 C25       -63.6620   48.7030    2.9850 C.3       1 1OA401      0.0000 
     26 F26       -70.1660   42.7380    5.2290 F         1 1OA401      0.0000 
     27 H         -67.3518   45.8606    3.7121 H         1 1OA401      0.0000 
     28 H         -68.2155   44.4352    5.4722 H         1 1OA401      0.0000 
     29 H         -71.0423   42.8708    2.8052 H         1 1OA401      0.0000 
     30 H         -70.1764   44.2893    1.0436 H         1 1OA401      0.0000 
     31 H         -67.4454   46.7630    1.6717 H         1 1OA401      0.0000 
     32 H         -67.9160   46.4883   -2.8009 H         1 1OA401      0.0000 
     33 H         -64.0232   50.4065    0.5263 H         1 1OA401      0.0000 
     34 H         -64.8803   50.4425    2.8590 H         1 1OA401      0.0000 
     35 H         -66.1363   47.8168    3.6644 H         1 1OA401      0.0000 
     36 H         -66.9542   49.3887    3.6732 H         1 1OA401      0.0000 
     37 H         -66.1871   48.9058    5.9201 H         1 1OA401      0.0000 
     38 H         -65.2315   50.2362    5.2441 H         1 1OA401      0.0000 
     39 H         -62.2659   48.2038    4.5348 H         1 1OA401      0.0000 
     40 H         -62.8860   49.8619    4.6145 H         1 1OA401      0.0000 
     41 H         -62.9182   49.1426    2.3096 H         1 1OA401      0.0000 
     42 H         -63.7629   47.6419    2.7273 H         1 1OA401      0.0000 
     43 H         -64.3421   49.3338   -2.7260 H         1 1OA401      0.0000 
@<TRIPOS>BOND
     1    2    1 ar   
     2    6    1 ar   
     3   27    1 1    
     4    3    2 ar   
     5   28    2 1    
     6    4    3 ar   
     7   26    3 1    
     8    5    4 ar   
     9   29    4 1    
    10    6    5 ar   
    11   30    5 1    
    12    7    6 1    
    13    8    7 am   
    14   31    7 1    
    15    9    8 2    
    16   10    8 1    
    17   11   10 1    
    18   14   10 2    
    19   12   11 2    
    20   32   11 1    
    21   13   12 1    
    22   14   13 1    
    23   18   13 1    
    24   15   14 1    
    25   16   15 2    
    26   17   16 1    
    27   20   16 1    
    28   18   17 2    
    29   33   17 1    
    30   19   18 1    
    31   43   19 1    
    32   21   20 1    
    33   25   20 1    
    34   34   20 1    
    35   22   21 1    
    36   35   21 1    
    37   36   21 1    
    38   23   22 1    
    39   37   22 1    
    40   38   22 1    
    41   24   23 1    
    42   25   24 1    
    43   39   24 1    
    44   40   24 1    
    45   41   25 1    
    46   42   25 1    
@<TRIPOS>SUBSTRUCTURE
     1 1OA401      1 GROUP   
@<TRIPOS>SET

