#    Name: 3w0g_W07_1_INTS_M
#    Modification time : Tue Mar 25 01:55:10 2014

@<TRIPOS>MOLECULE
3w0g_W07_1_INTS_M
   93     0     9     0     0
SMALL
NO_CHARGES


@<TRIPOS>ATOM
      1 CA         12.8130   30.4525   19.1135 C.3       3 GLC5        0.0000 
      2 CA         14.3120   29.1270   19.6600 C.3       9 GLL5        0.0000 
      3 CA         11.3140   31.7780   18.5670 C.3       6 GLP5        0.0000 
      4 CA         12.4005   28.8420   19.7795 C.3       3 GLC5        0.0000 
      5 CA         10.4890   28.5570   19.8990 C.3       6 GLP5        0.0000 
      6 CA         17.0745   29.9450   17.3985 C.3       3 GLC5        0.0000 
      7 CA         16.2510   30.3870   19.1000 C.3       9 GLL5        0.0000 
      8 CA         17.8980   29.5030   15.6970 C.3       6 GLP5        0.0000 
      9 CA         15.7480   31.8635   17.9620 C.3       3 GLC5        0.0000 
     10 CA         15.2450   33.3400   16.8240 C.3       6 GLP5        0.0000 
     11 CA         17.2705   31.7435   19.7880 C.3       3 GLC5        0.0000 
     12 CA         18.2900   33.1000   20.4760 C.3       6 GLP5        0.0000 
     13 CA         17.6950   23.6000   25.2605 C.3       3 GLC5        0.0000 
     14 CA         16.4670   25.3980   25.4430 C.3       9 GLL5        0.0000 
     15 CA         18.9230   21.8020   25.0780 C.3       6 GLP5        0.0000 
     16 CA         17.7750   26.8080   26.3870 C.3       3 GLC5        0.0000 
     17 CA         19.0830   28.2180   27.3310 C.3       6 GLP5        0.0000 
     18 CA         17.3700   25.0985   27.3430 C.3       3 GLC5        0.0000 
     19 CA         18.2730   24.7990   29.2430 C.3       6 GLP5        0.0000 
     20 CA         13.9890   21.1870   25.7445 C.3       3 GLC5        0.0000 
     21 CA         13.4340   22.9600   26.6870 C.3       9 GLL5        0.0000 
     22 CA         14.5440   19.4140   24.8020 C.3       6 GLP5        0.0000 
     23 CA         13.5395   20.9865   27.5405 C.3       3 GLC5        0.0000 
     24 CA         13.6450   19.0130   28.3940 C.3       6 GLP5        0.0000 
     25 CA         10.2400   23.0480   25.7365 C.3       3 GLC5        0.0000 
     26 CA          9.9790   22.7050   27.9070 C.3       9 GLL5        0.0000 
     27 CA         10.5010   23.3910   23.5660 C.3       6 GLP5        0.0000 
     28 CA          9.2075   24.0400   29.2875 C.3       3 GLC5        0.0000 
     29 CA          8.4360   25.3750   30.6680 C.3       6 GLP5        0.0000 
     30 N          17.9615   30.9550   17.9245 N.am      2 SEC2        0.0000 
     31 N          17.6710   30.3590   18.9600 N.am      8 SEL2        0.0000 
     32 N          18.2520   31.5510   16.8890 N.am      5 SEP2        0.0000 
     33 O          18.8855   30.1060   20.1390 O.2       1 ALC1        0.0000 
     34 O          17.6710   30.3590   18.9600 O.2       7 ALL1        0.0000 
     35 O          20.1000   29.8530   21.3180 O.2       4 ALP1        0.0000 
     36 O          17.8550   31.1895   20.1680 O.2       1 ALC1        0.0000 
     37 O          18.0390   32.0200   21.3760 O.2       4 ALP1        0.0000 
     38 CA         16.4875   28.3995   27.7325 C.3       3 GLC5        0.0000 
     39 CA         15.3990   27.2650   26.7240 C.3       9 GLL5        0.0000 
     40 CA         17.5760   29.5340   28.7410 C.3       6 GLP5        0.0000 
     41 CA         14.7230   27.7320   28.4160 C.3       3 GLC5        0.0000 
     42 CA         14.0470   28.1990   30.1080 C.3       6 GLP5        0.0000 
     43 CA          9.9515   25.7975   26.7025 C.3       3 GLC5        0.0000 
     44 CA         11.7960   24.7370   26.7500 C.3       9 GLL5        0.0000 
     45 CA          8.1070   26.8580   26.6550 C.3       6 GLP5        0.0000 
     46 N          11.2845   19.6290   28.1270 N.am      2 SEC2        0.0000 
     47 N          10.0950   20.3010   28.5520 N.am      8 SEL2        0.0000 
     48 N          12.4740   18.9570   27.7020 N.am      5 SEP2        0.0000 
     49 O          10.8145   20.7280   29.6375 O.2       1 ALC1        0.0000 
     50 O          10.0950   20.3010   28.5520 O.2       7 ALL1        0.0000 
     51 O          11.5340   21.1550   30.7230 O.2       4 ALP1        0.0000 
     52 CA          9.3990   20.8055   24.1630 C.3       3 GLC5        0.0000 
     53 CA          8.8210   20.3710   25.9670 C.3       9 GLL5        0.0000 
     54 CA          9.9770   21.2400   22.3590 C.3       6 GLP5        0.0000 
     55 CA          7.3600   19.1020   24.8245 C.3       3 GLC5        0.0000 
     56 CA          5.8990   17.8330   23.6820 C.3       6 GLP5        0.0000 
     57 CA          9.6485   19.0930   24.8225 C.3       3 GLC5        0.0000 
     58 CA         10.4760   17.8150   23.6780 C.3       6 GLP5        0.0000 
     59 CA          6.4340   23.0390   25.5265 C.3       3 GLC5        0.0000 
     60 CA          7.4770   22.3050   26.6770 C.3       9 GLL5        0.0000 
     61 CA          5.3910   23.7730   24.3760 C.3       6 GLP5        0.0000 
     62 CA          8.9890   22.8480   25.1215 C.3       3 GLC5        0.0000 
     63 CA          7.7200   18.2070   27.9645 C.3       3 GLC5        0.0000 
     64 CA          7.1970   20.0700   27.8080 C.3       9 GLL5        0.0000 
     65 CA          8.2430   16.3440   28.1210 C.3       6 GLP5        0.0000 
     66 CA          5.3695   20.0435   27.4710 C.3       3 GLC5        0.0000 
     67 CA          3.5420   20.0170   27.1340 C.3       6 GLP5        0.0000 
     68 CA         16.1818   27.2460   21.8783 C.3       3 GLC5        0.0000 
     69 CA         14.1170   27.8330   21.8030 C.3       9 GLL5        0.0000 
     70 CA         18.3190   27.3330   21.8100 C.3       6 GLP5        0.0000 
     71 CA         17.5775   28.7525   19.9893 C.3       3 GLC5        0.0000 
     72 CA         19.1210   27.7780   20.5850 C.3       6 GLP5        0.0000 
     73 CA         14.6383   24.6867   22.0217 C.3       3 GLC5        0.0000 
     74 CA         13.9720   26.4850   22.0900 C.3       9 GLL5        0.0000 
     75 CA         15.1310   23.1440   21.3310 C.3       6 GLP5        0.0000 
     76 CA         16.4410   26.8648   22.8225 C.3       3 GLC5        0.0000 
     77 CA         14.3190   25.9740   23.3350 C.3       9 GLL5        0.0000 
     78 CA         12.5424   28.4967   22.3684 C.3       3 GLC5        0.0000 
     79 CA         10.7660   29.0560   22.3670 C.3       6 GLP5        0.0000 
     80 CA         16.5448   27.8918   22.6147 C.3       3 GLC5        0.0000 
     81 CA         14.5930   28.7160   22.7930 C.3       9 GLL5        0.0000 
     82 CA         15.8098   30.2148   24.1008 C.3       3 GLC5        0.0000 
     83 CA         16.8490   31.9790   24.7820 C.3       6 GLP5        0.0000 
     84 CA         14.9764   31.4340   20.1154 C.3       3 GLC5        0.0000 
     85 CA         15.8170   29.0670   19.6870 C.3       9 GLL5        0.0000 
     86 CA         14.2950   33.1260   20.8440 C.3       6 GLP5        0.0000 
     87 CA         11.6412   23.2812   25.1852 C.3       3 GLC5        0.0000 
     88 CA         10.6713   22.1807   29.7380 C.3       3 GLC5        0.0000 
     89 CA         11.7410   22.3030   31.4060 C.3       6 GLP5        0.0000 
     90 CA         11.3902   24.2945   25.0547 C.3       3 GLC5        0.0000 
     91 CA          6.1325   21.8621   28.2918 C.3       3 GLC5        0.0000 
     92 CA          8.1770   21.0440   27.1730 C.3       9 GLL5        0.0000 
     93 CA          4.7530   22.8520   29.2170 C.3       6 GLP5        0.0000 
@<TRIPOS>BOND
@<TRIPOS>SUBSTRUCTURE
     1 ALC1       33 GROUP        1 X    ALC  0     ROOT ALC X 1
     2 SEC2       30 GROUP        1 X    SEC  0     **** SEC X 2
     3 GLC5        1 GROUP        1 X    GLC  0     **** GLC X 6
     4 ALP1       35 GROUP        1 Y    ALP  0     ROOT ALP Y 8
     5 SEP2       32 GROUP        1 Y    SEP  0     **** SEP Y 9
     6 GLP5        3 GROUP        1 Y    GLP  0     **** GLP Y 13
     7 ALL1       34 GROUP        1 Z    ALL  0     ROOT ALL Z 15
     8 SEL2       31 GROUP        1 Z    SEL  0     **** SEL Z 16
     9 GLL5        2 GROUP        1 Z    GLL  0     **** GLL Z 20
@<TRIPOS>SET

