#    Name: 3w0g_W07_1_ligand
#    Modification time : Tue Mar 25 01:55:10 2014

@<TRIPOS>MOLECULE
3w0g_W07_1_ligand
   63    64     1     0     0
SMALL
NO_CHARGES


@<TRIPOS>ATOM
      1 C4         14.1170   27.8330   21.8030 C.ar      1 W07501      0.0000 
      2 C3         14.3120   29.1270   19.6600 C.3       1 W07501      0.0000 
      3 C2         15.8170   29.0670   19.6870 C.3       1 W07501      0.0000 
      4 C5         13.9720   26.4850   22.0900 C.ar      1 W07501      0.0000 
      5 C6         14.3190   25.9740   23.3350 C.ar      1 W07501      0.0000 
      6 C10        15.1700   26.1930   25.6650 C.3       1 W07501      0.0000 
      7 C9         14.5930   28.7160   22.7930 C.ar      1 W07501      0.0000 
      8 C8         14.9480   28.1850   24.0460 C.ar      1 W07501      0.0000 
      9 C1         16.2510   30.3870   19.1000 C.3       1 W07501      0.0000 
     10 C11        16.4670   25.3980   25.4430 C.3       1 W07501      0.0000 
     11 C13        14.0780   25.2350   26.1040 C.ar      1 W07501      0.0000 
     12 C16        12.1290   23.3830   26.9220 C.ar      1 W07501      0.0000 
     13 C17        13.4340   22.9600   26.6870 C.ar      1 W07501      0.0000 
     14 C18        14.3920   23.8910   26.2870 C.ar      1 W07501      0.0000 
     15 C19         9.9790   22.7050   27.9070 C.3       1 W07501      0.0000 
     16 C20         9.2240   21.4120   28.2330 C.3       1 W07501      0.0000 
     17 C21         8.1770   21.0440   27.1730 C.3       1 W07501      0.0000 
     18 O01        17.6710   30.3590   18.9600 O.3       1 W07501      0.0000 
     19 O02        16.2960   28.0380   18.8240 O.3       1 W07501      0.0000 
     20 O03        13.7200   28.1860   20.5350 O.3       1 W07501      0.0000 
     21 C7         14.8070   26.8190   24.3350 C.ar      1 W07501      0.0000 
     22 C12        15.3990   27.2650   26.7240 C.3       1 W07501      0.0000 
     23 C14        12.7630   25.6590   26.3370 C.ar      1 W07501      0.0000 
     24 C15        11.7960   24.7370   26.7500 C.ar      1 W07501      0.0000 
     25 O04        11.2250   22.4150   27.3050 O.3       1 W07501      0.0000 
     26 O05        10.0950   20.3010   28.5520 O.3       1 W07501      0.0000 
     27 C22         8.8210   20.3710   25.9670 C.3       1 W07501      0.0000 
     28 C23         7.4770   22.3050   26.6770 C.3       1 W07501      0.0000 
     29 C24         7.1970   20.0700   27.8080 C.3       1 W07501      0.0000 
     30 H          13.9853   28.9666   18.6105 H         1 W07501      0.0000 
     31 H          14.0096   30.1649   19.9156 H         1 W07501      0.0000 
     32 H          16.1594   28.9955   20.6691 H         1 W07501      0.0000 
     33 H          13.5983   25.8451   21.3644 H         1 W07501      0.0000 
     34 H          14.2170   24.9667   23.5249 H         1 W07501      0.0000 
     35 H          14.6766   29.7057   22.6059 H         1 W07501      0.0000 
     36 H          15.3231   28.8196   24.7734 H         1 W07501      0.0000 
     37 H          15.9275   31.1845   19.7699 H         1 W07501      0.0000 
     38 H          15.7535   30.5161   18.1381 H         1 W07501      0.0000 
     39 H          13.6889   21.9768   26.8061 H         1 W07501      0.0000 
     40 H          15.3679   23.5716   26.1210 H         1 W07501      0.0000 
     41 H          10.0942   23.2638   28.8487 H         1 W07501      0.0000 
     42 H           9.3315   23.3060   27.2498 H         1 W07501      0.0000 
     43 H           8.6188   21.6486   29.1702 H         1 W07501      0.0000 
     44 H          12.5115   26.6433   26.2047 H         1 W07501      0.0000 
     45 H          10.8332   25.0497   26.9299 H         1 W07501      0.0000 
     46 H          17.2200   25.9890   25.1537 H         1 W07501      0.0000 
     47 H          16.7640   24.9316   26.2762 H         1 W07501      0.0000 
     48 H          16.3570   24.6972   24.7382 H         1 W07501      0.0000 
     49 H          15.6730   26.8688   27.6003 H         1 W07501      0.0000 
     50 H          16.1179   27.9058   26.4545 H         1 W07501      0.0000 
     51 H          14.5735   27.8041   26.8913 H         1 W07501      0.0000 
     52 H           9.4939   20.9647   25.5257 H         1 W07501      0.0000 
     53 H           9.2957   19.5284   26.2214 H         1 W07501      0.0000 
     54 H           8.1443   20.1278   25.2721 H         1 W07501      0.0000 
     55 H           8.1210   22.9497   26.2652 H         1 W07501      0.0000 
     56 H           6.7861   22.0982   25.9843 H         1 W07501      0.0000 
     57 H           7.0126   22.7883   27.4191 H         1 W07501      0.0000 
     58 H           7.6519   19.2359   28.1199 H         1 W07501      0.0000 
     59 H           6.7392   20.4688   28.6026 H         1 W07501      0.0000 
     60 H           6.4819   19.7917   27.1668 H         1 W07501      0.0000 
     61 H          18.0185   30.8728   19.7444 H         1 W07501      0.0000 
     62 H          16.9929   28.4786   18.2580 H         1 W07501      0.0000 
     63 H          10.8010   20.6878   29.1451 H         1 W07501      0.0000 
@<TRIPOS>BOND
     1    4    1 ar   
     2    7    1 ar   
     3   20    1 1    
     4    3    2 1    
     5   20    2 1    
     6   30    2 1    
     7   31    2 1    
     8    9    3 1    
     9   19    3 1    
    10   32    3 1    
    11    5    4 ar   
    12   33    4 1    
    13   21    5 ar   
    14   34    5 1    
    15   10    6 1    
    16   11    6 1    
    17   21    6 1    
    18   22    6 1    
    19    8    7 ar   
    20   35    7 1    
    21   21    8 ar   
    22   36    8 1    
    23   18    9 1    
    24   37    9 1    
    25   38    9 1    
    26   46   10 1    
    27   47   10 1    
    28   48   10 1    
    29   14   11 ar   
    30   23   11 ar   
    31   13   12 ar   
    32   24   12 ar   
    33   25   12 1    
    34   14   13 ar   
    35   39   13 1    
    36   40   14 1    
    37   16   15 1    
    38   25   15 1    
    39   41   15 1    
    40   42   15 1    
    41   17   16 1    
    42   26   16 1    
    43   43   16 1    
    44   27   17 1    
    45   28   17 1    
    46   29   17 1    
    47   61   18 1    
    48   62   19 1    
    49   49   22 1    
    50   50   22 1    
    51   51   22 1    
    52   24   23 ar   
    53   44   23 1    
    54   45   24 1    
    55   63   26 1    
    56   52   27 1    
    57   53   27 1    
    58   54   27 1    
    59   55   28 1    
    60   56   28 1    
    61   57   28 1    
    62   58   29 1    
    63   59   29 1    
    64   60   29 1    
@<TRIPOS>SUBSTRUCTURE
     1 W07501      1 GROUP   
@<TRIPOS>SET

