#    Name: 3tt0_07J_1_INTS_M
#    Modification time : Mon Mar 24 20:54:03 2014

@<TRIPOS>MOLECULE
3tt0_07J_1_INTS_M
   89     0    12     0     0
SMALL
NO_CHARGES


@<TRIPOS>ATOM
      1 CA        -13.1380    7.3410   13.9765 C.3       4 GLC5        0.0000 
      2 CA        -11.9720    8.0680   13.0810 C.3      12 GLL5        0.0000 
      3 CA        -14.3040    6.6140   14.8720 C.3       8 GLP5        0.0000 
      4 CA        -12.7955    9.1450   14.6780 C.3       4 GLC5        0.0000 
      5 CA        -13.6190   10.2220   16.2750 C.3       8 GLP5        0.0000 
      6 CA        -10.7735    6.6790   13.1715 C.3       4 GLC5        0.0000 
      7 CA         -9.5750    5.2900   13.2620 C.3       8 GLP5        0.0000 
      8 CA        -11.5030    9.7625   13.3990 C.3       4 GLC5        0.0000 
      9 CA        -11.0340   11.4570   13.7170 C.3       8 GLP5        0.0000 
     10 CA        -10.3555    6.9960   10.8705 C.3       4 GLC5        0.0000 
     11 CA        -10.7150    9.0150   10.9080 C.3      12 GLL5        0.0000 
     12 CA         -9.9960    4.9770   10.8330 C.3       8 GLP5        0.0000 
     13 CA         -9.2720    6.6360   10.6865 C.3       4 GLC5        0.0000 
     14 CA         -8.5480    8.2950   10.5400 C.3      12 GLL5        0.0000 
     15 CA         -7.8750    8.0630    8.5490 C.3       4 GLC5        0.0000 
     16 CA         -7.2020    7.8310    6.5580 C.3       8 GLP5        0.0000 
     17 CA         -7.4600    9.5630   10.0635 C.3       4 GLC5        0.0000 
     18 CA         -6.3720   10.8310    9.5870 C.3       8 GLP5        0.0000 
     19 CA         -7.1355    8.5505   11.6680 C.3       4 GLC5        0.0000 
     20 CA         -5.7230    8.8060   12.7960 C.3       8 GLP5        0.0000 
     21 CA         -8.6625   10.1195   11.6475 C.3       4 GLC5        0.0000 
     22 CA         -8.7770   11.9440   12.7550 C.3       8 GLP5        0.0000 
     23 CA         -8.9410   11.0140    9.3820 C.3       4 GLC5        0.0000 
     24 CA        -10.6310    9.7380    9.7320 C.3      12 GLL5        0.0000 
     25 CA         -7.2510   12.2900    9.0320 C.3       8 GLP5        0.0000 
     26 CA         -9.7040   10.8410   11.2435 C.3       4 GLC5        0.0000 
     27 N         -12.7380   11.1880    6.8635 N.am      2 SEC2        0.0000 
     28 N         -11.7250   11.2120    8.1100 N.am     10 SEL2        0.0000 
     29 N         -13.7510   11.1640    5.6170 N.am      6 SEP2        0.0000 
     30 CA         -8.8680   11.6855    8.2255 C.3       4 GLC5        0.0000 
     31 CA        -10.4850   11.0810    7.4190 C.3      12 GLL5        0.0000 
     32 CA        -11.8285   10.6060    6.0865 C.3       4 GLC5        0.0000 
     33 CA        -13.1720   10.1310    4.7540 C.3       8 GLP5        0.0000 
     34 CA        -10.5515   13.1110    6.7345 C.3       4 GLC5        0.0000 
     35 CA        -10.6180   15.1410    6.0500 C.3       8 GLP5        0.0000 
     36 CA        -11.9670   10.9350   11.8575 C.3       4 GLC5        0.0000 
     37 CA        -12.9000   10.4130    9.9980 C.3      12 GLL5        0.0000 
     38 CA        -14.3875   13.0740    9.7605 C.3       4 GLC5        0.0000 
     39 CA        -14.2670   11.2940    9.4520 C.3      12 GLL5        0.0000 
     40 CA        -14.5080   14.8540   10.0690 C.3       8 GLP5        0.0000 
     41 CA        -15.9080   11.9750   10.0185 C.3       4 GLC5        0.0000 
     42 CA        -17.5490   12.6560   10.5850 C.3       8 GLP5        0.0000 
     43 CA        -15.2680   11.7985    8.2850 C.3       4 GLC5        0.0000 
     44 CA        -16.2690   12.3030    7.1180 C.3       8 GLP5        0.0000 
     45 CA        -17.7160    7.1505   14.3920 C.3       4 GLC5        0.0000 
     46 CA        -17.2270    7.6110   12.3330 C.3      12 GLL5        0.0000 
     47 CA        -18.2050    6.6900   16.4510 C.3       8 GLP5        0.0000 
     48 CA        -15.7655    7.1125   13.6025 C.3       4 GLC5        0.0000 
     49 CA        -15.4940    8.2345   14.0165 C.3       4 GLC5        0.0000 
     50 CA        -16.6840    9.8550   13.1610 C.3      12 GLL5        0.0000 
     51 CA        -15.1515   10.0385   14.7180 C.3       4 GLC5        0.0000 
     52 CA        -18.6935   13.3325   14.0015 C.3       4 GLC5        0.0000 
     53 CA        -18.4230   11.1230   14.1770 C.3      12 GLL5        0.0000 
     54 CA        -18.9640   15.5420   13.8260 C.3       8 GLP5        0.0000 
     55 CA        -19.2065   11.6335   12.4395 C.3       4 GLC5        0.0000 
     56 CA        -19.9900   12.1440   10.7020 C.3       8 GLP5        0.0000 
     57 N         -17.5410   13.4560   15.1320 N.am      2 SEC2        0.0000 
     58 N         -17.5340   12.0480   14.5600 N.am     10 SEL2        0.0000 
     59 N         -17.5480   14.8640   15.7040 N.am      6 SEP2        0.0000 
     60 CA        -14.9405   11.0175   15.2470 C.3       4 GLC5        0.0000 
     61 CA        -16.2620   11.8130   14.2190 C.3      12 GLL5        0.0000 
     62 CA        -15.8665   13.1635   15.5555 C.3       4 GLC5        0.0000 
     63 CA        -15.4710   14.5140   16.8920 C.3       8 GLP5        0.0000 
     64 CA        -16.9055   12.2345   12.4020 C.3       4 GLC5        0.0000 
     65 O         -20.0510   12.5455   15.1005 O.2       1 ALC1        0.0000 
     66 O         -19.7720   11.3540   14.5090 O.2       9 ALL1        0.0000 
     67 O         -20.3300   13.7370   15.6920 O.2       5 ALP1        0.0000 
     68 OD1       -27.0660    7.7725   13.1555 O.co2     3 ASC3        0.0000 
     69 OD1       -26.6260    6.7980   14.5730 O.co2    11 ASL3        0.0000 
     70 OD1       -27.5060    8.7470   11.7380 O.co2     7 ASP3        0.0000 
     71 CA        -11.3072   10.3155   12.4336 C.3       4 GLC5        0.0000 
     72 CA        -12.9940    9.6860   11.1660 C.3      12 GLL5        0.0000 
     73 CA        -12.3122   12.1541   10.4910 C.3       4 GLC5        0.0000 
     74 CA        -12.2890   14.0560   11.0510 C.3       8 GLP5        0.0000 
     75 CA        -17.4515   11.2948   11.9480 C.3       4 GLC5        0.0000 
     76 CA        -18.0240   10.0120   13.4610 C.3      12 GLL5        0.0000 
     77 CA        -17.4402    9.6056   15.5825 C.3       4 GLC5        0.0000 
     78 CA        -16.9920    8.6830   17.4210 C.3       8 GLP5        0.0000 
     79 CA        -22.3205   11.3675   13.6205 C.3       4 GLC5        0.0000 
     80 CA        -20.8340   10.4330   14.5710 C.3      12 GLL5        0.0000 
     81 CA        -23.5810   12.6430   13.2260 C.3       8 GLP5        0.0000 
     82 CA        -20.5250   11.1180   12.3585 C.3       4 GLC5        0.0000 
     83 CA        -21.2860    9.7510   13.4590 C.3      12 GLL5        0.0000 
     84 CA        -23.1260   10.7078   13.6932 C.3       4 GLC5        0.0000 
     85 CA        -22.3480    8.8740   13.5560 C.3      12 GLL5        0.0000 
     86 CA        -20.6046    9.0403   16.8130 C.3       4 GLC5        0.0000 
     87 CA        -19.3560    8.2270   18.1050 C.3       8 GLP5        0.0000 
     88 CA        -22.7982   11.2242   14.5240 C.3       4 GLC5        0.0000 
     89 CA        -21.4830   10.2410   15.7750 C.3      12 GLL5        0.0000 
@<TRIPOS>BOND
@<TRIPOS>SUBSTRUCTURE
     1 ALC1       65 GROUP        1 X    ALC  0     ROOT ALC X 1
     2 SEC2       27 GROUP        1 X    SEC  0     **** SEC X 2
     3 ASC3       68 GROUP        1 X    ASC  0     **** ASC X 3
     4 GLC5        1 GROUP        1 X    GLC  0     **** GLC X 6
     5 ALP1       67 GROUP        1 Y    ALP  0     ROOT ALP Y 8
     6 SEP2       29 GROUP        1 Y    SEP  0     **** SEP Y 9
     7 ASP3       70 GROUP        1 Y    ASP  0     **** ASP Y 10
     8 GLP5        3 GROUP        1 Y    GLP  0     **** GLP Y 13
     9 ALL1       66 GROUP        1 Z    ALL  0     ROOT ALL Z 15
    10 SEL2       28 GROUP        1 Z    SEL  0     **** SEL Z 16
    11 ASL3       69 GROUP        1 Z    ASL  0     **** ASL Z 17
    12 GLL5        2 GROUP        1 Z    GLL  0     **** GLL Z 20
@<TRIPOS>SET

