#    Name: 3tt0_07J_1_ligand
#    Modification time : Mon Mar 24 20:54:03 2014

@<TRIPOS>MOLECULE
3tt0_07J_1_ligand
   70    73     1     0     0
SMALL
NO_CHARGES


@<TRIPOS>ATOM
      1 O1        -14.7870    7.6160   11.0550 O.2       1 07J1        0.0000 
      2 C2        -15.0830    8.6010   11.7220 C.2       1 07J1        0.0000 
      3 N3        -14.2230    9.6760   11.8470 N.am      1 07J1        0.0000 
      4 C4        -12.9940    9.6860   11.1660 C.ar      1 07J1        0.0000 
      5 C5        -11.8980    8.9800   11.6190 C.ar      1 07J1        0.0000 
      6 CL1       -11.9720    8.0680   13.0810 Cl        1 07J1        0.0000 
      7 C7        -10.7150    9.0150   10.9080 C.ar      1 07J1        0.0000 
      8 O8         -9.6610    8.2710   11.4250 O.3       1 07J1        0.0000 
      9 C9         -8.5480    8.2950   10.5400 C.3       1 07J1        0.0000 
     10 C10       -10.6310    9.7380    9.7320 C.ar      1 07J1        0.0000 
     11 C11       -11.7240   10.4550    9.2800 C.ar      1 07J1        0.0000 
     12 O12       -11.7250   11.2120    8.1100 O.3       1 07J1        0.0000 
     13 C13       -10.4850   11.0810    7.4190 C.3       1 07J1        0.0000 
     14 C14       -12.9000   10.4130    9.9980 C.ar      1 07J1        0.0000 
     15 CL2       -14.2670   11.2940    9.4520 Cl        1 07J1        0.0000 
     16 N16       -16.2870    8.7110   12.4160 N.am      1 07J1        0.0000 
     17 C17       -17.2270    7.6110   12.3330 C.3       1 07J1        0.0000 
     18 C18       -16.6840    9.8550   13.1610 C.ar      1 07J1        0.0000 
     19 C19       -18.0240   10.0120   13.4610 C.ar      1 07J1        0.0000 
     20 C20       -18.4230   11.1230   14.1770 C.ar      1 07J1        0.0000 
     21 N21       -17.5340   12.0480   14.5600 N.ar      1 07J1        0.0000 
     22 C22       -16.2620   11.8130   14.2190 C.ar      1 07J1        0.0000 
     23 N23       -15.7790   10.7660   13.5430 N.ar      1 07J1        0.0000 
     24 N24       -19.7720   11.3540   14.5090 N.pl3     1 07J1        0.0000 
     25 C25       -20.8340   10.4330   14.5710 C.ar      1 07J1        0.0000 
     26 C26       -21.2860    9.7510   13.4590 C.ar      1 07J1        0.0000 
     27 C27       -22.3480    8.8740   13.5560 C.ar      1 07J1        0.0000 
     28 C28       -22.9940    8.6710   14.7650 C.ar      1 07J1        0.0000 
     29 C29       -22.5480    9.3700   15.8690 C.ar      1 07J1        0.0000 
     30 C30       -21.4830   10.2410   15.7750 C.ar      1 07J1        0.0000 
     31 N31       -24.0890    7.7890   14.9220 N.3       1 07J1        0.0000 
     32 C32       -25.2060    8.4450   15.6040 C.3       1 07J1        0.0000 
     33 C33       -26.2870    7.4190   15.8840 C.3       1 07J1        0.0000 
     34 N34       -26.6260    6.7980   14.5730 N.4       1 07J1        0.0000 
     35 C35       -27.8920    6.0240   14.6160 C.3       1 07J1        0.0000 
     36 C36       -29.0250    7.0140   14.7620 C.3       1 07J1        0.0000 
     37 C37       -25.4980    6.0430   13.9490 C.3       1 07J1        0.0000 
     38 C38       -24.3750    7.0340   13.7000 C.3       1 07J1        0.0000 
     39 H         -14.4753   10.4792   12.4404 H         1 07J1        0.0000 
     40 H          -9.7528    9.7426    9.1916 H         1 07J1        0.0000 
     41 H         -18.7097    9.3148   13.1567 H         1 07J1        0.0000 
     42 H         -15.5292   12.5690   14.5312 H         1 07J1        0.0000 
     43 H         -20.0266   12.3819   14.7496 H         1 07J1        0.0000 
     44 H         -20.8243    9.8985   12.5436 H         1 07J1        0.0000 
     45 H         -22.6679    8.3596   12.7147 H         1 07J1        0.0000 
     46 H         -23.0221    9.2373   16.7836 H         1 07J1        0.0000 
     47 H         -21.1656   10.7572   16.6158 H         1 07J1        0.0000 
     48 H         -25.6276    9.2359   14.9837 H         1 07J1        0.0000 
     49 H         -24.8815    8.8774   16.5505 H         1 07J1        0.0000 
     50 H         -27.1480    7.9130   16.2992 H         1 07J1        0.0000 
     51 H         -25.9062    6.6768   16.5637 H         1 07J1        0.0000 
     52 H         -26.8329    7.6793   13.8624 H         1 07J1        0.0000 
     53 H         -27.8939    5.3518   15.4633 H         1 07J1        0.0000 
     54 H         -28.0227    5.4645   13.6996 H         1 07J1        0.0000 
     55 H         -25.8098    5.6144   13.0092 H         1 07J1        0.0000 
     56 H         -25.1500    5.2709   14.6175 H         1 07J1        0.0000 
     57 H         -23.4900    6.4814   13.3707 H         1 07J1        0.0000 
     58 H         -24.6773    7.7065   12.8917 H         1 07J1        0.0000 
     59 H          -8.2169    9.2258   10.3848 H         1 07J1        0.0000 
     60 H          -7.7782    7.7658   10.8969 H         1 07J1        0.0000 
     61 H          -8.7769    7.9123    9.6449 H         1 07J1        0.0000 
     62 H          -9.7150   11.3934    7.9753 H         1 07J1        0.0000 
     63 H         -10.2985   10.1313    7.1674 H         1 07J1        0.0000 
     64 H         -10.4723   11.6159    6.5742 H         1 07J1        0.0000 
     65 H         -16.8344    6.7599   12.6815 H         1 07J1        0.0000 
     66 H         -18.0559    7.7900   12.8630 H         1 07J1        0.0000 
     67 H         -17.5134    7.4375   11.3907 H         1 07J1        0.0000 
     68 H         -28.9412    7.5534   15.5999 H         1 07J1        0.0000 
     69 H         -29.0543    7.6600   13.9993 H         1 07J1        0.0000 
     70 H         -29.9145    6.5583   14.7945 H         1 07J1        0.0000 
@<TRIPOS>BOND
     1    2    1 2    
     2    3    2 am   
     3   16    2 am   
     4    4    3 1    
     5   39    3 1    
     6    5    4 ar   
     7   14    4 ar   
     8    6    5 1    
     9    7    5 ar   
    10    8    7 1    
    11   10    7 ar   
    12    9    8 1    
    13   59    9 1    
    14   60    9 1    
    15   61    9 1    
    16   11   10 ar   
    17   40   10 1    
    18   12   11 1    
    19   14   11 ar   
    20   13   12 1    
    21   62   13 1    
    22   63   13 1    
    23   64   13 1    
    24   15   14 1    
    25   17   16 1    
    26   18   16 1    
    27   65   17 1    
    28   66   17 1    
    29   67   17 1    
    30   19   18 ar   
    31   23   18 ar   
    32   20   19 ar   
    33   41   19 1    
    34   21   20 ar   
    35   24   20 1    
    36   22   21 ar   
    37   23   22 ar   
    38   42   22 1    
    39   25   24 1    
    40   43   24 1    
    41   26   25 ar   
    42   30   25 ar   
    43   27   26 ar   
    44   44   26 1    
    45   28   27 ar   
    46   45   27 1    
    47   29   28 ar   
    48   31   28 1    
    49   30   29 ar   
    50   46   29 1    
    51   47   30 1    
    52   32   31 1    
    53   38   31 1    
    54   33   32 1    
    55   48   32 1    
    56   49   32 1    
    57   34   33 1    
    58   50   33 1    
    59   51   33 1    
    60   35   34 1    
    61   37   34 1    
    62   52   34 1    
    63   36   35 1    
    64   53   35 1    
    65   54   35 1    
    66   68   36 1    
    67   69   36 1    
    68   70   36 1    
    69   38   37 1    
    70   55   37 1    
    71   56   37 1    
    72   57   38 1    
    73   58   38 1    
@<TRIPOS>SUBSTRUCTURE
     1 07J1        1 GROUP   
@<TRIPOS>SET

