#    Name: 4c3y_ANB_5_INTS_M
#    Modification time : Tue Mar 25 08:54:56 2014

@<TRIPOS>MOLECULE
4c3y_ANB_5_INTS_M
   47     0     6     0     0
SMALL
NO_CHARGES


@<TRIPOS>ATOM
      1 CA       -113.8725   20.4665   38.3195 C.3       2 GLC5        0.0000 
      2 CA       -113.1420   20.2090   40.3520 C.3       6 GLL5        0.0000 
      3 CA       -114.6030   20.7240   36.2870 C.3       4 GLP5        0.0000 
      4 CA       -113.9555   16.7725   42.9585 C.3       2 GLC5        0.0000 
      5 CA       -113.8180   18.7000   42.3170 C.3       6 GLL5        0.0000 
      6 CA       -114.0930   14.8450   43.6000 C.3       4 GLP5        0.0000 
      7 CA       -114.2300   18.3890   44.4485 C.3       2 GLC5        0.0000 
      8 CA       -114.6420   18.0780   46.5800 C.3       4 GLP5        0.0000 
      9 CA       -114.7260   19.5830   38.1210 C.3       2 GLC5        0.0000 
     10 CA       -114.8490   18.4420   39.9550 C.3       6 GLL5        0.0000 
     11 CA       -116.2875   17.4110   40.5960 C.3       2 GLC5        0.0000 
     12 CA       -117.7260   16.3800   41.2370 C.3       4 GLP5        0.0000 
     13 CA       -113.8550   15.5550   39.4860 C.3       2 GLC5        0.0000 
     14 CA       -113.7770   17.5130   39.3980 C.3       6 GLL5        0.0000 
     15 CA       -113.9330   13.5970   39.5740 C.3       4 GLP5        0.0000 
     16 CA       -114.5575   16.6680   37.6545 C.3       2 GLC5        0.0000 
     17 CA       -115.3380   15.8230   35.9110 C.3       4 GLP5        0.0000 
     18 CA       -113.5150   19.4940   37.6350 C.3       2 GLC5        0.0000 
     19 CA       -112.4270   18.2640   38.9830 C.3       6 GLL5        0.0000 
     20 N        -108.7155   14.8635   35.2080 N.am      1 SEC2        0.0000 
     21 N        -108.6420   16.1030   35.6230 N.am      5 SEL2        0.0000 
     22 N        -108.7890   13.6240   34.7930 N.am      3 SEP2        0.0000 
     23 N        -107.5935   16.9725   35.0585 N.am      1 SEC2        0.0000 
     24 N        -106.5450   17.8420   34.4940 N.am      3 SEP2        0.0000 
     25 CA       -111.4435   13.7315   36.4655 C.3       2 GLC5        0.0000 
     26 CA       -110.6340   15.7920   36.7880 C.3       6 GLL5        0.0000 
     27 CA       -112.2530   11.6710   36.1430 C.3       4 GLP5        0.0000 
     28 CA       -109.7210   17.2985   41.1625 C.3       2 GLC5        0.0000 
     29 CA       -110.9050   16.4400   39.8910 C.3       6 GLL5        0.0000 
     30 CA       -108.5370   18.1570   42.4340 C.3       4 GLP5        0.0000 
     31 CA       -112.4190   15.0185   39.7325 C.3       2 GLC5        0.0000 
     32 CA       -111.2875   15.4060   41.5650 C.3       2 GLC5        0.0000 
     33 CA       -111.6700   14.3720   43.2390 C.3       4 GLP5        0.0000 
     34 CA       -109.8430   14.8760   40.0415 C.3       2 GLC5        0.0000 
     35 CA       -108.7810   13.3120   40.1920 C.3       4 GLP5        0.0000 
     36 CA       -109.6410   20.4597   37.6380 C.3       2 GLC5        0.0000 
     37 CA       -110.7680   20.1020   39.5200 C.3       6 GLL5        0.0000 
     38 CA       -109.0890   21.2820   35.9850 C.3       4 GLP5        0.0000 
     39 CA       -109.7710   19.4352   41.0083 C.3       2 GLC5        0.0000 
     40 CA       -109.6180   19.1730   39.0620 C.3       6 GLL5        0.0000 
     41 CA       -109.0500   19.4370   42.5900 C.3       4 GLP5        0.0000 
     42 CA       -109.3522   19.5505   36.8970 C.3       2 GLC5        0.0000 
     43 CA       -109.1750   17.5950   37.3080 C.3       6 GLL5        0.0000 
     44 CA       -107.7375   18.4007   37.8925 C.3       2 GLC5        0.0000 
     45 CA       -105.9690   18.7000   37.7880 C.3       4 GLP5        0.0000 
     46 CA       -111.5743   15.9458   35.3470 C.3       2 GLC5        0.0000 
     47 CA       -112.0580   15.8640   33.4240 C.3       4 GLP5        0.0000 
@<TRIPOS>BOND
@<TRIPOS>SUBSTRUCTURE
     1 SEC2       20 GROUP        1 X    SEC  0     ROOT SEC X 2
     2 GLC5        1 GROUP        1 X    GLC  0     **** GLC X 6
     3 SEP2       22 GROUP        1 Y    SEP  0     ROOT SEP Y 9
     4 GLP5        3 GROUP        1 Y    GLP  0     **** GLP Y 13
     5 SEL2       21 GROUP        1 Z    SEL  0     ROOT SEL Z 16
     6 GLL5        2 GROUP        1 Z    GLL  0     **** GLL Z 20
@<TRIPOS>SET

