#    Name: 4c3y_ANB_5_ligand
#    Modification time : Tue Mar 25 08:54:57 2014

@<TRIPOS>MOLECULE
4c3y_ANB_5_ligand
   45    48     1     0     0
SMALL
NO_CHARGES


@<TRIPOS>ATOM
      1 O2       -116.2980   20.5180   41.0430 O.2       1 ANB601      0.0000 
      2 C17      -115.1010   20.4960   41.3210 C.2       1 ANB601      0.0000 
      3 C16      -114.3660   21.5860   41.8730 C.3       1 ANB601      0.0000 
      4 C15      -112.9170   21.3960   41.3400 C.3       1 ANB601      0.0000 
      5 C14      -113.1420   20.2090   40.3520 C.3       1 ANB601      0.0000 
      6 C13      -114.2560   19.4220   41.0180 C.3       1 ANB601      0.0000 
      7 C18      -113.8180   18.7000   42.3170 C.3       1 ANB601      0.0000 
      8 C12      -114.8490   18.4420   39.9550 C.3       1 ANB601      0.0000 
      9 C11      -113.7770   17.5130   39.3980 C.3       1 ANB601      0.0000 
     10 C9       -112.4270   18.2640   38.9830 C.3       1 ANB601      0.0000 
     11 C8       -111.9640   19.2860   40.0620 C.3       1 ANB601      0.0000 
     12 C7       -110.7680   20.1020   39.5200 C.3       1 ANB601      0.0000 
     13 C6       -109.6180   19.1730   39.0620 C.3       1 ANB601      0.0000 
     14 C5       -110.0560   18.0430   38.3100 C.2       1 ANB601      0.0000 
     15 C4       -109.1750   17.5950   37.3080 C.2       1 ANB601      0.0000 
     16 C3       -109.4390   16.4800   36.5060 C.2       1 ANB601      0.0000 
     17 O1       -108.6420   16.1030   35.6230 O.2       1 ANB601      0.0000 
     18 C2       -110.6340   15.7920   36.7880 C.2       1 ANB601      0.0000 
     19 C1       -111.5470   16.2630   37.7520 C.2       1 ANB601      0.0000 
     20 C10      -111.2480   17.2990   38.6630 C.3       1 ANB601      0.0000 
     21 C19      -110.9050   16.4400   39.8910 C.3       1 ANB601      0.0000 
     22 H        -114.3211   21.5561   42.9454 H         1 ANB601      0.0000 
     23 H        -114.7144   22.5404   41.5254 H         1 ANB601      0.0000 
     24 H        -112.2952   21.0899   42.1150 H         1 ANB601      0.0000 
     25 H        -112.6251   22.2402   40.8081 H         1 ANB601      0.0000 
     26 H        -113.5490   20.6140   39.4379 H         1 ANB601      0.0000 
     27 H        -115.2814   19.0318   39.1499 H         1 ANB601      0.0000 
     28 H        -115.6343   17.8576   40.4293 H         1 ANB601      0.0000 
     29 H        -114.1488   16.9989   38.5063 H         1 ANB601      0.0000 
     30 H        -113.5106   16.7551   40.1412 H         1 ANB601      0.0000 
     31 H        -112.6421   18.8347   38.0702 H         1 ANB601      0.0000 
     32 H        -111.6845   18.7646   40.9328 H         1 ANB601      0.0000 
     33 H        -110.4019   20.7594   40.3034 H         1 ANB601      0.0000 
     34 H        -111.0987   20.6994   38.6752 H         1 ANB601      0.0000 
     35 H        -109.0676   18.8670   39.9781 H         1 ANB601      0.0000 
     36 H        -108.9087   19.8016   38.4810 H         1 ANB601      0.0000 
     37 H        -108.2846   18.1216   37.1594 H         1 ANB601      0.0000 
     38 H        -110.8475   14.9198   36.2757 H         1 ANB601      0.0000 
     39 H        -112.4948   15.8235   37.7959 H         1 ANB601      0.0000 
     40 H        -113.2101   17.9291   42.1266 H         1 ANB601      0.0000 
     41 H        -113.3279   19.3138   42.9359 H         1 ANB601      0.0000 
     42 H        -114.6010   18.3378   42.8227 H         1 ANB601      0.0000 
     43 H        -110.1482   15.8131   39.7060 H         1 ANB601      0.0000 
     44 H        -110.6359   17.0015   40.6735 H         1 ANB601      0.0000 
     45 H        -111.6823   15.8829   40.1834 H         1 ANB601      0.0000 
@<TRIPOS>BOND
     1    2    1 2    
     2    3    2 1    
     3    6    2 1    
     4    4    3 1    
     5   22    3 1    
     6   23    3 1    
     7    5    4 1    
     8   24    4 1    
     9   25    4 1    
    10    6    5 1    
    11   11    5 1    
    12   26    5 1    
    13    7    6 1    
    14    8    6 1    
    15   40    7 1    
    16   41    7 1    
    17   42    7 1    
    18    9    8 1    
    19   27    8 1    
    20   28    8 1    
    21   10    9 1    
    22   29    9 1    
    23   30    9 1    
    24   11   10 1    
    25   20   10 1    
    26   31   10 1    
    27   12   11 1    
    28   32   11 1    
    29   13   12 1    
    30   33   12 1    
    31   34   12 1    
    32   14   13 1    
    33   35   13 1    
    34   36   13 1    
    35   15   14 2    
    36   20   14 1    
    37   16   15 1    
    38   37   15 1    
    39   17   16 2    
    40   18   16 1    
    41   19   18 2    
    42   38   18 1    
    43   20   19 1    
    44   39   19 1    
    45   21   20 1    
    46   43   21 1    
    47   44   21 1    
    48   45   21 1    
@<TRIPOS>SUBSTRUCTURE
     1 ANB601      1 GROUP   
@<TRIPOS>SET

