#    Name: 3bsc_2PD_2_INTS_M
#    Modification time : Mon Mar 24 20:02:29 2014

@<TRIPOS>MOLECULE
3bsc_2PD_2_INTS_M
   50     0     6     0     0
SMALL
NO_CHARGES


@<TRIPOS>ATOM
      1 N          52.5530   -4.6430   47.8090 N.am      1 SEC2        0.0000 
      2 N          52.6790   -5.1370   49.1110 N.am      5 SEL2        0.0000 
      3 N          52.4270   -4.1490   46.5070 N.am      3 SEP2        0.0000 
      4 CA         51.4805   -8.8135   43.6480 C.3       2 GLC5        0.0000 
      5 CA         53.6430   -9.0670   43.8250 C.3       6 GLL5        0.0000 
      6 CA         49.3180   -8.5600   43.4710 C.3       4 GLP5        0.0000 
      7 CA         52.7425  -10.6805   42.8695 C.3       2 GLC5        0.0000 
      8 CA         51.8420  -12.2940   41.9140 C.3       4 GLP5        0.0000 
      9 CA         49.7245  -11.5455   53.3465 C.3       2 GLC5        0.0000 
     10 CA         50.3150  -10.5520   54.9430 C.3       6 GLL5        0.0000 
     11 CA         49.1340  -12.5390   51.7500 C.3       4 GLP5        0.0000 
     12 CA         48.4820  -11.0495   52.7980 C.3       2 GLC5        0.0000 
     13 CA         47.8300   -9.5600   53.8460 C.3       6 GLL5        0.0000 
     14 CA         46.2115   -8.1605   57.4315 C.3       2 GLC5        0.0000 
     15 CA         47.2450   -8.4940   56.0400 C.3       6 GLL5        0.0000 
     16 CA         45.1780   -7.8270   58.8230 C.3       4 GLP5        0.0000 
     17 CA         47.5835   -6.9195   54.6210 C.3       2 GLC5        0.0000 
     18 CA         47.9220   -5.3450   53.2020 C.3       4 GLP5        0.0000 
     19 CA         55.7165   -7.7885   59.7105 C.3       2 GLC5        0.0000 
     20 CA         55.4020   -7.6630   57.6440 C.3       6 GLL5        0.0000 
     21 CA         56.0310   -7.9140   61.7770 C.3       4 GLP5        0.0000 
     22 CA         54.3455   -6.0178   46.9905 C.3       2 GLC5        0.0000 
     23 CA         52.9600   -7.5670   48.2560 C.3       6 GLL5        0.0000 
     24 CA         55.6350   -4.5700   46.4130 C.3       4 GLP5        0.0000 
     25 CA         50.8798   -8.7375   44.8410 C.3       2 GLC5        0.0000 
     26 CA         52.7440   -8.3320   45.9670 C.3       6 GLL5        0.0000 
     27 CA         48.5508  -10.9940   56.5850 C.3       2 GLC5        0.0000 
     28 CA         47.2700  -11.8040   57.7680 C.3       4 GLP5        0.0000 
     29 CA         50.8042  -11.0875   57.0935 C.3       2 GLC5        0.0000 
     30 CA         49.3480   -9.8160   55.8610 C.3       6 GLL5        0.0000 
     31 CA         51.7770  -11.9910   58.7850 C.3       4 GLP5        0.0000 
     32 CA         47.5425  -10.2490   56.6705 C.3       2 GLC5        0.0000 
     33 CA         48.3850   -8.8940   55.1060 C.3       6 GLL5        0.0000 
     34 CA         48.6472   -7.5335   53.7100 C.3       2 GLC5        0.0000 
     35 CA         49.1870   -5.8400   52.9440 C.3       4 GLP5        0.0000 
     36 CA         46.1421   -9.9313   54.7615 C.3       2 GLC5        0.0000 
     37 CA         44.6080  -11.0020   54.2650 C.3       4 GLP5        0.0000 
     38 CA         49.0439   -7.4008   56.3174 C.3       2 GLC5        0.0000 
     39 CA         50.0320   -5.8770   56.8730 C.3       4 GLP5        0.0000 
     40 CA         53.0282   -6.5202   57.2338 C.3       2 GLC5        0.0000 
     41 CA         53.8740   -7.4670   55.7760 C.3       6 GLL5        0.0000 
     42 CA         52.0210   -6.2490   58.7540 C.3       4 GLP5        0.0000 
     43 CA         54.1368   -3.8490   55.5145 C.3       2 GLC5        0.0000 
     44 CA         54.1970   -6.1160   55.6510 C.3       6 GLL5        0.0000 
     45 CA         53.6210   -1.8690   54.9350 C.3       4 GLP5        0.0000 
     46 CA         53.7152   -6.0877   57.8937 C.3       2 GLC5        0.0000 
     47 CA         55.7110   -6.3110   57.5300 C.3       6 GLL5        0.0000 
     48 CA         53.4843   -7.0995   57.9778 C.3       2 GLC5        0.0000 
     49 CA         55.9944   -5.5959   58.9069 C.3       2 GLC5        0.0000 
     50 CA         56.5830   -4.3970   60.4750 C.3       4 GLP5        0.0000 
@<TRIPOS>BOND
@<TRIPOS>SUBSTRUCTURE
     1 SEC2        1 GROUP        1 X    SEC  0     ROOT SEC X 2
     2 GLC5        4 GROUP        1 X    GLC  0     **** GLC X 6
     3 SEP2        3 GROUP        1 Y    SEP  0     ROOT SEP Y 9
     4 GLP5        6 GROUP        1 Y    GLP  0     **** GLP Y 13
     5 SEL2        2 GROUP        1 Z    SEL  0     ROOT SEL Z 16
     6 GLL5        5 GROUP        1 Z    GLL  0     **** GLL Z 20
@<TRIPOS>SET

