#    Name: 3bsc_2PD_2_ligand
#    Modification time : Mon Mar 24 20:02:30 2014

@<TRIPOS>MOLECULE
3bsc_2PD_2_ligand
   57    60     1     0     0
SMALL
NO_CHARGES


@<TRIPOS>ATOM
      1 O30        52.6790   -5.1370   49.1110 O.2       1 2PD579      0.0000 
      2 S33        53.5110   -6.2960   49.3360 S.o2      1 2PD579      0.0000 
      3 O29        54.9530   -6.2500   49.2370 O.2       1 2PD579      0.0000 
      4 C12        52.9600   -7.5670   48.2560 C.ar      1 2PD579      0.0000 
      5 C8         53.1520   -7.3640   46.8800 C.ar      1 2PD579      0.0000 
      6 C11        52.7440   -8.3320   45.9670 C.ar      1 2PD579      0.0000 
      7 O32        52.9280   -8.1150   44.6210 O.3       1 2PD579      0.0000 
      8 C20        53.6430   -9.0670   43.8250 C.3       1 2PD579      0.0000 
      9 C7         52.1390   -9.4980   46.4550 C.ar      1 2PD579      0.0000 
     10 N26        53.1020   -6.9100   50.8470 N.pl3     1 2PD579      0.0000 
     11 C16        52.4610   -8.1460   51.0610 C.2       1 2PD579      0.0000 
     12 N24        52.1390   -8.9990   50.1370 N.2       1 2PD579      0.0000 
     13 C10        52.3590   -8.7240   48.7690 C.ar      1 2PD579      0.0000 
     14 C6         51.9510   -9.6900   47.8340 C.ar      1 2PD579      0.0000 
     15 C14        52.3030   -8.4040   52.4990 C.2       1 2PD579      0.0000 
     16 C15        53.1230   -7.8030   53.3970 C.2       1 2PD579      0.0000 
     17 O31        54.0870   -6.8810   53.0360 O.3       1 2PD579      0.0000 
     18 C17        51.3090   -9.4000   52.9930 C.2       1 2PD579      0.0000 
     19 O28        50.5610   -9.9740   52.2030 O.2       1 2PD579      0.0000 
     20 N27        51.2620   -9.6220   54.3620 N.am      1 2PD579      0.0000 
     21 C22        50.3150  -10.5520   54.9430 C.3       1 2PD579      0.0000 
     22 C21        49.3480   -9.8160   55.8610 C.3       1 2PD579      0.0000 
     23 C23        48.3850   -8.8940   55.1060 C.3       1 2PD579      0.0000 
     24 C19        47.8300   -9.5600   53.8460 C.3       1 2PD579      0.0000 
     25 C18        47.2450   -8.4940   56.0400 C.3       1 2PD579      0.0000 
     26 N25        52.0750   -9.0020   55.2740 N.2       1 2PD579      0.0000 
     27 C13        52.9400   -8.1420   54.8340 C.2       1 2PD579      0.0000 
     28 C9         53.8740   -7.4670   55.7760 C.ar      1 2PD579      0.0000 
     29 C4         54.1970   -6.1160   55.6510 C.ar      1 2PD579      0.0000 
     30 C2         55.1080   -5.5420   56.5370 C.ar      1 2PD579      0.0000 
     31 C5         54.4930   -8.2370   56.7590 C.ar      1 2PD579      0.0000 
     32 C3         55.4020   -7.6630   57.6440 C.ar      1 2PD579      0.0000 
     33 C1         55.7110   -6.3110   57.5300 C.ar      1 2PD579      0.0000 
     34 H          53.5950   -6.4976   46.5520 H         1 2PD579      0.0000 
     35 H          51.8273  -10.2252   45.7949 H         1 2PD579      0.0000 
     36 H          53.3800   -6.2680   51.5885 H         1 2PD579      0.0000 
     37 H          51.5035  -10.5595   48.1674 H         1 2PD579      0.0000 
     38 H          50.8272  -11.3212   55.5325 H         1 2PD579      0.0000 
     39 H          49.7303  -11.0579   54.1660 H         1 2PD579      0.0000 
     40 H          49.9201   -9.2169   56.5828 H         1 2PD579      0.0000 
     41 H          48.7623  -10.5498   56.4318 H         1 2PD579      0.0000 
     42 H          48.9200   -7.9977   54.8226 H         1 2PD579      0.0000 
     43 H          53.7681   -5.5497   54.9138 H         1 2PD579      0.0000 
     44 H          55.3370   -4.5399   56.4561 H         1 2PD579      0.0000 
     45 H          54.2750   -9.2434   56.8314 H         1 2PD579      0.0000 
     46 H          55.8403   -8.2328   58.3743 H         1 2PD579      0.0000 
     47 H          56.3825   -5.8800   58.1766 H         1 2PD579      0.0000 
     48 H          54.5816   -9.1903   44.1473 H         1 2PD579      0.0000 
     49 H          53.2069   -9.9668   43.8412 H         1 2PD579      0.0000 
     50 H          53.6968   -8.7845   42.8672 H         1 2PD579      0.0000 
     51 H          48.5576   -9.8124   53.2081 H         1 2PD579      0.0000 
     52 H          47.3245  -10.3960   54.0597 H         1 2PD579      0.0000 
     53 H          47.2036   -8.9568   53.3523 H         1 2PD579      0.0000 
     54 H          47.5795   -8.0081   56.8474 H         1 2PD579      0.0000 
     55 H          46.5876   -7.8918   55.5870 H         1 2PD579      0.0000 
     56 H          46.7361   -9.2903   56.3671 H         1 2PD579      0.0000 
     57 H          54.4443   -6.5282   53.9009 H         1 2PD579      0.0000 
@<TRIPOS>BOND
     1    2    1 2    
     2    3    2 2    
     3    4    2 1    
     4   10    2 1    
     5    5    4 ar   
     6   13    4 ar   
     7    6    5 ar   
     8   34    5 1    
     9    7    6 1    
    10    9    6 ar   
    11    8    7 1    
    12   48    8 1    
    13   49    8 1    
    14   50    8 1    
    15   14    9 ar   
    16   35    9 1    
    17   11   10 1    
    18   36   10 1    
    19   12   11 2    
    20   15   11 1    
    21   13   12 1    
    22   14   13 ar   
    23   37   14 1    
    24   16   15 2    
    25   18   15 1    
    26   17   16 1    
    27   27   16 1    
    28   57   17 1    
    29   19   18 2    
    30   20   18 am   
    31   21   20 1    
    32   26   20 1    
    33   22   21 1    
    34   38   21 1    
    35   39   21 1    
    36   23   22 1    
    37   40   22 1    
    38   41   22 1    
    39   24   23 1    
    40   25   23 1    
    41   42   23 1    
    42   51   24 1    
    43   52   24 1    
    44   53   24 1    
    45   54   25 1    
    46   55   25 1    
    47   56   25 1    
    48   27   26 2    
    49   28   27 1    
    50   29   28 ar   
    51   31   28 ar   
    52   30   29 ar   
    53   43   29 1    
    54   33   30 ar   
    55   44   30 1    
    56   32   31 ar   
    57   45   31 1    
    58   33   32 ar   
    59   46   32 1    
    60   47   33 1    
@<TRIPOS>SUBSTRUCTURE
     1 2PD579      1 GROUP   
@<TRIPOS>SET

