#    Name: 1ODI_6_CAVITY_N1_ALL.mol2
#    Modification time : Mon Mar 10 21:56:15 2014

@<TRIPOS>MOLECULE
1ODI_6_CAVITY_N1_ALL.mol2
  107     0     6     0     0
SMALL
NO_CHARGES


@<TRIPOS>ATOM
      1 O          36.8705  -79.7664 -121.7682 O.2       2 ALA2        0.0000 
      2 O          36.9582  -81.5729 -122.8767 O.2       2 ALA2        0.0000 
      3 O          35.9455  -80.4790 -122.7098 O.2       2 ALA2        0.0000 
      4 N          38.0585  -84.4734 -124.1522 N.2       2 ALA2        0.0000 
      5 CA         37.0459  -83.3794 -123.9853 C.3       5 GLY6        0.0000 
      6 NZ         36.0332  -82.2855 -123.8183 N.2       3 LYS4        0.0000 
      7 NZ         35.0206  -81.1916 -123.6514 N.2       3 LYS4        0.0000 
      8 CA         37.1335  -85.1860 -125.0938 C.3       5 GLY6        0.0000 
      9 CA         36.1209  -84.0920 -124.9269 C.3       5 GLY6        0.0000 
     10 NZ         35.1082  -82.9981 -124.7599 N.2       3 LYS4        0.0000 
     11 O          36.3508  -82.3115 -121.7211 O.2       2 ALA2        0.0000 
     12 CA         35.4258  -83.0241 -122.6627 C.3       5 GLY6        0.0000 
     13 CA         41.6430  -79.0259 -124.6274 C.3       5 GLY6        0.0000 
     14 OG         40.6304  -77.9319 -124.4605 O.2       1 SER1        0.0000 
     15 CA         41.7307  -80.8324 -125.7359 C.3       5 GLY6        0.0000 
     16 OG         40.7180  -79.7385 -125.5690 O.2       1 SER1        0.0000 
     17 CA         40.8057  -81.5450 -126.6775 C.3       5 GLY6        0.0000 
     18 OG         39.7931  -80.4510 -126.5106 O.2       1 SER1        0.0000 
     19 CZ         39.8807  -82.2576 -127.6191 C.ar      4 PHE5        0.0000 
     20 OG         38.8681  -81.1636 -127.4522 O.2       1 SER1        0.0000 
     21 OG         37.8554  -80.0697 -127.2853 O.2       1 SER1        0.0000 
     22 CZ         38.9557  -82.9702 -128.5607 C.ar      4 PHE5        0.0000 
     23 O          37.9431  -81.8762 -128.3938 O.2       2 ALA2        0.0000 
     24 CA         36.9304  -80.7823 -128.2269 C.3       5 GLY6        0.0000 
     25 CZ         38.0308  -83.6828 -129.5023 C.ar      4 PHE5        0.0000 
     26 N          37.0181  -82.5888 -129.3354 N.2       2 ALA2        0.0000 
     27 NZ         37.1058  -84.3954 -130.4439 N.2       3 LYS4        0.0000 
     28 N          43.8106  -77.6267 -120.6470 N.2       2 ALA2        0.0000 
     29 DU         42.7979  -76.5327 -120.4801 H         6 CUB7        0.0000 
     30 O          41.7853  -75.4388 -120.3132 O.2       2 ALA2        0.0000 
     31 O          43.8982  -79.4332 -121.7555 O.2       2 ALA2        0.0000 
     32 CA         42.8856  -78.3393 -121.5886 C.3       5 GLY6        0.0000 
     33 O          41.8729  -77.2453 -121.4217 O.2       2 ALA2        0.0000 
     34 O          41.9606  -79.0519 -122.5302 O.2       2 ALA2        0.0000 
     35 O          40.9480  -77.9579 -122.3633 O.2       2 ALA2        0.0000 
     36 CA         42.0483  -80.8584 -123.6387 C.3       5 GLY6        0.0000 
     37 O          41.0356  -79.7645 -123.4718 O.2       2 ALA2        0.0000 
     38 OG         40.0230  -78.6705 -123.3049 O.2       1 SER1        0.0000 
     39 O          41.1233  -81.5710 -124.5803 O.2       2 ALA2        0.0000 
     40 O          40.1106  -80.4771 -124.4134 O.2       2 ALA2        0.0000 
     41 N          40.1983  -82.2836 -125.5219 N.2       2 ALA2        0.0000 
     42 OG         39.1857  -81.1896 -125.3550 O.2       1 SER1        0.0000 
     43 CZ         39.2733  -82.9962 -126.4635 C.ar      4 PHE5        0.0000 
     44 OG         38.2607  -81.9022 -126.2966 O.2       1 SER1        0.0000 
     45 OG         37.2480  -80.8083 -126.1297 O.2       1 SER1        0.0000 
     46 CZ         37.3357  -82.6148 -127.2382 C.ar      4 PHE5        0.0000 
     47 N          36.3230  -81.5209 -127.0713 N.2       2 ALA2        0.0000 
     48 CZ         37.4234  -84.4214 -128.3467 C.ar      4 PHE5        0.0000 
     49 CA         36.4107  -83.3274 -128.1798 C.3       5 GLY6        0.0000 
     50 CA         35.3980  -82.2335 -128.0129 C.3       5 GLY6        0.0000 
     51 CA         35.4857  -84.0400 -129.1214 C.3       5 GLY6        0.0000 
     52 N          43.2032  -78.3653 -119.4913 N.2       2 ALA2        0.0000 
     53 NZ         42.1905  -77.2713 -119.3244 N.2       3 LYS4        0.0000 
     54 N          42.2782  -79.0779 -120.4329 N.2       2 ALA2        0.0000 
     55 NZ         41.2655  -77.9839 -120.2660 N.2       3 LYS4        0.0000 
     56 O          42.3659  -80.8844 -121.5414 O.2       2 ALA2        0.0000 
     57 O          40.3406  -78.6965 -121.2076 O.2       2 ALA2        0.0000 
     58 OG         37.4779  -79.0278 -122.9239 O.2       1 SER1        0.0000 
     59 O          38.5783  -81.9282 -124.1993 O.2       2 ALA2        0.0000 
     60 O          37.5656  -80.8343 -124.0324 O.2       2 ALA2        0.0000 
     61 N          38.6659  -83.7348 -125.3078 N.2       2 ALA2        0.0000 
     62 O          37.6533  -82.6408 -125.1409 O.2       2 ALA2        0.0000 
     63 OG         36.6406  -81.5469 -124.9740 O.2       1 SER1        0.0000 
     64 N          35.6280  -80.4530 -124.8071 N.2       2 ALA2        0.0000 
     65 CZ         37.7409  -84.4474 -126.2494 C.ar      4 PHE5        0.0000 
     66 CA         36.7283  -83.3534 -126.0825 C.3       5 GLY6        0.0000 
     67 O          35.7156  -82.2595 -125.9156 O.2       2 ALA2        0.0000 
     68 O          34.7030  -81.1656 -125.7487 O.2       2 ALA2        0.0000 
     69 CA         35.8033  -84.0660 -127.0241 C.3       5 GLY6        0.0000 
     70 O          34.7906  -82.9721 -126.8572 O.2       2 ALA2        0.0000 
     71 CA         44.3088  -87.6752 -132.6482 C.3       5 GLY6        0.0000 
     72 O          43.2962  -86.5813 -132.4812 O.2       2 ALA2        0.0000 
     73 CA         43.3838  -88.3878 -133.5898 C.3       5 GLY6        0.0000 
     74 O          42.3712  -87.2939 -133.4228 O.2       2 ALA2        0.0000 
     75 N          43.4715  -90.1943 -134.6983 N.2       2 ALA2        0.0000 
     76 N          42.4589  -89.1004 -134.5314 N.2       2 ALA2        0.0000 
     77 N          41.4462  -88.0065 -134.3644 N.2       2 ALA2        0.0000 
     78 CA         44.0127  -75.0555 -122.7914 C.3       5 GLY6        0.0000 
     79 CA         43.0001  -73.9616 -122.6245 C.3       5 GLY6        0.0000 
     80 CA         44.1004  -76.8621 -123.8999 C.3       5 GLY6        0.0000 
     81 CA         42.0751  -74.6742 -123.5661 C.3       5 GLY6        0.0000 
     82 CA         42.1628  -76.4807 -124.6746 C.3       5 GLY6        0.0000 
     83 O          39.5631  -82.2316 -129.7164 O.2       2 ALA2        0.0000 
     84 O          38.5505  -81.1376 -129.5495 O.2       2 ALA2        0.0000 
     85 CZ         43.7014  -88.4138 -131.4925 C.ar      4 PHE5        0.0000 
     86 CZ         42.6888  -87.3199 -131.3256 C.ar      4 PHE5        0.0000 
     87 CZ         41.6761  -86.2259 -131.1587 C.ar      4 PHE5        0.0000 
     88 CZ         39.6508  -84.0381 -130.8249 C.ar      4 PHE5        0.0000 
     89 CA         38.6382  -82.9442 -130.6580 C.3       5 GLY6        0.0000 
     90 CZ         43.7891  -90.2203 -132.6010 C.ar      4 PHE5        0.0000 
     91 CZ         42.7764  -89.1264 -132.4341 C.ar      4 PHE5        0.0000 
     92 N          41.7638  -88.0325 -132.2672 N.2       2 ALA2        0.0000 
     93 N          40.7511  -86.9385 -132.1003 N.2       2 ALA2        0.0000 
     94 CA         39.7385  -85.8446 -131.9334 C.3       5 GLY6        0.0000 
     95 CA         38.7258  -84.7507 -131.7665 C.3       5 GLY6        0.0000 
     96 N          42.8641  -90.9329 -133.5426 N.2       2 ALA2        0.0000 
     97 N          41.8515  -89.8390 -133.3757 N.2       2 ALA2        0.0000 
     98 N          40.8388  -88.7451 -133.2088 N.2       2 ALA2        0.0000 
     99 N          39.8261  -87.6511 -133.0419 N.2       2 ALA2        0.0000 
    100 O          44.4180  -76.8881 -121.8026 O.2       2 ALA2        0.0000 
    101 DU         43.4053  -75.7941 -121.6357 H         6 CUB7        0.0000 
    102 DU         42.3927  -74.7002 -121.4688 H         6 CUB7        0.0000 
    103 CA         43.4930  -77.6007 -122.7442 C.3       5 GLY6        0.0000 
    104 CA         42.4803  -76.5067 -122.5773 C.3       5 GLY6        0.0000 
    105 O          41.4677  -75.4128 -122.4104 O.2       2 ALA2        0.0000 
    106 CA         42.5680  -78.3133 -123.6858 C.3       5 GLY6        0.0000 
    107 CA         41.5554  -77.2193 -123.5189 C.3       5 GLY6        0.0000 
@<TRIPOS>BOND
@<TRIPOS>SUBSTRUCTURE
     1 SER1       14 GROUP   
     2 ALA2        1 GROUP   
     3 LYS4        6 GROUP   
     4 PHE5       19 GROUP   
     5 GLY6        5 GROUP   
     6 CUB7       29 GROUP   
@<TRIPOS>SET

