#    Name: 1odi_ADN_6_INTS_M
#    Modification time : Mon Mar 24 19:56:32 2014

@<TRIPOS>MOLECULE
1odi_ADN_6_INTS_M
   52     0     9     0     0
SMALL
NO_CHARGES


@<TRIPOS>ATOM
      1 N          40.1300  -84.2945 -124.2260 N.am      2 SEC2        0.0000 
      2 N          39.6090  -83.0140 -124.6800 N.am      8 SEL2        0.0000 
      3 N          40.6510  -85.5750 -123.7720 N.am      5 SEP2        0.0000 
      4 CA         39.5930  -84.6115 -123.7230 C.3       3 GLC5        0.0000 
      5 CA         38.3450  -83.5780 -125.0360 C.3       9 GLL5        0.0000 
      6 CA         40.8410  -85.6450 -122.4100 C.3       6 GLP5        0.0000 
      7 CA         39.1360  -84.5060 -126.4180 C.3       3 GLC5        0.0000 
      8 CA         39.9270  -85.4340 -127.8000 C.3       6 GLP5        0.0000 
      9 CA         36.6940  -85.0060 -125.5560 C.3       3 GLC5        0.0000 
     10 CA         35.0430  -86.4340 -126.0760 C.3       6 GLP5        0.0000 
     11 CA         35.4545  -84.7310 -125.4240 C.3       3 GLC5        0.0000 
     12 CA         35.8660  -83.0280 -124.7720 C.3       9 GLL5        0.0000 
     13 N          33.8165  -82.9150 -123.0910 N.am      2 SEC2        0.0000 
     14 N          35.1130  -82.7240 -123.5760 N.am      8 SEL2        0.0000 
     15 N          32.5200  -83.1060 -122.6060 N.am      5 SEP2        0.0000 
     16 CA         34.2835  -82.0445 -127.5720 C.3       3 GLC5        0.0000 
     17 CA         35.3830  -82.1930 -125.9820 C.3       9 GLL5        0.0000 
     18 CA         33.1840  -81.8960 -129.1620 C.3       6 GLP5        0.0000 
     19 CA         34.0055  -83.6275 -125.9280 C.3       3 GLC5        0.0000 
     20 CA         32.6280  -85.0620 -125.8740 C.3       6 GLP5        0.0000 
     21 N          33.1975  -82.2895 -126.4865 N.am      2 SEC2        0.0000 
     22 N          34.1250  -81.5490 -125.7960 N.am      8 SEL2        0.0000 
     23 N          32.2700  -83.0300 -127.1770 N.am      5 SEP2        0.0000 
     24 O          33.0230  -81.5400 -124.9000 O.2       1 ALC1        0.0000 
     25 O          34.1250  -81.5490 -125.7960 O.2       7 ALL1        0.0000 
     26 O          31.9210  -81.5310 -124.0040 O.2       4 ALP1        0.0000 
     27 CA         36.6025  -79.8865 -128.0120 C.3       3 GLC5        0.0000 
     28 CA         36.5970  -81.2620 -126.2700 C.3       9 GLL5        0.0000 
     29 CA         36.6080  -78.5110 -129.7540 C.3       6 GLP5        0.0000 
     30 N          40.4235  -80.8365 -129.3385 N.am      2 SEC2        0.0000 
     31 N          39.1620  -81.3280 -128.9670 N.am      8 SEL2        0.0000 
     32 N          41.6850  -80.3450 -129.7100 N.am      5 SEP2        0.0000 
     33 CA         38.5000  -83.8475 -132.3085 C.3       3 GLC5        0.0000 
     34 CA         38.5470  -83.4590 -130.3540 C.3       9 GLL5        0.0000 
     35 CA         38.4530  -84.2360 -134.2630 C.3       6 GLP5        0.0000 
     36 O          40.7220  -82.4925 -131.4355 O.2       1 ALC1        0.0000 
     37 O          39.5050  -83.4190 -131.2920 O.2       7 ALL1        0.0000 
     38 O          41.9390  -81.5660 -131.5790 O.2       4 ALP1        0.0000 
     39 CA         35.5700  -83.9960 -131.3225 C.3       3 GLC5        0.0000 
     40 CA         36.6460  -84.5370 -129.4360 C.3       9 GLL5        0.0000 
     41 CA         34.4940  -83.4550 -133.2090 C.3       6 GLP5        0.0000 
     42 CA         34.9150  -83.2165 -129.2990 C.3       3 GLC5        0.0000 
     43 CA         35.8445  -85.4855 -127.7560 C.3       3 GLC5        0.0000 
     44 CA         35.2710  -82.2795 -128.7740 C.3       3 GLC5        0.0000 
     45 CA         37.3580  -82.6630 -128.3860 C.3       9 GLL5        0.0000 
     46 CA         37.8083  -84.1995 -122.9710 C.3       3 GLC5        0.0000 
     47 CA         37.2880  -82.5900 -124.4760 C.3       9 GLL5        0.0000 
     48 CA         37.8000  -85.3150 -121.1860 C.3       6 GLP5        0.0000 
     49 CA         37.2502  -80.5380 -129.2968 C.3       3 GLC5        0.0000 
     50 CA         38.5235  -81.6010 -131.1548 C.3       3 GLC5        0.0000 
     51 CA         38.4270  -82.4670 -129.2930 C.3       9 GLL5        0.0000 
     52 CA         38.5600  -80.2390 -132.4860 C.3       6 GLP5        0.0000 
@<TRIPOS>BOND
@<TRIPOS>SUBSTRUCTURE
     1 ALC1       24 GROUP        1 X    ALC  0     ROOT ALC X 1
     2 SEC2        1 GROUP        1 X    SEC  0     **** SEC X 2
     3 GLC5        4 GROUP        1 X    GLC  0     **** GLC X 6
     4 ALP1       26 GROUP        1 Y    ALP  0     ROOT ALP Y 8
     5 SEP2        3 GROUP        1 Y    SEP  0     **** SEP Y 9
     6 GLP5        6 GROUP        1 Y    GLP  0     **** GLP Y 13
     7 ALL1       25 GROUP        1 Z    ALL  0     ROOT ALL Z 15
     8 SEL2        2 GROUP        1 Z    SEL  0     **** SEL Z 16
     9 GLL5        5 GROUP        1 Z    GLL  0     **** GLL Z 20
@<TRIPOS>SET

