#    Name: 1odi_ADN_6_ligand
#    Modification time : Mon Mar 24 19:56:32 2014

@<TRIPOS>MOLECULE
1odi_ADN_6_ligand
   32    34     1     0     0
SMALL
NO_CHARGES


@<TRIPOS>ATOM
      1 O5'        39.6090  -83.0140 -124.6800 O.3       1 ADN1238     0.0000 
      2 C5'        38.3450  -83.5780 -125.0360 C.3       1 ADN1238     0.0000 
      3 C4'        37.2880  -82.5900 -124.4760 C.3       1 ADN1238     0.0000 
      4 O4'        37.3530  -81.2380 -125.0580 O.3       1 ADN1238     0.0000 
      5 C3'        35.8660  -83.0280 -124.7720 C.3       1 ADN1238     0.0000 
      6 O3'        35.1130  -82.7240 -123.5760 O.3       1 ADN1238     0.0000 
      7 C2'        35.3830  -82.1930 -125.9820 C.3       1 ADN1238     0.0000 
      8 O2'        34.1250  -81.5490 -125.7960 O.3       1 ADN1238     0.0000 
      9 C1'        36.5970  -81.2620 -126.2700 C.3       1 ADN1238     0.0000 
     10 N9         37.4420  -81.6100 -127.4680 N.pl3     1 ADN1238     0.0000 
     11 C8         38.5540  -80.8650 -127.9020 C.2       1 ADN1238     0.0000 
     12 N7         39.1620  -81.3280 -128.9670 N.2       1 ADN1238     0.0000 
     13 C5         38.4270  -82.4670 -129.2930 C.ar      1 ADN1238     0.0000 
     14 C6         38.5470  -83.4590 -130.3540 C.ar      1 ADN1238     0.0000 
     15 N6         39.5050  -83.4190 -131.2920 N.pl3     1 ADN1238     0.0000 
     16 N1         37.6240  -84.4800 -130.3770 N.ar      1 ADN1238     0.0000 
     17 C2         36.6460  -84.5370 -129.4360 C.ar      1 ADN1238     0.0000 
     18 N3         36.4340  -83.6780 -128.4040 N.ar      1 ADN1238     0.0000 
     19 C4         37.3580  -82.6630 -128.3860 C.ar      1 ADN1238     0.0000 
     20 H          38.1740  -84.5334 -124.5729 H         1 ADN1238     0.0000 
     21 H          38.2037  -83.6358 -126.1005 H         1 ADN1238     0.0000 
     22 H          37.3911  -82.5226 -123.4027 H         1 ADN1238     0.0000 
     23 H          35.8613  -84.0450 -125.0142 H         1 ADN1238     0.0000 
     24 H          35.3663  -82.9086 -126.8297 H         1 ADN1238     0.0000 
     25 H          36.1623  -80.2501 -126.4233 H         1 ADN1238     0.0000 
     26 H          38.8268  -80.0365 -127.3944 H         1 ADN1238     0.0000 
     27 H          39.4600  -84.1264 -131.9973 H         1 ADN1238     0.0000 
     28 H          40.1785  -82.6853 -131.2021 H         1 ADN1238     0.0000 
     29 H          35.9465  -85.3723 -129.5180 H         1 ADN1238     0.0000 
     30 H          39.9584  -82.6084 -125.5247 H         1 ADN1238     0.0000 
     31 H          35.2121  -83.5321 -122.9955 H         1 ADN1238     0.0000 
     32 H          33.7123  -82.0096 -125.0102 H         1 ADN1238     0.0000 
@<TRIPOS>BOND
     1    2    1 1    
     2   30    1 1    
     3    3    2 1    
     4   20    2 1    
     5   21    2 1    
     6    4    3 1    
     7    5    3 1    
     8   22    3 1    
     9    9    4 1    
    10    6    5 1    
    11    7    5 1    
    12   23    5 1    
    13   31    6 1    
    14    8    7 1    
    15    9    7 1    
    16   24    7 1    
    17   32    8 1    
    18   10    9 1    
    19   25    9 1    
    20   11   10 1    
    21   19   10 1    
    22   12   11 2    
    23   26   11 1    
    24   13   12 1    
    25   14   13 ar   
    26   19   13 ar   
    27   15   14 1    
    28   16   14 ar   
    29   27   15 1    
    30   28   15 1    
    31   17   16 ar   
    32   18   17 ar   
    33   29   17 1    
    34   19   18 ar   
@<TRIPOS>SUBSTRUCTURE
     1 ADN1238     1 GROUP   
@<TRIPOS>SET

