#    Name: 4ee3_UDH_3_INTS_M
#    Modification time : Mon Apr  7 23:35:08 2014

@<TRIPOS>MOLECULE
4ee3_UDH_3_INTS_M
   76     0    15     0     0
SMALL
NO_CHARGES


@<TRIPOS>ATOM
      1 O          28.9735   -0.4750   89.8160 O.2       1 ALC1        0.0000 
      2 O          29.8370   -0.7440   90.9780 O.2      11 ALL1        0.0000 
      3 O          28.1100   -0.2060   88.6540 O.2       6 ALP1        0.0000 
      4 CA         31.7350   -3.1045   92.7105 C.3       5 GLC5        0.0000 
      5 CA         30.2050   -1.9120   93.0490 C.3      15 GLL5        0.0000 
      6 CA         33.2650   -4.2970   92.3720 C.3      10 GLP5        0.0000 
      7 CA         28.1620   -2.0070   93.4720 C.3       5 GLC5        0.0000 
      8 CA         26.1190   -2.1020   93.8950 C.3      10 GLP5        0.0000 
      9 CA         29.8900   -3.6900   94.1950 C.3       5 GLC5        0.0000 
     10 CA         29.5750   -5.4680   95.3410 C.3      10 GLP5        0.0000 
     11 CA         32.6100   -2.1635   92.5575 C.3       5 GLC5        0.0000 
     12 CA         31.3900   -1.2080   93.2130 C.3      15 GLL5        0.0000 
     13 CA         33.8300   -3.1190   91.9020 C.3      10 GLP5        0.0000 
     14 N          31.1625    0.1990   88.9095 N.am      2 SEC2        0.0000 
     15 N          31.3810    0.8090   90.1850 N.am     12 SEL2        0.0000 
     16 N          30.9440   -0.4110   87.6340 N.am      7 SEP2        0.0000 
     17 N          28.3340   -3.5955   91.8295 N.am      2 SEC2        0.0000 
     18 N          28.3550   -2.2410   91.7330 N.am     12 SEL2        0.0000 
     19 N          28.3130   -4.9500   91.9260 N.am      7 SEP2        0.0000 
     20 CA         35.1555    0.7125   91.8210 C.3       5 GLC5        0.0000 
     21 CA         33.0240    0.5140   92.4480 C.3      15 GLL5        0.0000 
     22 CA         37.2870    0.9110   91.1940 C.3      10 GLP5        0.0000 
     23 CA         33.2500   -1.0440   91.5530 C.3       5 GLC5        0.0000 
     24 CA         33.4760   -2.6020   90.6580 C.3      10 GLP5        0.0000 
     25 N          34.2960    4.1190   92.1430 N.am      2 SEC2        0.0000 
     26 N          33.8810    2.6130   92.0160 N.am     12 SEL2        0.0000 
     27 N          34.7110    5.6250   92.2700 N.am      7 SEP2        0.0000 
     28 O          34.3420    2.1060   90.8095 O.2       1 ALC1        0.0000 
     29 O          33.8810    2.6130   92.0160 O.2      11 ALL1        0.0000 
     30 O          34.8030    1.5990   89.6030 O.2       6 ALP1        0.0000 
     31 N          33.9530    4.5180   93.3725 N.am      2 SEC2        0.0000 
     32 N          33.1950    3.4110   94.4750 N.am     12 SEL2        0.0000 
     33 O          32.1750    4.3090   95.3140 O.2       1 ALC1        0.0000 
     34 O          33.1950    3.4110   94.4750 O.2      11 ALL1        0.0000 
     35 O          31.1550    5.2070   96.1530 O.2       6 ALP1        0.0000 
     36 NZ         30.2445    2.2025   95.7620 N.4       3 LYC4        0.0000 
     37 NZ         31.3740    2.3340   96.7690 N.4      13 LYL4        0.0000 
     38 NZ         28.8420    2.8740   93.7220 N.4       8 LYP4        0.0000 
     39 Zn         31.2975    3.2320   97.3585 Zn        4 ZIC7        0.0000 
     40 Zn         31.3740    2.3340   96.7690 Zn       14 ZIL7        0.0000 
     41 Zn         31.2210    4.1300   97.9480 Zn        9 ZIP7        0.0000 
     42 N          30.2445    2.2025   95.7620 N.am      2 SEC2        0.0000 
     43 N          31.3740    2.3340   96.7690 N.am     12 SEL2        0.0000 
     44 N          29.1150    2.0710   94.7550 N.am      7 SEP2        0.0000 
     45 NZ         32.7455    2.7150  101.2150 N.4       3 LYC4        0.0000 
     46 NZ         32.4860    1.0500  100.8690 N.4      13 LYL4        0.0000 
     47 NZ         33.0050    4.3800  101.5610 N.4       8 LYP4        0.0000 
     48 N          32.7110   -0.4575  100.8980 N.am      2 SEC2        0.0000 
     49 N          32.4860    1.0500  100.8690 N.am     12 SEL2        0.0000 
     50 N          32.9360   -1.9650  100.9270 N.am      7 SEP2        0.0000 
     51 NZ         32.2655    3.7190  100.5115 N.4       3 LYC4        0.0000 
     52 NZ         31.5260    3.0580   99.4620 N.4      13 LYL4        0.0000 
     53 Zn         31.3735    3.5940   98.7050 Zn        4 ZIC7        0.0000 
     54 Zn         31.5260    3.0580   99.4620 Zn       14 ZIL7        0.0000 
     55 N          32.2655    3.7190  100.5115 N.am      2 SEC2        0.0000 
     56 N          31.5260    3.0580   99.4620 N.am     12 SEL2        0.0000 
     57 N          33.0050    4.3800  101.5610 N.am      7 SEP2        0.0000 
     58 CA         31.2120   -1.5920  100.1445 C.3       5 GLC5        0.0000 
     59 CA         29.9130   -0.3470  100.3570 C.3      15 GLL5        0.0000 
     60 CA         32.5110   -2.8370   99.9320 C.3      10 GLP5        0.0000 
     61 CA         26.4325   -1.5725  100.4550 C.3       5 GLC5        0.0000 
     62 CA         28.4190   -0.6910  100.2310 C.3      15 GLL5        0.0000 
     63 CA         24.4460   -2.4540  100.6790 C.3      10 GLP5        0.0000 
     64 CA         25.9915   -0.3395   99.5490 C.3       5 GLC5        0.0000 
     65 CA         27.5290    0.4760  100.6600 C.3      15 GLL5        0.0000 
     66 CA         24.4540   -1.1550   98.4380 C.3      10 GLP5        0.0000 
     67 CA         25.6970   -1.0655  101.3730 C.3       5 GLC5        0.0000 
     68 CA         26.9480    0.3230  102.0670 C.3      15 GLL5        0.0000 
     69 CA         32.3435    3.5985   92.3195 C.3       5 GLC5        0.0000 
     70 CA         32.7780    2.1170   94.1210 C.3      15 GLL5        0.0000 
     71 CA         31.9310    5.1430   91.2690 C.3      10 GLP5        0.0000 
     72 CA         34.6593    3.0870   94.6820 C.3       5 GLC5        0.0000 
     73 CA         35.9880    4.5420   95.0490 C.3      10 GLP5        0.0000 
     74 CA         35.6115   -0.1920   95.1587 C.3       5 GLC5        0.0000 
     75 CA         33.8830    1.1470   94.5090 C.3      15 GLL5        0.0000 
     76 CA         37.3740   -1.2940   95.0790 C.3      10 GLP5        0.0000 
@<TRIPOS>BOND
@<TRIPOS>SUBSTRUCTURE
     1 ALC1        1 GROUP        1 X    ALC  0     ROOT ALC X 1
     2 SEC2       14 GROUP        1 X    SEC  0     **** SEC X 2
     3 LYC4       36 GROUP        1 X    LYC  0     **** LYC X 4
     4 ZIC7       39 GROUP        1 X    ZIC  0     **** ZIC X 5
     5 GLC5        4 GROUP        1 X    GLC  0     **** GLC X 6
     6 ALP1        3 GROUP        1 Y    ALP  0     ROOT ALP Y 8
     7 SEP2       16 GROUP        1 Y    SEP  0     **** SEP Y 9
     8 LYP4       38 GROUP        1 Y    LYP  0     **** LYP Y 11
     9 ZIP7       41 GROUP        1 Y    ZIP  0     **** ZIP Y 12
    10 GLP5        6 GROUP        1 Y    GLP  0     **** GLP Y 13
    11 ALL1        2 GROUP        1 Z    ALL  0     ROOT ALL Z 15
    12 SEL2       15 GROUP        1 Z    SEL  0     **** SEL Z 16
    13 LYL4       37 GROUP        1 Z    LYL  0     **** LYL Z 18
    14 ZIL7       40 GROUP        1 Z    ZIL  0     **** ZIL Z 19
    15 GLL5        5 GROUP        1 Z    GLL  0     **** GLL Z 20
@<TRIPOS>SET

