#    Name: 4ee3_UDH_3_ligand
#    Modification time : Mon Apr  7 23:35:08 2014

@<TRIPOS>MOLECULE
4ee3_UDH_3_ligand
   58    59     1     0     0
SMALL
NO_CHARGES


@<TRIPOS>ATOM
      1 N1         31.8680   -0.3650   92.1920 N.am      1 UDH406      0.0000 
      2 C2         31.0020   -0.0640   91.1420 C.2       1 UDH406      0.0000 
      3 N3         29.8370   -0.7440   90.9780 N.am      1 UDH406      0.0000 
      4 C4         29.4380   -1.6460   91.9140 C.2       1 UDH406      0.0000 
      5 C5         30.2050   -1.9120   93.0490 C.2       1 UDH406      0.0000 
      6 C6         31.3900   -1.2080   93.2130 C.2       1 UDH406      0.0000 
      7 O2         31.3810    0.8090   90.1850 O.2       1 UDH406      0.0000 
      8 O4         28.3550   -2.2410   91.7330 O.2       1 UDH406      0.0000 
      9 C1B        33.0240    0.5140   92.4480 C.3       1 UDH406      0.0000 
     10 C2B        32.7340    1.9910   92.6190 C.3       1 UDH406      0.0000 
     11 O2'        33.8810    2.6130   92.0160 O.3       1 UDH406      0.0000 
     12 C3B        32.7780    2.1170   94.1210 C.3       1 UDH406      0.0000 
     13 C4B        33.8830    1.1470   94.5090 C.3       1 UDH406      0.0000 
     14 O4'        33.8300    0.0820   93.5400 O.3       1 UDH406      0.0000 
     15 O3'        33.1950    3.4110   94.4750 O.3       1 UDH406      0.0000 
     16 C5B        33.8150    0.6730   95.9680 C.3       1 UDH406      0.0000 
     17 O5'        32.5330    0.1050   96.1990 O.3       1 UDH406      0.0000 
     18 PA         31.4400    0.8740   97.0490 P.3       1 UDH406      0.0000 
     19 O1A        31.3740    2.3340   96.7690 O.co2     1 UDH406      0.0000 
     20 O2A        30.1080    0.1830   97.0000 O.co2     1 UDH406      0.0000 
     21 O3A        32.0470    0.6220   98.5170 O.3       1 UDH406      0.0000 
     22 PB         31.6050    1.5660   99.7890 P.3       1 UDH406      0.0000 
     23 O1B        32.4860    1.0500  100.8690 O.co2     1 UDH406      0.0000 
     24 O2B        30.1210    1.0120   99.9460 O.3       1 UDH406      0.0000 
     25 O3B        31.5260    3.0580   99.4620 O.co2     1 UDH406      0.0000 
     26 C1'        29.9130   -0.3470  100.3570 C.3       1 UDH406      0.0000 
     27 C2'        28.4190   -0.6910  100.2310 C.3       1 UDH406      0.0000 
     28 C3'        27.5290    0.4760  100.6600 C.3       1 UDH406      0.0000 
     29 C4'        26.9480    0.3230  102.0670 C.3       1 UDH406      0.0000 
     30 C5'        25.9790    1.4650  102.3900 C.3       1 UDH406      0.0000 
     31 C6'        25.7720    1.6180  103.9020 C.3       1 UDH406      0.0000 
     32 N6'        24.4500    2.1550  104.2050 N.4       1 UDH406      0.0000 
     33 H          29.2506   -0.5749   90.1372 H         1 UDH406      0.0000 
     34 H          29.9032   -2.5987   93.7306 H         1 UDH406      0.0000 
     35 H          31.9299   -1.2973   94.0851 H         1 UDH406      0.0000 
     36 H          33.6930    0.4592   91.5184 H         1 UDH406      0.0000 
     37 H          31.8411    2.2216   92.2300 H         1 UDH406      0.0000 
     38 H          31.8840    1.8042   94.5346 H         1 UDH406      0.0000 
     39 H          34.8366    1.6968   94.3751 H         1 UDH406      0.0000 
     40 H          34.0033    1.5390   96.6049 H         1 UDH406      0.0000 
     41 H          34.6192   -0.0494   96.1175 H         1 UDH406      0.0000 
     42 H          30.2029   -0.5055  101.3979 H         1 UDH406      0.0000 
     43 H          30.4687   -1.0498   99.7326 H         1 UDH406      0.0000 
     44 H          28.2015   -1.5593  100.8559 H         1 UDH406      0.0000 
     45 H          28.2011   -0.9482   99.1926 H         1 UDH406      0.0000 
     46 H          26.7012    0.5774   99.9411 H         1 UDH406      0.0000 
     47 H          28.1144    1.4075  100.6149 H         1 UDH406      0.0000 
     48 H          27.7597    0.3266  102.7931 H         1 UDH406      0.0000 
     49 H          26.4179   -0.6259  102.1355 H         1 UDH406      0.0000 
     50 H          25.0173    1.2637  101.9164 H         1 UDH406      0.0000 
     51 H          26.3772    2.3974  101.9878 H         1 UDH406      0.0000 
     52 H          26.5615    2.2776  104.2867 H         1 UDH406      0.0000 
     53 H          25.9105    0.6313  104.3642 H         1 UDH406      0.0000 
     54 H          24.3084    2.2599  105.1894 H         1 UDH406      0.0000 
     55 H          24.3109    3.0547  103.7913 H         1 UDH406      0.0000 
     56 H          23.7210    1.5605  103.8657 H         1 UDH406      0.0000 
     57 H          34.0534    2.0860   91.1838 H         1 UDH406      0.0000 
     58 H          32.4178    3.8090   94.9624 H         1 UDH406      0.0000 
@<TRIPOS>BOND
     1    2    1 am   
     2    6    1 1    
     3    9    1 1    
     4    3    2 am   
     5    7    2 2    
     6    4    3 am   
     7   33    3 1    
     8    5    4 1    
     9    8    4 2    
    10    6    5 2    
    11   34    5 1    
    12   35    6 1    
    13   10    9 1    
    14   14    9 1    
    15   36    9 1    
    16   11   10 1    
    17   12   10 1    
    18   37   10 1    
    19   57   11 1    
    20   13   12 1    
    21   15   12 1    
    22   38   12 1    
    23   14   13 1    
    24   16   13 1    
    25   39   13 1    
    26   58   15 1    
    27   17   16 1    
    28   40   16 1    
    29   41   16 1    
    30   18   17 1    
    31   19   18 ar   
    32   20   18 ar   
    33   21   18 1    
    34   22   21 1    
    35   23   22 ar   
    36   24   22 1    
    37   25   22 ar   
    38   26   24 1    
    39   27   26 1    
    40   42   26 1    
    41   43   26 1    
    42   28   27 1    
    43   44   27 1    
    44   45   27 1    
    45   29   28 1    
    46   46   28 1    
    47   47   28 1    
    48   30   29 1    
    49   48   29 1    
    50   49   29 1    
    51   31   30 1    
    52   50   30 1    
    53   51   30 1    
    54   32   31 1    
    55   52   31 1    
    56   53   31 1    
    57   54   32 1    
    58   55   32 1    
    59   56   32 1    
@<TRIPOS>SUBSTRUCTURE
     1 UDH406      1 GROUP   
@<TRIPOS>SET

