#    Name: 3i5n_B2D_1_INTS_M
#    Modification time : Tue Mar 25 15:53:52 2014

@<TRIPOS>MOLECULE
3i5n_B2D_1_INTS_M
   66     0     6     0     0
SMALL
NO_CHARGES


@<TRIPOS>ATOM
      1 N          20.7945   17.1590   56.8590 N.am      1 SEC2        0.0000 
      2 N          20.7950   15.6250   56.7240 N.am      5 SEL2        0.0000 
      3 N          20.7940   18.6930   56.9940 N.am      3 SEP2        0.0000 
      4 CA         18.9665   12.7630   59.6690 C.3       2 GLC5        0.0000 
      5 CA         17.0950   12.2850   58.8010 C.3       6 GLL5        0.0000 
      6 CA         20.8380   13.2410   60.5370 C.3       4 GLP5        0.0000 
      7 CA         15.7850   12.2920   57.6100 C.3       2 GLC5        0.0000 
      8 CA         17.2690   10.9250   58.5310 C.3       6 GLL5        0.0000 
      9 CA         14.3010   13.6590   56.6890 C.3       4 GLP5        0.0000 
     10 CA         22.0035    9.5370   55.0705 C.3       2 GLC5        0.0000 
     11 CA         22.0310   10.7830   56.8120 C.3       6 GLL5        0.0000 
     12 CA         21.9760    8.2910   53.3290 C.3       4 GLP5        0.0000 
     13 CA         26.0935    9.7520   58.2160 C.3       2 GLC5        0.0000 
     14 CA         24.2690   10.9030   57.7070 C.3       6 GLL5        0.0000 
     15 CA         27.9180    8.6010   58.7250 C.3       4 GLP5        0.0000 
     16 CA         24.9420   11.5700   59.3350 C.3       2 GLC5        0.0000 
     17 CA         25.6150   12.2370   60.9630 C.3       4 GLP5        0.0000 
     18 CA         20.7395    8.8660   55.9425 C.3       2 GLC5        0.0000 
     19 CA         21.8100    9.6880   57.6450 C.3       6 GLL5        0.0000 
     20 CA         19.6690    8.0440   54.2400 C.3       4 GLP5        0.0000 
     21 CA         18.6090    7.5450   57.1460 C.3       2 GLC5        0.0000 
     22 CA         20.3620    8.0410   58.4140 C.3       6 GLL5        0.0000 
     23 CA         16.8560    7.0490   55.8780 C.3       4 GLP5        0.0000 
     24 CA         20.0155    8.0425   56.3270 C.3       2 GLC5        0.0000 
     25 CA         23.5830    5.4875   60.1175 C.3       2 GLC5        0.0000 
     26 CA         21.9440    5.9680   61.0100 C.3       6 GLL5        0.0000 
     27 CA         25.2220    5.0070   59.2250 C.3       4 GLP5        0.0000 
     28 CA         23.8130   12.4520   55.1585 C.3       2 GLC5        0.0000 
     29 CA         23.2870   11.3940   56.8420 C.3       6 GLL5        0.0000 
     30 CA         24.3390   13.5100   53.4750 C.3       4 GLP5        0.0000 
     31 CA         22.7210   12.9535   54.3180 C.3       2 GLC5        0.0000 
     32 CA         21.1030   12.3970   55.1610 C.3       6 GLL5        0.0000 
     33 CA         19.4320   13.2860   54.6610 C.3       2 GLC5        0.0000 
     34 CA         17.7610   14.1750   54.1610 C.3       4 GLP5        0.0000 
     35 CA         20.6085   16.5095   58.7070 C.3       2 GLC5        0.0000 
     36 CA         18.9250   15.4470   58.3700 C.3       6 GLL5        0.0000 
     37 CA         22.2920   17.5720   59.0440 C.3       4 GLP5        0.0000 
     38 CA         18.6355   17.2000   57.6030 C.3       2 GLC5        0.0000 
     39 CA         18.3460   18.9530   56.8360 C.3       4 GLP5        0.0000 
     40 CA         17.6825   13.7575   60.9350 C.3       2 GLC5        0.0000 
     41 CA         18.0070   14.5210   58.8470 C.3       6 GLL5        0.0000 
     42 CA         17.3580   12.9940   63.0230 C.3       4 GLP5        0.0000 
     43 CA         16.1540   14.0900   57.7680 C.3       2 GLC5        0.0000 
     44 CA         16.6050    8.5205   57.4465 C.3       2 GLC5        0.0000 
     45 CA         16.3540    9.9920   59.0150 C.3       6 GLL5        0.0000 
     46 CA         16.5847   12.5622   61.3174 C.3       2 GLC5        0.0000 
     47 CA         15.0562   12.8948   58.1504 C.3       2 GLC5        0.0000 
     48 CA         15.9950   12.6990   59.5600 C.3       6 GLL5        0.0000 
     49 CA         21.7987   10.9537   58.8498 C.3       2 GLC5        0.0000 
     50 CA         21.6770   11.6720   60.4710 C.3       4 GLP5        0.0000 
     51 CA         24.4545    9.8392   56.2913 C.3       2 GLC5        0.0000 
     52 CA         25.1310    8.5300   55.3080 C.3       4 GLP5        0.0000 
     53 CA         22.7275   11.4103   58.8727 C.3       2 GLC5        0.0000 
     54 CA         21.2608    9.7278   59.6590 C.3       2 GLC5        0.0000 
     55 CA         21.3270    7.5260   59.2800 C.3       6 GLL5        0.0000 
     56 CA         23.8623    9.8435   60.2658 C.3       2 GLC5        0.0000 
     57 CA         22.5870    8.1330   59.3180 C.3       6 GLL5        0.0000 
     58 CA         25.0150   11.0060   61.6300 C.3       4 GLP5        0.0000 
     59 CA         22.1932   10.1765   59.6862 C.3       2 GLC5        0.0000 
     60 CA         22.8320    9.2290   58.4850 C.3       6 GLL5        0.0000 
     61 CA         23.7536    9.1311   56.5824 C.3       2 GLC5        0.0000 
     62 CA         17.8035   16.5600   59.7028 C.3       2 GLC5        0.0000 
     63 CA         17.1410   18.1360   60.7970 C.3       4 GLP5        0.0000 
     64 CA         19.6520   14.1125   59.5727 C.3       2 GLC5        0.0000 
     65 CA         22.0886    6.9653   57.5176 C.3       2 GLC5        0.0000 
     66 CA         22.5280    5.6410   56.2660 C.3       4 GLP5        0.0000 
@<TRIPOS>BOND
@<TRIPOS>SUBSTRUCTURE
     1 SEC2        1 GROUP        1 X    SEC  0     ROOT SEC X 2
     2 GLC5        4 GROUP        1 X    GLC  0     **** GLC X 6
     3 SEP2        3 GROUP        1 Y    SEP  0     ROOT SEP Y 9
     4 GLP5        6 GROUP        1 Y    GLP  0     **** GLP Y 13
     5 SEL2        2 GROUP        1 Z    SEL  0     ROOT SEL Z 16
     6 GLL5        5 GROUP        1 Z    GLL  0     **** GLL Z 20
@<TRIPOS>SET

