#    Name: 3i5n_B2D_1_ligand
#    Modification time : Tue Mar 25 15:53:52 2014

@<TRIPOS>MOLECULE
3i5n_B2D_1_ligand
   47    51     1     0     0
SMALL
NO_CHARGES


@<TRIPOS>ATOM
      1 N1         19.7420   13.7030   56.9300 N.pl3     1 B2D1        0.0000 
      2 N3         20.7950   15.6250   56.7240 N.2       1 B2D1        0.0000 
      3 C4         19.8090   15.0190   57.3880 C.2       1 B2D1        0.0000 
      4 C5         17.0950   12.2850   58.8010 C.ar      1 B2D1        0.0000 
      5 C6         15.9950   12.6990   59.5600 C.ar      1 B2D1        0.0000 
      6 C7         15.0780   11.7690   60.0430 C.ar      1 B2D1        0.0000 
      7 C8         15.2590   10.4130   59.7710 C.ar      1 B2D1        0.0000 
      8 C10        17.2690   10.9250   58.5310 C.ar      1 B2D1        0.0000 
      9 C13        22.0310   10.7830   56.8120 C.ar      1 B2D1        0.0000 
     10 C15        24.2690   10.9030   57.7070 C.ar      1 B2D1        0.0000 
     11 C17        21.8100    9.6880   57.6450 C.ar      1 B2D1        0.0000 
     12 C20        20.3620    8.0410   58.4140 C.ar      1 B2D1        0.0000 
     13 C21        21.9440    5.9680   61.0100 C.3       1 B2D1        0.0000 
     14 O1         20.9740    6.4450   60.0500 O.3       1 B2D1        0.0000 
     15 C19        21.3270    7.5260   59.2800 C.ar      1 B2D1        0.0000 
     16 C18        22.5870    8.1330   59.3180 C.ar      1 B2D1        0.0000 
     17 N7         20.6130    9.0800   57.6350 N.ar      1 B2D1        0.0000 
     18 C16        22.8320    9.2290   58.4850 C.ar      1 B2D1        0.0000 
     19 N6         24.0280    9.8520   58.4900 N.pl3     1 B2D1        0.0000 
     20 C14        23.2870   11.3940   56.8420 C.ar      1 B2D1        0.0000 
     21 N5         21.0340   11.1950   56.0110 N.pl3     1 B2D1        0.0000 
     22 C12        21.1030   12.3970   55.1610 C.3       1 B2D1        0.0000 
     23 C11        20.7620   13.6490   55.9760 C.2       1 B2D1        0.0000 
     24 N2         18.9140   12.8890   57.3670 N.2       1 B2D1        0.0000 
     25 N4         21.3370   14.8530   55.9210 N.2       1 B2D1        0.0000 
     26 C3         18.9250   15.4470   58.3700 C.2       1 B2D1        0.0000 
     27 C2         18.0070   14.5210   58.8470 C.2       1 B2D1        0.0000 
     28 C1         18.0140   13.2240   58.3220 C.2       1 B2D1        0.0000 
     29 C9         16.3540    9.9920   59.0150 C.ar      1 B2D1        0.0000 
     30 H          15.8649   13.7011   59.7617 H         1 B2D1        0.0000 
     31 H          14.2724   12.0788   60.5967 H         1 B2D1        0.0000 
     32 H          14.5862    9.7235   60.1271 H         1 B2D1        0.0000 
     33 H          18.0747   10.6137   57.9737 H         1 B2D1        0.0000 
     34 H          25.1939   11.3858   57.7186 H         1 B2D1        0.0000 
     35 H          19.4230    7.5701   58.4035 H         1 B2D1        0.0000 
     36 H          23.3114    7.7831   59.9404 H         1 B2D1        0.0000 
     37 H          24.7857    9.4938   59.1310 H         1 B2D1        0.0000 
     38 H          23.4864   12.1930   56.2369 H         1 B2D1        0.0000 
     39 H          20.1278   10.6633   55.9497 H         1 B2D1        0.0000 
     40 H          20.3955   12.3239   54.3313 H         1 B2D1        0.0000 
     41 H          22.1069   12.5195   54.7469 H         1 B2D1        0.0000 
     42 H          18.9491   16.3931   58.7226 H         1 B2D1        0.0000 
     43 H          17.3344   14.7779   59.5705 H         1 B2D1        0.0000 
     44 H          16.4849    8.9925   58.8155 H         1 B2D1        0.0000 
     45 H          22.7938    5.6808   60.5680 H         1 B2D1        0.0000 
     46 H          22.1844    6.6733   61.6769 H         1 B2D1        0.0000 
     47 H          21.6014    5.1823   61.5250 H         1 B2D1        0.0000 
@<TRIPOS>BOND
     1    3    1 1    
     2   23    1 1    
     3   24    1 1    
     4    3    2 2    
     5   25    2 1    
     6   26    3 1    
     7    5    4 ar   
     8    8    4 ar   
     9   28    4 1    
    10    6    5 ar   
    11   30    5 1    
    12    7    6 ar   
    13   31    6 1    
    14   29    7 ar   
    15   32    7 1    
    16   29    8 ar   
    17   33    8 1    
    18   11    9 ar   
    19   20    9 ar   
    20   21    9 1    
    21   19   10 ar   
    22   20   10 ar   
    23   34   10 1    
    24   17   11 ar   
    25   18   11 ar   
    26   15   12 ar   
    27   17   12 ar   
    28   35   12 1    
    29   14   13 1    
    30   45   13 1    
    31   46   13 1    
    32   47   13 1    
    33   15   14 1    
    34   16   15 ar   
    35   18   16 ar   
    36   36   16 1    
    37   19   18 ar   
    38   37   19 1    
    39   38   20 1    
    40   22   21 1    
    41   39   21 1    
    42   23   22 1    
    43   40   22 1    
    44   41   22 1    
    45   25   23 2    
    46   28   24 2    
    47   27   26 2    
    48   42   26 1    
    49   28   27 1    
    50   43   27 1    
    51   44   29 1    
@<TRIPOS>SUBSTRUCTURE
     1 B2D1        1 GROUP   
@<TRIPOS>SET

