#    Name: 3cgf_JNF_1_INTS_M
#    Modification time : Mon Mar 24 21:17:47 2014

@<TRIPOS>MOLECULE
3cgf_JNF_1_INTS_M
   61     0     6     0     0
SMALL
NO_CHARGES


@<TRIPOS>ATOM
      1 CA         24.9080   15.5805   31.1360 C.3       2 GLC5        0.0000 
      2 CA         23.3980   14.4120   31.4350 C.3       6 GLL5        0.0000 
      3 CA         26.4180   16.7490   30.8370 C.3       4 GLP5        0.0000 
      4 CA         23.3320   13.4855   33.3405 C.3       2 GLC5        0.0000 
      5 CA         23.2660   12.5590   35.2460 C.3       4 GLP5        0.0000 
      6 CA         22.1535   15.1635   32.9205 C.3       2 GLC5        0.0000 
      7 CA         20.9090   15.9150   34.4060 C.3       4 GLP5        0.0000 
      8 CA         22.7345   12.4505   33.5830 C.3       2 GLC5        0.0000 
      9 CA         22.2030   12.3420   31.9200 C.3       6 GLL5        0.0000 
     10 CA         20.8000   12.1595   30.6125 C.3       2 GLC5        0.0000 
     11 CA         19.3970   11.9770   29.3050 C.3       4 GLP5        0.0000 
     12 CA         20.1035   11.2090   30.8640 C.3       2 GLC5        0.0000 
     13 CA         20.8100   10.4410   32.4230 C.3       6 GLL5        0.0000 
     14 CA         22.1775    7.8785   33.5820 C.3       2 GLC5        0.0000 
     15 CA         20.6370    8.9730   32.4020 C.3       6 GLL5        0.0000 
     16 CA         23.7180    6.7840   34.7620 C.3       4 GLP5        0.0000 
     17 CA         20.1475    8.6830   30.3290 C.3       2 GLC5        0.0000 
     18 CA         19.6580    8.3930   28.2560 C.3       4 GLP5        0.0000 
     19 CA         20.3025    7.5715   30.1980 C.3       2 GLC5        0.0000 
     20 CA         20.9470    6.7500   32.1400 C.3       6 GLL5        0.0000 
     21 CA         22.9580    4.5665   29.3835 C.3       2 GLC5        0.0000 
     22 CA         22.9680    5.7590   31.2180 C.3       6 GLL5        0.0000 
     23 CA         22.9480    3.3740   27.5490 C.3       4 GLP5        0.0000 
     24 CA         21.2560    8.2875   29.8345 C.3       2 GLC5        0.0000 
     25 CA         22.8540    8.1820   31.4130 C.3       6 GLL5        0.0000 
     26 CA         18.5975   10.9920   31.5330 C.3       2 GLC5        0.0000 
     27 CA         19.7790   11.2500   32.8930 C.3       6 GLL5        0.0000 
     28 CA         17.4160   10.7340   30.1730 C.3       4 GLP5        0.0000 
     29 CA         20.4730   14.2690   33.6275 C.3       2 GLC5        0.0000 
     30 CA         20.0370   12.6230   32.8490 C.3       6 GLL5        0.0000 
     31 CA         19.7170   12.3000   31.0770 C.3       2 GLC5        0.0000 
     32 N          20.5170   14.7050   32.8975 N.am      1 SEC2        0.0000 
     33 N          21.2060   13.1870   32.3760 N.am      5 SEL2        0.0000 
     34 N          19.8280   16.2230   33.4190 N.am      3 SEP2        0.0000 
     35 CA         21.2750   12.0815   29.1495 C.3       2 GLC5        0.0000 
     36 CA         23.1530   12.1860   28.9940 C.3       6 GLL5        0.0000 
     37 CA         23.9385   12.4690   26.1100 C.3       2 GLC5        0.0000 
     38 CA         23.9100   11.5850   27.7900 C.3       6 GLL5        0.0000 
     39 CA         23.9670   13.3530   24.4300 C.3       4 GLP5        0.0000 
     40 CA         24.4685    8.7685   26.7965 C.3       2 GLC5        0.0000 
     41 CA         24.5210   10.2090   28.1200 C.3       6 GLL5        0.0000 
     42 CA         24.4160    7.3280   25.4730 C.3       4 GLP5        0.0000 
     43 CA         22.0127    9.9050   34.0533 C.3       2 GLC5        0.0000 
     44 CA         23.3020   10.1030   35.6940 C.3       4 GLP5        0.0000 
     45 CA         20.0843    8.0578   34.5953 C.3       2 GLC5        0.0000 
     46 CA         20.0770    7.5300   36.5790 C.3       4 GLP5        0.0000 
     47 CA         18.7538    9.6598   31.3923 C.3       2 GLC5        0.0000 
     48 CA         19.5460    8.1980   32.8210 C.3       6 GLL5        0.0000 
     49 CA         22.5237    6.4780   33.3515 C.3       2 GLC5        0.0000 
     50 CA         21.3568    5.2460   33.6815 C.3       2 GLC5        0.0000 
     51 CA         21.3840    4.3200   35.4220 C.3       4 GLP5        0.0000 
     52 CA         19.8232    5.1805   31.1810 C.3       2 GLC5        0.0000 
     53 CA         21.7120    5.5940   31.7420 C.3       6 GLL5        0.0000 
     54 CA         18.3170    4.1890   30.4210 C.3       4 GLP5        0.0000 
     55 CA         23.3895    7.0439   33.0165 C.3       2 GLC5        0.0000 
     56 CA         21.5870   12.2477   34.0585 C.3       2 GLC5        0.0000 
     57 CA         19.0305   11.7692   34.4950 C.3       2 GLC5        0.0000 
     58 CA         18.1530   11.6020   36.1190 C.3       4 GLP5        0.0000 
     59 CA         26.4945   10.4358   31.3302 C.3       2 GLC5        0.0000 
     60 CA         24.7430   10.9790   30.5650 C.3       6 GLL5        0.0000 
     61 CA         27.9080   10.2520   32.6960 C.3       4 GLP5        0.0000 
@<TRIPOS>BOND
@<TRIPOS>SUBSTRUCTURE
     1 SEC2       32 GROUP        1 X    SEC  0     ROOT SEC X 2
     2 GLC5        1 GROUP        1 X    GLC  0     **** GLC X 6
     3 SEP2       34 GROUP        1 Y    SEP  0     ROOT SEP Y 9
     4 GLP5        3 GROUP        1 Y    GLP  0     **** GLP Y 13
     5 SEL2       33 GROUP        1 Z    SEL  0     ROOT SEL Z 16
     6 GLL5        2 GROUP        1 Z    GLL  0     **** GLL Z 20
@<TRIPOS>SET

