#    Name: 3cgf_JNF_1_ligand
#    Modification time : Mon Mar 24 21:17:48 2014

@<TRIPOS>MOLECULE
3cgf_JNF_1_ligand
   45    48     1     0     0
SMALL
NO_CHARGES


@<TRIPOS>ATOM
      1 C01        23.3980   14.4120   31.4350 C.3       1 JNF523      0.0000 
      2 N02        23.4600   12.9400   31.4580 N.pl3     1 JNF523      0.0000 
      3 C03        22.2030   12.3420   31.9200 C.ar      1 JNF523      0.0000 
      4 N04        22.0200   10.9450   31.9390 N.ar      1 JNF523      0.0000 
      5 C05        20.8100   10.4410   32.4230 C.ar      1 JNF523      0.0000 
      6 C06        20.6370    8.9730   32.4020 C.2       1 JNF523      0.0000 
      7 N07        21.5540    8.0260   31.9580 N.pl3     1 JNF523      0.0000 
      8 C08        20.9470    6.7500   32.1400 C.2       1 JNF523      0.0000 
      9 C09        21.7120    5.5940   31.7420 C.2       1 JNF523      0.0000 
     10 C10        22.9680    5.7590   31.2180 C.2       1 JNF523      0.0000 
     11 C11        23.5680    7.0920   31.0400 C.2       1 JNF523      0.0000 
     12 C12        22.8540    8.1820   31.4130 C.2       1 JNF523      0.0000 
     13 N13        19.7500    6.8430   32.6510 N.pl3     1 JNF523      0.0000 
     14 C14        19.5460    8.1980   32.8210 C.2       1 JNF523      0.0000 
     15 C15        19.7790   11.2500   32.8930 C.ar      1 JNF523      0.0000 
     16 C16        20.0370   12.6230   32.8490 C.ar      1 JNF523      0.0000 
     17 N17        21.2060   13.1870   32.3760 N.ar      1 JNF523      0.0000 
     18 C18        24.0810   12.3550   30.2260 C.3       1 JNF523      0.0000 
     19 C19        23.1530   12.1860   28.9940 C.3       1 JNF523      0.0000 
     20 C20        23.9100   11.5850   27.7900 C.3       1 JNF523      0.0000 
     21 C21        24.5210   10.2090   28.1200 C.3       1 JNF523      0.0000 
     22 C22        25.4190   10.2600   29.3640 C.3       1 JNF523      0.0000 
     23 C23        24.7430   10.9790   30.5650 C.3       1 JNF523      0.0000 
     24 H          21.2920    4.6711   31.8628 H         1 JNF523      0.0000 
     25 H          23.5441    4.9531   30.9268 H         1 JNF523      0.0000 
     26 H          24.4981    7.1367   30.6423 H         1 JNF523      0.0000 
     27 H          23.2306    9.1354   31.3120 H         1 JNF523      0.0000 
     28 H          19.1270    6.1667   32.8721 H         1 JNF523      0.0000 
     29 H          18.7285    8.5883   33.1943 H         1 JNF523      0.0000 
     30 H          18.9230   10.8817   33.2346 H         1 JNF523      0.0000 
     31 H          19.2773   13.2726   33.2056 H         1 JNF523      0.0000 
     32 H          24.9247   13.0067   29.9084 H         1 JNF523      0.0000 
     33 H          22.7558   13.1598   28.7164 H         1 JNF523      0.0000 
     34 H          22.3286   11.5289   29.2619 H         1 JNF523      0.0000 
     35 H          24.7078   12.2680   27.4959 H         1 JNF523      0.0000 
     36 H          23.2178   11.4765   26.9542 H         1 JNF523      0.0000 
     37 H          25.1102    9.8690   27.2660 H         1 JNF523      0.0000 
     38 H          23.7133    9.4943   28.2898 H         1 JNF523      0.0000 
     39 H          26.3455   10.7869   29.1199 H         1 JNF523      0.0000 
     40 H          25.6745    9.2411   29.6676 H         1 JNF523      0.0000 
     41 H          23.9710   10.3166   30.9851 H         1 JNF523      0.0000 
     42 H          25.4967   11.1406   31.3505 H         1 JNF523      0.0000 
     43 H          24.2572   14.8150   31.1197 H         1 JNF523      0.0000 
     44 H          22.6777   14.7439   30.8259 H         1 JNF523      0.0000 
     45 H          23.2123   14.7901   32.3419 H         1 JNF523      0.0000 
@<TRIPOS>BOND
     1    2    1 1    
     2   43    1 1    
     3   44    1 1    
     4   45    1 1    
     5    3    2 1    
     6   18    2 1    
     7    4    3 ar   
     8   17    3 ar   
     9    5    4 ar   
    10    6    5 1    
    11   15    5 ar   
    12    7    6 1    
    13   14    6 2    
    14    8    7 1    
    15   12    7 1    
    16    9    8 1    
    17   13    8 2    
    18   10    9 2    
    19   24    9 1    
    20   11   10 1    
    21   25   10 1    
    22   12   11 2    
    23   26   11 1    
    24   27   12 1    
    25   14   13 1    
    26   28   13 1    
    27   29   14 1    
    28   16   15 ar   
    29   30   15 1    
    30   17   16 ar   
    31   31   16 1    
    32   19   18 1    
    33   23   18 1    
    34   32   18 1    
    35   20   19 1    
    36   33   19 1    
    37   34   19 1    
    38   21   20 1    
    39   35   20 1    
    40   36   20 1    
    41   22   21 1    
    42   37   21 1    
    43   38   21 1    
    44   23   22 1    
    45   39   22 1    
    46   40   22 1    
    47   41   23 1    
    48   42   23 1    
@<TRIPOS>SUBSTRUCTURE
     1 JNF523      1 GROUP   
@<TRIPOS>SET

