#    Name: 1sqn_NDR_1_INTS_M
#    Modification time : Tue Mar 25 02:39:25 2014

@<TRIPOS>MOLECULE
1sqn_NDR_1_INTS_M
   72     0     6     0     0
SMALL
NO_CHARGES


@<TRIPOS>ATOM
      1 N          -4.7550   -0.4990   31.9320 N.am      1 SEC2        0.0000 
      2 N          -4.1220   -1.1470   30.7680 N.am      5 SEL2        0.0000 
      3 N          -5.3880    0.1490   33.0960 N.am      3 SEP2        0.0000 
      4 CA         -4.9545    1.7190   31.7930 C.3       2 GLC5        0.0000 
      5 CA         -4.4900    0.9880   29.7420 C.3       6 GLL5        0.0000 
      6 CA         -5.4190    2.4500   33.8440 C.3       4 GLP5        0.0000 
      7 CA         -2.0335   -2.5660   29.7570 C.3       2 GLC5        0.0000 
      8 CA         -2.5860   -0.6780   29.1600 C.3       6 GLL5        0.0000 
      9 CA         -1.4810   -4.4540   30.3540 C.3       4 GLP5        0.0000 
     10 CA         -3.9340   -1.8005   28.2945 C.3       2 GLC5        0.0000 
     11 CA         -5.2820   -2.9230   27.4290 C.3       4 GLP5        0.0000 
     12 CA         -3.2825   -1.4225   27.1995 C.3       2 GLC5        0.0000 
     13 CA         -2.1910    0.2160   28.1060 C.3       6 GLL5        0.0000 
     14 CA         -4.3740   -3.0610   26.2930 C.3       4 GLP5        0.0000 
     15 CA          0.5040   -1.1055   28.6810 C.3       2 GLC5        0.0000 
     16 CA         -0.8560   -0.1210   27.4590 C.3       6 GLL5        0.0000 
     17 CA          1.8640   -2.0900   29.9030 C.3       4 GLP5        0.0000 
     18 CA         -4.8335   -0.8155   27.8460 C.3       2 GLC5        0.0000 
     19 CA         -4.3850    1.2920   28.2630 C.3       6 GLL5        0.0000 
     20 CA          1.1845   -0.1825   25.6420 C.3       2 GLC5        0.0000 
     21 CA         -0.9620    0.0700   25.9880 C.3       6 GLL5        0.0000 
     22 CA          3.3310   -0.4350   25.2960 C.3       4 GLP5        0.0000 
     23 CA         -0.4225    5.7035   25.5955 C.3       2 GLC5        0.0000 
     24 CA         -1.4140    4.2380   24.2320 C.3       6 GLL5        0.0000 
     25 CA          0.5690    7.1690   26.9590 C.3       4 GLP5        0.0000 
     26 CA          0.4060    4.5275   24.6845 C.3       2 GLC5        0.0000 
     27 CA          2.2260    4.8170   25.1370 C.3       4 GLP5        0.0000 
     28 CA         -0.6620    5.8260   23.5025 C.3       2 GLC5        0.0000 
     29 CA          0.0900    7.4140   22.7730 C.3       4 GLP5        0.0000 
     30 CA         -2.3945    5.6510   24.9750 C.3       2 GLC5        0.0000 
     31 CA         -3.3750    7.0640   25.7180 C.3       4 GLP5        0.0000 
     32 CA          1.5725    0.6310   23.5445 C.3       2 GLC5        0.0000 
     33 CA         -0.2250    1.5110   23.2800 C.3       6 GLL5        0.0000 
     34 CA          3.3700   -0.2490   23.8090 C.3       4 GLP5        0.0000 
     35 CA         -5.3045    0.4300   21.8775 C.3       2 GLC5        0.0000 
     36 CA         -3.7620    1.2630   20.9700 C.3       6 GLL5        0.0000 
     37 CA         -6.8470   -0.4030   22.7850 C.3       4 GLP5        0.0000 
     38 CA         -4.2960   -0.5940   20.5970 C.3       2 GLC5        0.0000 
     39 CA         -4.8300   -2.4510   20.2240 C.3       4 GLP5        0.0000 
     40 CA         -2.8810    1.5315   19.3350 C.3       2 GLC5        0.0000 
     41 CA         -2.0000    1.8000   17.7000 C.3       4 GLP5        0.0000 
     42 CA         -6.2293    0.3970   29.5208 C.3       2 GLC5        0.0000 
     43 CA         -8.0210   -0.3460   30.0390 C.3       4 GLP5        0.0000 
     44 CA         -4.9688    3.1590   29.3848 C.3       2 GLC5        0.0000 
     45 CA         -5.5000    5.1780   29.7670 C.3       4 GLP5        0.0000 
     46 CA         -0.8886    0.8070   29.5265 C.3       2 GLC5        0.0000 
     47 CA         -0.1550    1.7900   31.0070 C.3       4 GLP5        0.0000 
     48 CA         -0.4195   -1.5613   25.6677 C.3       2 GLC5        0.0000 
     49 CA          0.0700   -3.0970   24.6120 C.3       4 GLP5        0.0000 
     50 CA         -2.7059    2.6202   29.4904 C.3       2 GLC5        0.0000 
     51 CA         -2.9580    1.3330   27.6770 C.3       6 GLL5        0.0000 
     52 CA         -1.7140    4.0040   30.6410 C.3       4 GLP5        0.0000 
     53 CA          0.3410    2.0208   25.9655 C.3       2 GLC5        0.0000 
     54 CA         -1.6160    1.3810   25.5500 C.3       6 GLL5        0.0000 
     55 CA          1.9710    3.3160   26.1620 C.3       4 GLP5        0.0000 
     56 CA         -5.4703    2.2135   24.6642 C.3       2 GLC5        0.0000 
     57 CA         -3.6500    2.8190   25.7550 C.3       6 GLL5        0.0000 
     58 CA         -7.3690    1.4800   24.3540 C.3       4 GLP5        0.0000 
     59 CA         -3.4733    5.0055   25.3462 C.3       2 GLC5        0.0000 
     60 CA          0.5683    2.4642   24.9417 C.3       2 GLC5        0.0000 
     61 CA         -1.4440    1.7140   24.1630 C.3       6 GLL5        0.0000 
     62 CA         -0.1410    4.3585   21.9410 C.3       2 GLC5        0.0000 
     63 CA         -0.4500    2.3470   22.0170 C.3       6 GLL5        0.0000 
     64 CA          0.8860    6.0860   21.8140 C.3       4 GLP5        0.0000 
     65 CA         -0.5833    0.3545   21.5052 C.3       2 GLC5        0.0000 
     66 CA         -0.8290   -1.2200   20.3620 C.3       4 GLP5        0.0000 
     67 CA         -4.8325    1.7390   20.0727 C.3       2 GLC5        0.0000 
     68 CA         -2.8680    2.0190   21.4830 C.3       6 GLL5        0.0000 
     69 CA         -6.3500    1.8370   18.9190 C.3       4 GLP5        0.0000 
     70 CA         -2.0720    0.2105   20.7942 C.3       2 GLC5        0.0000 
     71 CA         -1.4135    2.2945   20.0098 C.3       2 GLC5        0.0000 
     72 CA         -0.8090    2.2640   18.2440 C.3       4 GLP5        0.0000 
@<TRIPOS>BOND
@<TRIPOS>SUBSTRUCTURE
     1 SEC2        1 GROUP        1 X    SEC  0     ROOT SEC X 2
     2 GLC5        4 GROUP        1 X    GLC  0     **** GLC X 6
     3 SEP2        3 GROUP        1 Y    SEP  0     ROOT SEP Y 9
     4 GLP5        6 GROUP        1 Y    GLP  0     **** GLP Y 13
     5 SEL2        2 GROUP        1 Z    SEL  0     ROOT SEL Z 16
     6 GLL5        5 GROUP        1 Z    GLL  0     **** GLL Z 20
@<TRIPOS>SET

