#    Name: 1sqn_NDR_1_ligand
#    Modification time : Tue Mar 25 02:39:25 2014

@<TRIPOS>MOLECULE
1sqn_NDR_1_ligand
   43    46     1     0     0
SMALL
NO_CHARGES


@<TRIPOS>ATOM
      1 O22        -4.1220   -1.1470   30.7680 O.2       1 NDR1001     0.0000 
      2 C21        -3.7310   -0.3340   29.9590 C.2       1 NDR1001     0.0000 
      3 C20        -4.4900    0.9880   29.7420 C.3       1 NDR1001     0.0000 
      4 C19        -2.5860   -0.6780   29.1600 C.2       1 NDR1001     0.0000 
      5 C17        -2.1910    0.2160   28.1060 C.2       1 NDR1001     0.0000 
      6 C15        -0.8560   -0.1210   27.4590 C.3       1 NDR1001     0.0000 
      7 C14        -2.9580    1.3330   27.6770 C.2       1 NDR1001     0.0000 
      8 C18        -4.3850    1.2920   28.2630 C.3       1 NDR1001     0.0000 
      9 C8         -2.8080    1.6270   26.2540 C.2       1 NDR1001     0.0000 
     10 C3         -1.6160    1.3810   25.5500 C.2       1 NDR1001     0.0000 
     11 C9         -0.9620    0.0700   25.9880 C.3       1 NDR1001     0.0000 
     12 C13        -3.6500    2.8190   25.7550 C.3       1 NDR1001     0.0000 
     13 C6         -3.4930    3.0750   24.1940 C.3       1 NDR1001     0.0000 
     14 C2         -2.1050    2.9940   23.6570 C.3       1 NDR1001     0.0000 
     15 C1         -1.4440    1.7140   24.1630 C.2       1 NDR1001     0.0000 
     16 C7         -1.4140    4.2380   24.2320 C.3       1 NDR1001     0.0000 
     17 C5         -1.8860    2.9150   22.1190 C.3       1 NDR1001     0.0000 
     18 O12        -1.9890    4.1550   21.4200 O.3       1 NDR1001     0.0000 
     19 C10        -0.4500    2.3470   22.0170 C.3       1 NDR1001     0.0000 
     20 C4         -0.2250    1.5110   23.2800 C.3       1 NDR1001     0.0000 
     21 C11        -2.8680    2.0190   21.4830 C.1       1 NDR1001     0.0000 
     22 C16        -3.7620    1.2630   20.9700 C.1       1 NDR1001     0.0000 
     23 H          -4.0193    1.7604   30.3123 H         1 NDR1001     0.0000 
     24 H          -5.5138    0.8544   30.0199 H         1 NDR1001     0.0000 
     25 H          -2.0751   -1.5220   29.3342 H         1 NDR1001     0.0000 
     26 H          -0.6038   -1.1537   27.6881 H         1 NDR1001     0.0000 
     27 H          -0.0900    0.5324   27.8700 H         1 NDR1001     0.0000 
     28 H          -4.8714    2.2702   28.0549 H         1 NDR1001     0.0000 
     29 H          -4.9707    0.5386   27.6919 H         1 NDR1001     0.0000 
     30 H          -1.5380   -0.7692   25.5410 H         1 NDR1001     0.0000 
     31 H           0.0492    0.0185   25.5289 H         1 NDR1001     0.0000 
     32 H          -3.3451    3.7269   26.2742 H         1 NDR1001     0.0000 
     33 H          -4.7042    2.6346   25.9584 H         1 NDR1001     0.0000 
     34 H          -3.9313    4.0733   23.9899 H         1 NDR1001     0.0000 
     35 H          -4.1508    2.3418   23.6838 H         1 NDR1001     0.0000 
     36 H           0.2465    3.1560   21.9884 H         1 NDR1001     0.0000 
     37 H          -0.3791    1.7244   21.1523 H         1 NDR1001     0.0000 
     38 H          -0.1372    0.4763   23.0112 H         1 NDR1001     0.0000 
     39 H           0.6543    1.8596   23.7859 H         1 NDR1001     0.0000 
     40 H          -0.4596    4.3010   23.9401 H         1 NDR1001     0.0000 
     41 H          -1.8657    5.0815   23.9413 H         1 NDR1001     0.0000 
     42 H          -1.4151    4.2346   25.2320 H         1 NDR1001     0.0000 
     43 H          -2.9710    4.3132   21.3171 H         1 NDR1001     0.0000 
@<TRIPOS>BOND
     1    2    1 2    
     2    3    2 1    
     3    4    2 1    
     4    8    3 1    
     5   23    3 1    
     6   24    3 1    
     7    5    4 2    
     8   25    4 1    
     9    6    5 1    
    10    7    5 1    
    11   11    6 1    
    12   26    6 1    
    13   27    6 1    
    14    8    7 1    
    15    9    7 2    
    16   28    8 1    
    17   29    8 1    
    18   10    9 1    
    19   12    9 1    
    20   11   10 1    
    21   15   10 2    
    22   30   11 1    
    23   31   11 1    
    24   13   12 1    
    25   32   12 1    
    26   33   12 1    
    27   14   13 1    
    28   34   13 1    
    29   35   13 1    
    30   15   14 1    
    31   16   14 1    
    32   17   14 1    
    33   20   15 1    
    34   40   16 1    
    35   41   16 1    
    36   42   16 1    
    37   18   17 1    
    38   19   17 1    
    39   21   17 1    
    40   43   18 1    
    41   20   19 1    
    42   36   19 1    
    43   37   19 1    
    44   38   20 1    
    45   39   20 1    
    46   22   21 3    
@<TRIPOS>SUBSTRUCTURE
     1 NDR1001     1 GROUP   
@<TRIPOS>SET

