#    Name: 2q59_240_1_INTS_M
#    Modification time : Mon Mar 24 20:45:56 2014

@<TRIPOS>MOLECULE
2q59_240_1_INTS_M
  112     0     6     0     0
SMALL
NO_CHARGES


@<TRIPOS>ATOM
      1 N         -16.2145   21.2120  -18.7975 N.am      1 SEC2        0.0000 
      2 N         -17.2410   21.0920  -19.7750 N.am      5 SEL2        0.0000 
      3 N         -15.1880   21.3320  -17.8200 N.am      3 SEP2        0.0000 
      4 N         -16.8935   20.2610  -20.8445 N.am      1 SEC2        0.0000 
      5 N         -16.5460   19.4300  -21.9140 N.am      3 SEP2        0.0000 
      6 N         -20.5220   20.3305  -20.1395 N.am      1 SEC2        0.0000 
      7 N         -19.3740   21.0320  -20.2960 N.am      5 SEL2        0.0000 
      8 N         -21.6700   19.6290  -19.9830 N.am      3 SEP2        0.0000 
      9 N         -19.3690   20.3000  -21.3130 N.am      1 SEC2        0.0000 
     10 N         -19.3640   19.5680  -22.3300 N.am      3 SEP2        0.0000 
     11 CA        -20.5710   24.2765  -18.1755 C.3       2 GLC5        0.0000 
     12 CA        -18.6830   23.3160  -18.0960 C.3       6 GLL5        0.0000 
     13 CA        -22.4590   25.2370  -18.2550 C.3       4 GLP5        0.0000 
     14 CA        -17.4470   24.7155  -17.6135 C.3       2 GLC5        0.0000 
     15 CA        -16.2110   26.1150  -17.1310 C.3       4 GLP5        0.0000 
     16 CA        -17.3985   24.1015  -19.5720 C.3       2 GLC5        0.0000 
     17 CA        -16.1140   24.8870  -21.0480 C.3       4 GLP5        0.0000 
     18 CA        -18.4880   23.5445  -16.0580 C.3       2 GLC5        0.0000 
     19 CA        -18.2930   23.7730  -14.0200 C.3       4 GLP5        0.0000 
     20 N         -16.5585   21.2875  -17.4660 N.am      1 SEC2        0.0000 
     21 N         -17.9290   21.2430  -17.1120 N.am      5 SEL2        0.0000 
     22 CA        -20.5250   16.5725  -16.7600 C.3       2 GLC5        0.0000 
     23 CA        -18.8120   17.6600  -16.9550 C.3       6 GLL5        0.0000 
     24 CA        -22.2380   15.4850  -16.5650 C.3       4 GLP5        0.0000 
     25 CA        -19.5485   15.7260  -15.2970 C.3       2 GLC5        0.0000 
     26 CA        -18.1110   17.2660  -15.8140 C.3       6 GLL5        0.0000 
     27 CA        -20.9860   14.1860  -14.7800 C.3       4 GLP5        0.0000 
     28 CA        -17.3870   22.1540  -14.4020 C.3       2 GLC5        0.0000 
     29 CA        -16.4810   20.5350  -14.7840 C.3       6 GLL5        0.0000 
     30 CA        -13.2085   20.9145  -16.6375 C.3       2 GLC5        0.0000 
     31 CA        -13.4870   19.6050  -15.3470 C.3       6 GLL5        0.0000 
     32 CA        -12.9300   22.2240  -17.9280 C.3       4 GLP5        0.0000 
     33 CA        -11.7140   19.4975  -16.5525 C.3       2 GLC5        0.0000 
     34 CA         -9.9410   19.3900  -17.7580 C.3       4 GLP5        0.0000 
     35 CA        -14.0720   18.0715  -16.4240 C.3       2 GLC5        0.0000 
     36 CA        -14.6570   16.5380  -17.5010 C.3       4 GLP5        0.0000 
     37 CA        -17.4895   18.6780   -8.4895 C.3       2 GLC5        0.0000 
     38 CA        -16.7930   19.8330  -10.2160 C.3       6 GLL5        0.0000 
     39 CA        -18.1860   17.5230   -6.7630 C.3       4 GLP5        0.0000 
     40 CA        -19.8340   21.8960   -6.4945 C.3       2 GLC5        0.0000 
     41 CA        -19.1530   20.8950   -7.8970 C.3       6 GLL5        0.0000 
     42 CA        -20.5150   22.8970   -5.0920 C.3       4 GLP5        0.0000 
     43 CA        -20.5595   19.9115   -7.3465 C.3       2 GLC5        0.0000 
     44 CA        -21.9660   18.9280   -6.7960 C.3       4 GLP5        0.0000 
     45 CA        -19.4725   23.5975   -9.1640 C.3       2 GLC5        0.0000 
     46 CA        -17.9420   22.2090   -9.1950 C.3       6 GLL5        0.0000 
     47 CA        -21.0030   24.9860   -9.1330 C.3       4 GLP5        0.0000 
     48 CA        -20.3395   23.0520   -9.5375 C.3       2 GLC5        0.0000 
     49 CA        -19.6760   21.1180   -9.9420 C.3       6 GLL5        0.0000 
     50 CA        -20.9830   19.8545  -10.4740 C.3       2 GLC5        0.0000 
     51 CA        -22.2900   18.5910  -11.0060 C.3       4 GLP5        0.0000 
     52 CA        -20.7880   21.8220  -10.8470 C.3       2 GLC5        0.0000 
     53 CA        -21.9000   22.5260  -11.7520 C.3       4 GLP5        0.0000 
     54 CA        -13.1635   17.7005  -10.0845 C.3       2 GLC5        0.0000 
     55 CA        -14.5160   19.0890  -10.4260 C.3       6 GLL5        0.0000 
     56 CA        -11.8110   16.3120   -9.7430 C.3       4 GLP5        0.0000 
     57 CA        -13.2635   16.9015  -15.7925 C.3       2 GLC5        0.0000 
     58 CA        -11.8700   17.2650  -14.0840 C.3       6 GLL5        0.0000 
     59 CA        -12.1640   15.5400  -16.5910 C.3       2 GLC5        0.0000 
     60 CA        -11.1630   16.4870  -14.9970 C.3       6 GLL5        0.0000 
     61 CA        -13.1650   14.5930  -18.1850 C.3       4 GLP5        0.0000 
     62 CA         -9.7930   17.3655  -17.4305 C.3       2 GLC5        0.0000 
     63 CA         -9.6450   15.3410  -17.1030 C.3       6 GLL5        0.0000 
     64 CA         -9.4925   15.7090  -18.8680 C.3       2 GLC5        0.0000 
     65 CA         -9.3400   16.0770  -20.6330 C.3       4 GLP5        0.0000 
     66 CA         -9.5350   13.8395  -18.5760 C.3       2 GLC5        0.0000 
     67 CA         -9.4250   12.3380  -20.0490 C.3       4 GLP5        0.0000 
     68 CA        -11.4050   14.9670  -17.6440 C.3       2 GLC5        0.0000 
     69 CA         -9.8495   14.0260  -16.0490 C.3       2 GLC5        0.0000 
     70 CA        -10.0540   12.7110  -14.9950 C.3       4 GLP5        0.0000 
     71 CA        -16.5450   22.4070  -18.2988 C.3       2 GLC5        0.0000 
     72 CA        -18.8010   21.7960  -18.1170 C.3       6 GLL5        0.0000 
     73 CA        -14.3480   22.2580  -18.4910 C.3       4 GLP5        0.0000 
     74 CA        -16.5592   17.0005  -16.9428 C.3       2 GLC5        0.0000 
     75 CA        -17.5928   16.3753  -14.2685 C.3       2 GLC5        0.0000 
     76 CA        -17.4520   15.0200  -13.0770 C.3       4 GLP5        0.0000 
     77 CA        -15.9923   17.6975  -16.4123 C.3       2 GLC5        0.0000 
     78 CA        -17.3560   18.1950  -15.1060 C.3       6 GLL5        0.0000 
     79 CA        -17.1960   21.3765  -12.8380 C.3       2 GLC5        0.0000 
     80 CA        -15.5010   19.9910  -13.7590 C.3       6 GLL5        0.0000 
     81 CA        -18.7760   22.8380  -12.6070 C.3       4 GLP5        0.0000 
     82 CA        -12.5110   20.9647  -13.7505 C.3       2 GLC5        0.0000 
     83 CA        -14.1750   19.6020  -14.0010 C.3       6 GLL5        0.0000 
     84 CA        -11.1910   22.3260  -12.8270 C.3       4 GLP5        0.0000 
     85 CA        -15.9930   17.8712  -11.7142 C.3       2 GLC5        0.0000 
     86 CA        -15.7310   19.8390  -12.3790 C.3       6 GLL5        0.0000 
     87 CA        -15.6870   15.7840  -11.4410 C.3       4 GLP5        0.0000 
     88 CA        -18.3575   18.5577  -10.9670 C.3       2 GLC5        0.0000 
     89 CA        -16.8670   20.0780  -11.5960 C.3       6 GLL5        0.0000 
     90 CA        -19.8850   17.1600  -11.0280 C.3       4 GLP5        0.0000 
     91 CA        -17.8030   21.3967  -11.7565 C.3       2 GLC5        0.0000 
     92 CA        -15.9500   17.6822  -10.6833 C.3       2 GLC5        0.0000 
     93 CA        -16.0050   20.4387   -8.0478 C.3       2 GLC5        0.0000 
     94 CA        -15.6330   19.3280   -9.6350 C.3       6 GLL5        0.0000 
     95 CA        -15.7970   21.2970   -6.1700 C.3       4 GLP5        0.0000 
     96 CA        -18.5478   19.2612   -7.6318 C.3       2 GLC5        0.0000 
     97 CA        -18.6660   21.1040   -9.1040 C.3       6 GLL5        0.0000 
     98 CA        -21.0105   21.1495   -8.5195 C.3       2 GLC5        0.0000 
     99 CA        -22.8500   21.1880   -7.5160 C.3       4 GLP5        0.0000 
    100 CA        -18.5400   22.2473  -10.8782 C.3       2 GLC5        0.0000 
    101 CA        -17.1114   21.4506   -7.5089 C.3       2 GLC5        0.0000 
    102 CA        -15.6777   17.6527   -8.8618 C.3       2 GLC5        0.0000 
    103 CA        -16.2810   16.0970   -7.6930 C.3       4 GLP5        0.0000 
    104 CA        -15.1150   17.5003  -11.2763 C.3       2 GLC5        0.0000 
    105 CA        -10.9243   20.4153  -13.1423 C.3       2 GLC5        0.0000 
    106 CA        -11.3330   18.3800  -13.4020 C.3       6 GLL5        0.0000 
    107 CA        -11.7062   17.0673  -11.7430 C.3       2 GLC5        0.0000 
    108 CA         -9.7808   18.8163  -15.8650 C.3       2 GLC5        0.0000 
    109 CA         -9.9820   18.6290  -13.5130 C.3       6 GLL5        0.0000 
    110 CA        -10.2172   18.0170  -16.4195 C.3       2 GLC5        0.0000 
    111 CA         -9.8240   16.8010  -15.1650 C.3       6 GLL5        0.0000 
    112 CA        -10.2737   14.6775  -15.0380 C.3       2 GLC5        0.0000 
@<TRIPOS>BOND
@<TRIPOS>SUBSTRUCTURE
     1 SEC2        1 GROUP        1 X    SEC  0     ROOT SEC X 2
     2 GLC5       11 GROUP        1 X    GLC  0     **** GLC X 6
     3 SEP2        3 GROUP        1 Y    SEP  0     ROOT SEP Y 9
     4 GLP5       13 GROUP        1 Y    GLP  0     **** GLP Y 13
     5 SEL2        2 GROUP        1 Z    SEL  0     ROOT SEL Z 16
     6 GLL5       12 GROUP        1 Z    GLL  0     **** GLL Z 20
@<TRIPOS>SET

