#    Name: 2q59_240_1_ligand
#    Modification time : Mon Mar 24 20:45:56 2014

@<TRIPOS>MOLECULE
2q59_240_1_ligand
   61    64     1     0     0
SMALL
NO_CHARGES


@<TRIPOS>ATOM
      1 OAD       -17.2410   21.0920  -19.7750 O.co2     1 2405001     0.0000 
      2 CAY       -18.4460   21.2780  -19.4890 C.2       1 2405001     0.0000 
      3 OAF       -19.3740   21.0320  -20.2960 O.co2     1 2405001     0.0000 
      4 CBJ       -18.8010   21.7960  -18.1170 C.3       1 2405001     0.0000 
      5 CAC       -18.6830   23.3160  -18.0960 C.3       1 2405001     0.0000 
      6 OAW       -17.9290   21.2430  -17.1120 O.3       1 2405001     0.0000 
      7 CBF       -18.0000   19.9260  -16.6830 C.ar      1 2405001     0.0000 
      8 CAO       -18.7540   18.9830  -17.3890 C.ar      1 2405001     0.0000 
      9 CAK       -18.8120   17.6600  -16.9550 C.ar      1 2405001     0.0000 
     10 CAJ       -18.1110   17.2660  -15.8140 C.ar      1 2405001     0.0000 
     11 CAN       -17.3560   18.1950  -15.1060 C.ar      1 2405001     0.0000 
     12 CBE       -17.2990   19.5190  -15.5410 C.ar      1 2405001     0.0000 
     13 CAU       -16.4810   20.5350  -14.7840 C.3       1 2405001     0.0000 
     14 CBG       -15.5010   19.9910  -13.7590 C.2       1 2405001     0.0000 
     15 CBA       -14.1750   19.6020  -14.0010 C.2       1 2405001     0.0000 
     16 CAB       -13.4870   19.6050  -15.3470 C.3       1 2405001     0.0000 
     17 CBH       -15.7310   19.8390  -12.3790 C.ar      1 2405001     0.0000 
     18 CAT       -16.8670   20.0780  -11.5960 C.ar      1 2405001     0.0000 
     19 CBC       -16.7930   19.8330  -10.2160 C.ar      1 2405001     0.0000 
     20 OAX       -17.8590   19.9850   -9.3690 O.3       1 2405001     0.0000 
     21 CBL       -18.6660   21.1040   -9.1040 C.3       1 2405001     0.0000 
     22 FAG       -19.1530   20.8950   -7.8970 F         1 2405001     0.0000 
     23 FAI       -17.9420   22.2090   -9.1950 F         1 2405001     0.0000 
     24 FAH       -19.6760   21.1180   -9.9420 F         1 2405001     0.0000 
     25 CAR       -15.6330   19.3280   -9.6350 C.ar      1 2405001     0.0000 
     26 CAS       -14.5160   19.0890  -10.4260 C.ar      1 2405001     0.0000 
     27 CBI       -14.5700   19.3440  -11.7970 C.ar      1 2405001     0.0000 
     28 NBK       -13.6980   19.2100  -12.7990 N.am      1 2405001     0.0000 
     29 CAZ       -12.4030   18.8200  -12.4910 C.2       1 2405001     0.0000 
     30 OAE       -12.1400   18.5000  -11.3530 O.2       1 2405001     0.0000 
     31 CBD       -11.3330   18.3800  -13.4020 C.ar      1 2405001     0.0000 
     32 CAQ        -9.9820   18.6290  -13.5130 C.ar      1 2405001     0.0000 
     33 CAM        -9.2590   17.8560  -14.4310 C.ar      1 2405001     0.0000 
     34 CAP       -11.8700   17.2650  -14.0840 C.ar      1 2405001     0.0000 
     35 CAL       -11.1630   16.4870  -14.9970 C.ar      1 2405001     0.0000 
     36 CBB        -9.8240   16.8010  -15.1650 C.ar      1 2405001     0.0000 
     37 OAV        -9.0520   16.0840  -16.0450 O.3       1 2405001     0.0000 
     38 CAA        -9.6450   15.3410  -17.1030 C.3       1 2405001     0.0000 
     39 H         -19.8331   21.5443  -17.9081 H         1 2405001     0.0000 
     40 H         -19.2678   19.2698  -18.2330 H         1 2405001     0.0000 
     41 H         -19.3715   16.9725  -17.4751 H         1 2405001     0.0000 
     42 H         -18.1542   16.2890  -15.4990 H         1 2405001     0.0000 
     43 H         -16.8414   17.9088  -14.2653 H         1 2405001     0.0000 
     44 H         -17.1729   21.2456  -14.2697 H         1 2405001     0.0000 
     45 H         -15.9159   21.1620  -15.5158 H         1 2405001     0.0000 
     46 H         -17.7245   20.4204  -12.0151 H         1 2405001     0.0000 
     47 H         -15.6043   19.1338   -8.6282 H         1 2405001     0.0000 
     48 H         -13.6529   18.7262  -10.0061 H         1 2405001     0.0000 
     49 H          -9.5216   19.3376  -12.9599 H         1 2405001     0.0000 
     50 H          -8.2448   18.0755  -14.5781 H         1 2405001     0.0000 
     51 H         -12.8745   17.0118  -13.8822 H         1 2405001     0.0000 
     52 H         -11.6021   15.7406  -15.5038 H         1 2405001     0.0000 
     53 H         -17.7549   23.6195  -18.3118 H         1 2405001     0.0000 
     54 H         -19.2939   23.7452  -18.7613 H         1 2405001     0.0000 
     55 H         -18.9140   23.6941  -17.1995 H         1 2405001     0.0000 
     56 H         -12.5411   19.2872  -15.2813 H         1 2405001     0.0000 
     57 H         -13.9514   19.0097  -16.0028 H         1 2405001     0.0000 
     58 H         -13.4614   20.5203  -15.7490 H         1 2405001     0.0000 
     59 H          -8.9579   14.8725  -17.6584 H         1 2405001     0.0000 
     60 H         -10.2713   14.6411  -16.7597 H         1 2405001     0.0000 
     61 H         -10.1703   15.9274  -17.7197 H         1 2405001     0.0000 
@<TRIPOS>BOND
     1    2    1 ar   
     2    3    2 ar   
     3    4    2 1    
     4    5    4 1    
     5    6    4 1    
     6   39    4 1    
     7   53    5 1    
     8   54    5 1    
     9   55    5 1    
    10    7    6 1    
    11    8    7 ar   
    12   12    7 ar   
    13    9    8 ar   
    14   40    8 1    
    15   10    9 ar   
    16   41    9 1    
    17   11   10 ar   
    18   42   10 1    
    19   12   11 ar   
    20   43   11 1    
    21   13   12 1    
    22   14   13 1    
    23   44   13 1    
    24   45   13 1    
    25   15   14 2    
    26   17   14 1    
    27   16   15 1    
    28   28   15 1    
    29   56   16 1    
    30   57   16 1    
    31   58   16 1    
    32   18   17 ar   
    33   27   17 ar   
    34   19   18 ar   
    35   46   18 1    
    36   20   19 1    
    37   25   19 ar   
    38   21   20 1    
    39   22   21 1    
    40   23   21 1    
    41   24   21 1    
    42   26   25 ar   
    43   47   25 1    
    44   27   26 ar   
    45   48   26 1    
    46   28   27 1    
    47   29   28 am   
    48   30   29 2    
    49   31   29 1    
    50   32   31 ar   
    51   34   31 ar   
    52   33   32 ar   
    53   49   32 1    
    54   36   33 ar   
    55   50   33 1    
    56   35   34 ar   
    57   51   34 1    
    58   36   35 ar   
    59   52   35 1    
    60   37   36 1    
    61   38   37 1    
    62   59   38 1    
    63   60   38 1    
    64   61   38 1    
@<TRIPOS>SUBSTRUCTURE
     1 2405001     1 GROUP   
@<TRIPOS>SET

