#    Name: 2br1_PFP_1_INTS_M
#    Modification time : Mon Mar 24 21:26:51 2014

@<TRIPOS>MOLECULE
2br1_PFP_1_INTS_M
   56     0     6     0     0
SMALL
NO_CHARGES


@<TRIPOS>ATOM
      1 CA         18.6345   -8.5500   11.0915 C.3       2 GLC5        0.0000 
      2 CA         18.9620   -8.0070   12.9180 C.3       6 GLL5        0.0000 
      3 CA         18.3070   -9.0930    9.2650 C.3       4 GLP5        0.0000 
      4 CA         19.6060   -3.4215   13.5170 C.3       2 GLC5        0.0000 
      5 CA         18.3210   -4.0440   11.7950 C.3       6 GLL5        0.0000 
      6 CA         20.8910   -2.7990   15.2390 C.3       4 GLP5        0.0000 
      7 CA         14.9470   -6.3880   10.2515 C.3       2 GLC5        0.0000 
      8 CA         16.7450   -6.1960   10.8440 C.3       6 GLL5        0.0000 
      9 CA         13.1490   -6.5800    9.6590 C.3       4 GLP5        0.0000 
     10 CA         15.2540   -5.6500    9.2725 C.3       2 GLC5        0.0000 
     11 CA         16.6770   -4.9250   10.2200 C.3       6 GLL5        0.0000 
     12 CA         13.8310   -6.3750    8.3250 C.3       4 GLP5        0.0000 
     13 CA         14.1835   -3.4860    9.1075 C.3       2 GLC5        0.0000 
     14 CA         14.9220   -1.9560   10.4670 C.3       6 GLL5        0.0000 
     15 CA         13.4450   -5.0160    7.7480 C.3       4 GLP5        0.0000 
     16 CA         14.0615   -1.6570    8.5160 C.3       2 GLC5        0.0000 
     17 CA         13.2010   -1.3580    6.5650 C.3       4 GLP5        0.0000 
     18 CA         13.1760   -4.9175   10.6300 C.3       2 GLC5        0.0000 
     19 CA         13.2030   -3.2550   11.6010 C.3       6 GLL5        0.0000 
     20 CA         10.9110   -1.9540   11.4445 C.3       2 GLC5        0.0000 
     21 CA         12.5240   -2.3810   12.7310 C.3       6 GLL5        0.0000 
     22 CA          9.2980   -1.5270   10.1580 C.3       4 GLP5        0.0000 
     23 CA         14.2405   -1.0260   12.8195 C.3       2 GLC5        0.0000 
     24 CA         15.9570    0.3290   12.9080 C.3       4 GLP5        0.0000 
     25 CA         12.8545   -0.9600   14.0785 C.3       2 GLC5        0.0000 
     26 CA         13.1850    0.4610   15.4260 C.3       4 GLP5        0.0000 
     27 CA         13.7400   -0.6600    8.0175 C.3       2 GLC5        0.0000 
     28 CA         14.2790    0.0380    9.4700 C.3       6 GLL5        0.0000 
     29 CA         14.6235    1.3840    7.9025 C.3       2 GLC5        0.0000 
     30 CA         14.9680    2.7300    6.3350 C.3       4 GLP5        0.0000 
     31 CA         15.1180    0.1835   11.1890 C.3       2 GLC5        0.0000 
     32 N          16.1320    1.5260    8.4695 N.am      1 SEC2        0.0000 
     33 N          15.5230    0.2070    8.9640 N.am      5 SEL2        0.0000 
     34 N          16.7410    2.8450    7.9750 N.am      3 SEP2        0.0000 
     35 CA         14.8400   -1.0295    7.8770 C.3       2 GLC5        0.0000 
     36 CA         16.4790   -0.7010    9.1890 C.3       6 GLL5        0.0000 
     37 CA         16.9460    1.3140    9.7395 C.3       2 GLC5        0.0000 
     38 CA         17.4130    3.3290   10.2900 C.3       4 GLP5        0.0000 
     39 CA         20.6835    0.8370    7.6825 C.3       2 GLC5        0.0000 
     40 CA         20.4510   -1.2110    8.5100 C.3       6 GLL5        0.0000 
     41 CA         20.9160    2.8850    6.8550 C.3       4 GLP5        0.0000 
     42 CA         17.7417   -7.6977   10.3255 C.3       2 GLC5        0.0000 
     43 CA         17.2415   -5.4032    8.7490 C.3       2 GLC5        0.0000 
     44 CA         17.7720   -5.2460    6.9660 C.3       4 GLP5        0.0000 
     45 CA         17.5890   -4.2105    8.6660 C.3       2 GLC5        0.0000 
     46 CA         17.4810   -3.8550   10.6780 C.3       6 GLL5        0.0000 
     47 CA         16.0590   -0.5241   11.3086 C.3       2 GLC5        0.0000 
     48 CA         21.0128   -0.7455   10.1015 C.3       2 GLC5        0.0000 
     49 CA         19.5820   -2.1570    9.0700 C.3       6 GLL5        0.0000 
     50 CA         22.0090    0.1930   11.4130 C.3       4 GLP5        0.0000 
     51 CA         18.7809   -2.7776    7.4865 C.3       2 GLC5        0.0000 
     52 CA         17.8740   -3.9560    6.1320 C.3       4 GLP5        0.0000 
     53 CA         22.0050   -0.9887    9.9088 C.3       2 GLC5        0.0000 
     54 CA         21.7700   -1.5370    8.2650 C.3       6 GLL5        0.0000 
     55 CA         19.2335   -4.4247    8.0832 C.3       2 GLC5        0.0000 
     56 CA         21.3610   -3.7670    9.0800 C.3       6 GLL5        0.0000 
@<TRIPOS>BOND
@<TRIPOS>SUBSTRUCTURE
     1 SEC2       32 GROUP        1 X    SEC  0     ROOT SEC X 2
     2 GLC5        1 GROUP        1 X    GLC  0     **** GLC X 6
     3 SEP2       34 GROUP        1 Y    SEP  0     ROOT SEP Y 9
     4 GLP5        3 GROUP        1 Y    GLP  0     **** GLP Y 13
     5 SEL2       33 GROUP        1 Z    SEL  0     ROOT SEL Z 16
     6 GLL5        2 GROUP        1 Z    GLL  0     **** GLL Z 20
@<TRIPOS>SET

