#    Name: 2br1_PFP_1_ligand
#    Modification time : Mon Mar 24 21:26:51 2014

@<TRIPOS>MOLECULE
2br1_PFP_1_ligand
   50    53     1     0     0
SMALL
NO_CHARGES


@<TRIPOS>ATOM
      1 CAB        18.9620   -8.0070   12.9180 C.3       1 PFP1277     0.0000 
      2 OAS        17.6310   -7.6670   12.5680 O.3       1 PFP1277     0.0000 
      3 CAV        17.6080   -6.4090   11.9280 C.ar      1 PFP1277     0.0000 
      4 CAG        18.3940   -5.3380   12.4250 C.ar      1 PFP1277     0.0000 
      5 CAK        18.3210   -4.0440   11.7950 C.ar      1 PFP1277     0.0000 
      6 CAF        16.7450   -6.1960   10.8440 C.ar      1 PFP1277     0.0000 
      7 CAJ        16.6770   -4.9250   10.2200 C.ar      1 PFP1277     0.0000 
      8 CAX        17.4810   -3.8550   10.6780 C.ar      1 PFP1277     0.0000 
      9 CBA        17.3310   -2.4950   10.0540 C.2       1 PFP1277     0.0000 
     10 CBC        16.1970   -1.8060    9.9290 C.ar      1 PFP1277     0.0000 
     11 CAY        14.9220   -1.9560   10.4670 C.ar      1 PFP1277     0.0000 
     12 NAQ        14.6190   -3.0080   11.2120 N.pl3     1 PFP1277     0.0000 
     13 CAN        13.2030   -3.2550   11.6010 C.3       1 PFP1277     0.0000 
     14 CAM        12.5240   -2.3810   12.7310 C.3       1 PFP1277     0.0000 
     15 OAC        12.1040   -0.9840   12.4450 O.3       1 PFP1277     0.0000 
     16 NAO        13.9850   -1.0330   10.2090 N.ar      1 PFP1277     0.0000 
     17 CAL        14.2790    0.0380    9.4700 C.ar      1 PFP1277     0.0000 
     18 NAP        15.5230    0.2070    8.9640 N.ar      1 PFP1277     0.0000 
     19 CBB        16.4790   -0.7010    9.1890 C.ar      1 PFP1277     0.0000 
     20 OAT        17.7140   -0.7390    8.8380 O.3       1 PFP1277     0.0000 
     21 CAZ        18.2670   -1.8180    9.2740 C.2       1 PFP1277     0.0000 
     22 CAW        19.5820   -2.1570    9.0700 C.ar      1 PFP1277     0.0000 
     23 CAH        20.4510   -1.2110    8.5100 C.ar      1 PFP1277     0.0000 
     24 CAD        21.7700   -1.5370    8.2650 C.ar      1 PFP1277     0.0000 
     25 CAU        22.2320   -2.8040    8.5440 C.ar      1 PFP1277     0.0000 
     26 OAR        23.5290   -3.1180    8.3000 O.3       1 PFP1277     0.0000 
     27 CAA        24.5290   -2.0490    8.1770 C.3       1 PFP1277     0.0000 
     28 CAE        21.3610   -3.7670    9.0800 C.ar      1 PFP1277     0.0000 
     29 CAI        20.0290   -3.4400    9.3210 C.ar      1 PFP1277     0.0000 
     30 H          19.0082   -5.4722   13.2202 H         1 PFP1277     0.0000 
     31 H          18.8777   -3.2797   12.1643 H         1 PFP1277     0.0000 
     32 H          16.1568   -6.9594   10.4954 H         1 PFP1277     0.0000 
     33 H          16.0402   -4.7815    9.4313 H         1 PFP1277     0.0000 
     34 H          15.3003   -3.6907   11.5557 H         1 PFP1277     0.0000 
     35 H          13.0754   -4.3330   11.9157 H         1 PFP1277     0.0000 
     36 H          12.5364   -3.1700   10.6923 H         1 PFP1277     0.0000 
     37 H          13.2342   -2.3955   13.6105 H         1 PFP1277     0.0000 
     38 H          11.6396   -2.9787   13.1034 H         1 PFP1277     0.0000 
     39 H          13.5454    0.7609    9.2743 H         1 PFP1277     0.0000 
     40 H          20.0954   -0.2712    8.2835 H         1 PFP1277     0.0000 
     41 H          22.4103   -0.8282    7.8717 H         1 PFP1277     0.0000 
     42 H          21.7104   -4.7068    9.2914 H         1 PFP1277     0.0000 
     43 H          19.3849   -4.1537    9.6841 H         1 PFP1277     0.0000 
     44 H          19.5550   -8.0612   12.1146 H         1 PFP1277     0.0000 
     45 H          19.3670   -7.3335   13.5363 H         1 PFP1277     0.0000 
     46 H          19.0101   -8.8935   13.3782 H         1 PFP1277     0.0000 
     47 H          25.4426   -2.4139    7.9976 H         1 PFP1277     0.0000 
     48 H          24.3119   -1.4216    7.4292 H         1 PFP1277     0.0000 
     49 H          24.5910   -1.5007    9.0110 H         1 PFP1277     0.0000 
     50 H          12.4419   -0.7959   11.5228 H         1 PFP1277     0.0000 
@<TRIPOS>BOND
     1    2    1 1    
     2   44    1 1    
     3   45    1 1    
     4   46    1 1    
     5    3    2 1    
     6    4    3 ar   
     7    6    3 ar   
     8    5    4 ar   
     9   30    4 1    
    10    8    5 ar   
    11   31    5 1    
    12    7    6 ar   
    13   32    6 1    
    14    8    7 ar   
    15   33    7 1    
    16    9    8 1    
    17   10    9 1    
    18   21    9 2    
    19   11   10 ar   
    20   19   10 ar   
    21   12   11 1    
    22   16   11 ar   
    23   13   12 1    
    24   34   12 1    
    25   14   13 1    
    26   35   13 1    
    27   36   13 1    
    28   15   14 1    
    29   37   14 1    
    30   38   14 1    
    31   50   15 1    
    32   17   16 ar   
    33   18   17 ar   
    34   39   17 1    
    35   19   18 ar   
    36   20   19 1    
    37   21   20 1    
    38   22   21 1    
    39   23   22 ar   
    40   29   22 ar   
    41   24   23 ar   
    42   40   23 1    
    43   25   24 ar   
    44   41   24 1    
    45   26   25 1    
    46   28   25 ar   
    47   27   26 1    
    48   47   27 1    
    49   48   27 1    
    50   49   27 1    
    51   29   28 ar   
    52   42   28 1    
    53   43   29 1    
@<TRIPOS>SUBSTRUCTURE
     1 PFP1277     1 GROUP   
@<TRIPOS>SET

