#    Name: 2a7n_FMN_1_INTS_M
#    Modification time : Mon Mar 24 18:35:01 2014

@<TRIPOS>MOLECULE
2a7n_FMN_1_INTS_M
   90     0    12     0     0
SMALL
NO_CHARGES


@<TRIPOS>ATOM
      1 N          70.4625   81.8285   28.8420 N.am      2 SEC2        0.0000 
      2 N          71.0770   81.7170   27.6930 N.am     10 SEL2        0.0000 
      3 N          69.8480   81.9400   29.9910 N.am      6 SEP2        0.0000 
      4 N          72.4155   81.9590   28.1740 N.am      2 SEC2        0.0000 
      5 N          73.7540   82.2010   28.6550 N.am      6 SEP2        0.0000 
      6 O          69.1585   80.6485   25.9775 O.2       1 ALC1        0.0000 
      7 O          70.1940   81.6190   25.5700 O.2       9 ALL1        0.0000 
      8 O          68.1230   79.6780   26.3850 O.2       5 ALP1        0.0000 
      9 N          68.6550   80.5055   23.2080 N.am      2 SEC2        0.0000 
     10 N          69.3710   81.5250   23.3650 N.am     10 SEL2        0.0000 
     11 N          67.9390   79.4860   23.0510 N.am      6 SEP2        0.0000 
     12 N          71.3450   81.4885   21.4970 N.am      2 SEC2        0.0000 
     13 N          71.8070   82.5630   22.3220 N.am     10 SEL2        0.0000 
     14 N          70.8830   80.4140   20.6720 N.am      6 SEP2        0.0000 
     15 CA         72.8800   81.1720   21.8855 C.3       4 GLC5        0.0000 
     16 CA         73.0730   82.9390   21.8470 C.3      12 GLL5        0.0000 
     17 CA         72.6870   79.4050   21.9240 C.3       8 GLP5        0.0000 
     18 CA         71.5235   81.7190   20.1190 C.3       4 GLC5        0.0000 
     19 CA         73.3440   82.9850   20.4180 C.3      12 GLL5        0.0000 
     20 CA         69.7030   80.4530   19.8200 C.3       8 GLP5        0.0000 
     21 CA         73.6555   83.5075   17.0235 C.3       4 GLC5        0.0000 
     22 CA         74.8820   83.2110   18.3770 C.3      12 GLL5        0.0000 
     23 CA         72.4290   83.8040   15.6700 C.3       8 GLP5        0.0000 
     24 CA         76.0905   84.0290   16.9470 C.3       4 GLC5        0.0000 
     25 CA         77.2990   84.8470   15.5170 C.3       8 GLP5        0.0000 
     26 CA         77.8645   82.9140   18.4705 C.3       4 GLC5        0.0000 
     27 CA         77.2730   83.7720   20.4160 C.3      12 GLL5        0.0000 
     28 CA         78.4560   82.0560   16.5250 C.3       8 GLP5        0.0000 
     29 CA         78.9560   83.4060   20.1545 C.3       4 GLC5        0.0000 
     30 CA         80.6390   83.0400   19.8930 C.3       8 GLP5        0.0000 
     31 CA         74.0440   84.8970   24.0450 C.3       4 GLC5        0.0000 
     32 CA         74.2240   83.2080   22.8200 C.3      12 GLL5        0.0000 
     33 CA         73.8640   86.5860   25.2700 C.3       8 GLP5        0.0000 
     34 CA         74.4215   84.9290   25.2510 C.3       4 GLC5        0.0000 
     35 CA         74.9790   83.2720   25.2320 C.3      12 GLL5        0.0000 
     36 CA         75.4795   80.7545   23.7575 C.3       4 GLC5        0.0000 
     37 CA         75.7500   81.9680   25.4840 C.3      12 GLL5        0.0000 
     38 CA         75.2090   79.5410   22.0310 C.3       8 GLP5        0.0000 
     39 N          74.4015   81.6455   27.4680 N.am      2 SEC2        0.0000 
     40 N          75.0490   81.0900   26.2810 N.am     10 SEL2        0.0000 
     41 O          74.1520   80.4165   25.4430 O.2       1 ALC1        0.0000 
     42 O          75.0490   81.0900   26.2810 O.2       9 ALL1        0.0000 
     43 O          73.2550   79.7430   24.6050 O.2       5 ALP1        0.0000 
     44 O          77.3315   82.1735   28.3455 O.2       1 ALC1        0.0000 
     45 O          76.8670   82.9750   27.3840 O.2       9 ALL1        0.0000 
     46 O          77.7960   81.3720   29.3070 O.2       5 ALP1        0.0000 
     47 CA         79.7880   81.7860   27.7740 C.3       4 GLC5        0.0000 
     48 CA         79.4680   82.7560   26.0570 C.3      12 GLL5        0.0000 
     49 CA         80.1080   80.8160   29.4910 C.3       8 GLP5        0.0000 
     50 CA         80.8665   83.5065   27.0465 C.3       4 GLC5        0.0000 
     51 CA         82.2650   84.2570   28.0360 C.3       8 GLP5        0.0000 
     52 NZ         83.4890   84.0010   22.9615 N.4       3 LYC4        0.0000 
     53 NZ         82.7080   83.8690   24.1850 N.4      11 LYL4        0.0000 
     54 NZ         85.0730   83.1170   22.0310 N.4       7 LYP4        0.0000 
     55 N          83.4315   84.0910   25.3590 N.am      2 SEC2        0.0000 
     56 N          82.7080   83.8690   24.1850 N.am     10 SEL2        0.0000 
     57 N          84.1550   84.3130   26.5330 N.am      6 SEP2        0.0000 
     58 N          83.8405   83.1930   23.6985 N.am      2 SEC2        0.0000 
     59 N          84.9730   82.5170   23.2120 N.am      6 SEP2        0.0000 
     60 N          83.4890   84.0010   22.9615 N.am      2 SEC2        0.0000 
     61 N          84.2700   84.1330   21.7380 N.am      6 SEP2        0.0000 
     62 N          81.8250   84.7935   23.0030 N.am      2 SEC2        0.0000 
     63 N          80.9420   85.7180   21.8210 N.am      6 SEP2        0.0000 
     64 NZ         80.5035   84.6340   21.8490 N.4       3 LYC4        0.0000 
     65 NZ         80.6350   83.0880   22.9850 N.4      11 LYL4        0.0000 
     66 NZ         80.3720   86.1800   20.7130 N.4       7 LYP4        0.0000 
     67 N          80.5990   81.7490   22.2270 N.am      2 SEC2        0.0000 
     68 N          80.6350   83.0880   22.9850 N.am     10 SEL2        0.0000 
     69 N          80.5630   80.4100   21.4690 N.am      6 SEP2        0.0000 
     70 N          81.1115   80.1530   24.3570 N.am      2 SEC2        0.0000 
     71 N          81.8100   81.5730   24.5820 N.am     10 SEL2        0.0000 
     72 N          80.4130   78.7330   24.1320 N.am      6 SEP2        0.0000 
     73 CA         74.0100   81.2025   20.6302 C.3       4 GLC5        0.0000 
     74 CA         74.6840   83.2490   19.8650 C.3      12 GLL5        0.0000 
     75 CA         74.0060   79.2880   21.1190 C.3       8 GLP5        0.0000 
     76 CA         75.8880   81.4155   18.8620 C.3       4 GLC5        0.0000 
     77 CA         76.9930   79.6010   18.6030 C.3       8 GLP5        0.0000 
     78 CA         76.4652   85.3020   21.2437 C.3       4 GLC5        0.0000 
     79 CA         75.8440   83.5220   20.8390 C.3      12 GLL5        0.0000 
     80 CA         76.3720   86.9570   21.8600 C.3       8 GLP5        0.0000 
     81 CA         75.6308   85.1573   22.1942 C.3       4 GLC5        0.0000 
     82 CA         75.5550   83.5070   22.2370 C.3      12 GLL5        0.0000 
     83 CA         75.0854   81.4511   22.1050 C.3       4 GLC5        0.0000 
     84 CA         75.3802   81.6252   27.6930 C.3       4 GLC5        0.0000 
     85 CA         74.3400   81.1740   29.5640 C.3       8 GLP5        0.0000 
     86 CA         79.1950   84.7092   25.5517 C.3       4 GLC5        0.0000 
     87 CA         78.1360   83.0050   25.4040 C.3      12 GLL5        0.0000 
     88 CA         79.5880   86.5380   25.3730 C.3       8 GLP5        0.0000 
     89 CA         79.1065   81.1453   24.5352 C.3       4 GLC5        0.0000 
     90 CA         79.4110   79.4100   23.3400 C.3       8 GLP5        0.0000 
@<TRIPOS>BOND
@<TRIPOS>SUBSTRUCTURE
     1 ALC1        6 GROUP        1 X    ALC  0     ROOT ALC X 1
     2 SEC2        1 GROUP        1 X    SEC  0     **** SEC X 2
     3 LYC4       52 GROUP        1 X    LYC  0     **** LYC X 4
     4 GLC5       15 GROUP        1 X    GLC  0     **** GLC X 6
     5 ALP1        8 GROUP        1 Y    ALP  0     ROOT ALP Y 8
     6 SEP2        3 GROUP        1 Y    SEP  0     **** SEP Y 9
     7 LYP4       54 GROUP        1 Y    LYP  0     **** LYP Y 11
     8 GLP5       17 GROUP        1 Y    GLP  0     **** GLP Y 13
     9 ALL1        7 GROUP        1 Z    ALL  0     ROOT ALL Z 15
    10 SEL2        2 GROUP        1 Z    SEL  0     **** SEL Z 16
    11 LYL4       53 GROUP        1 Z    LYL  0     **** LYL Z 18
    12 GLL5       16 GROUP        1 Z    GLL  0     **** GLL Z 20
@<TRIPOS>SET

