#    Name: 2a7n_FMN_1_ligand
#    Modification time : Mon Mar 24 18:35:01 2014

@<TRIPOS>MOLECULE
2a7n_FMN_1_ligand
   50    52     1     0     0
SMALL
NO_CHARGES


@<TRIPOS>ATOM
      1 N1         72.4270   82.4580   26.0630 N.2       1 FMN390      0.0000 
      2 C2         71.2430   81.9320   26.5510 C.2       1 FMN390      0.0000 
      3 O2         71.0770   81.7170   27.6930 O.2       1 FMN390      0.0000 
      4 N3         70.1940   81.6190   25.5700 N.am      1 FMN390      0.0000 
      5 C4         70.2730   81.8220   24.1500 C.2       1 FMN390      0.0000 
      6 O4         69.3710   81.5250   23.3650 O.2       1 FMN390      0.0000 
      7 C4A        71.5670   82.3840   23.6460 C.2       1 FMN390      0.0000 
      8 N5         71.8070   82.5630   22.3220 N.2       1 FMN390      0.0000 
      9 C5A        73.0730   82.9390   21.8470 C.ar      1 FMN390      0.0000 
     10 C6         73.3440   82.9850   20.4180 C.ar      1 FMN390      0.0000 
     11 C7         74.6840   83.2490   19.8650 C.ar      1 FMN390      0.0000 
     12 C7M        74.8820   83.2110   18.3770 C.3       1 FMN390      0.0000 
     13 C8         75.8440   83.5220   20.8390 C.ar      1 FMN390      0.0000 
     14 C8M        77.2730   83.7720   20.4160 C.3       1 FMN390      0.0000 
     15 C9         75.5550   83.5070   22.2370 C.ar      1 FMN390      0.0000 
     16 C9A        74.2240   83.2080   22.8200 C.ar      1 FMN390      0.0000 
     17 N10        73.8860   83.0710   24.2500 N.pl3     1 FMN390      0.0000 
     18 C10        72.6090   82.6600   24.7440 C.2       1 FMN390      0.0000 
     19 C1'        74.9790   83.2720   25.2320 C.3       1 FMN390      0.0000 
     20 C2'        75.7500   81.9680   25.4840 C.3       1 FMN390      0.0000 
     21 O2'        75.0490   81.0900   26.2810 O.3       1 FMN390      0.0000 
     22 C3'        77.0910   82.1850   26.1600 C.3       1 FMN390      0.0000 
     23 O3'        76.8670   82.9750   27.3840 O.3       1 FMN390      0.0000 
     24 C4'        78.1360   83.0050   25.4040 C.3       1 FMN390      0.0000 
     25 O4'        78.2460   82.6760   24.0310 O.3       1 FMN390      0.0000 
     26 C5'        79.4680   82.7560   26.0570 C.3       1 FMN390      0.0000 
     27 O5'        80.5700   83.4360   25.3790 O.3       1 FMN390      0.0000 
     28 P          81.4840   82.9950   24.2250 P.3       1 FMN390      0.0000 
     29 O1P        82.7080   83.8690   24.1850 O.co2     1 FMN390      0.0000 
     30 O2P        80.6350   83.0880   22.9850 O.co2     1 FMN390      0.0000 
     31 O3P        81.8100   81.5730   24.5820 O.co2     1 FMN390      0.0000 
     32 H          69.3051   81.2074   25.9573 H         1 FMN390      0.0000 
     33 H          72.5730   82.8276   19.7604 H         1 FMN390      0.0000 
     34 H          76.3180   83.7181   22.9135 H         1 FMN390      0.0000 
     35 H          74.5743   83.6223   26.1874 H         1 FMN390      0.0000 
     36 H          75.6861   84.0246   24.8676 H         1 FMN390      0.0000 
     37 H          75.9626   81.5147   24.5028 H         1 FMN390      0.0000 
     38 H          77.5275   81.2459   26.4456 H         1 FMN390      0.0000 
     39 H          77.9013   84.0564   25.5475 H         1 FMN390      0.0000 
     40 H          79.6493   81.6635   26.0810 H         1 FMN390      0.0000 
     41 H          79.4085   83.0833   27.1136 H         1 FMN390      0.0000 
     42 H          75.8290   83.4079   18.1232 H         1 FMN390      0.0000 
     43 H          74.6565   82.3147   17.9951 H         1 FMN390      0.0000 
     44 H          74.3074   83.8822   17.9086 H         1 FMN390      0.0000 
     45 H          77.8715   83.9259   21.2022 H         1 FMN390      0.0000 
     46 H          77.6505   82.9983   19.9073 H         1 FMN390      0.0000 
     47 H          77.3506   84.5762   19.8267 H         1 FMN390      0.0000 
     48 H          74.3924   80.6513   25.6674 H         1 FMN390      0.0000 
     49 H          76.7100   82.2984   28.1034 H         1 FMN390      0.0000 
     50 H          79.1940   82.8840   23.7903 H         1 FMN390      0.0000 
@<TRIPOS>BOND
     1    2    1 1    
     2   18    1 2    
     3    3    2 2    
     4    4    2 am   
     5    5    4 am   
     6   32    4 1    
     7    6    5 2    
     8    7    5 1    
     9    8    7 2    
    10   18    7 1    
    11    9    8 1    
    12   10    9 ar   
    13   16    9 ar   
    14   11   10 ar   
    15   33   10 1    
    16   12   11 1    
    17   13   11 ar   
    18   42   12 1    
    19   43   12 1    
    20   44   12 1    
    21   14   13 1    
    22   15   13 ar   
    23   45   14 1    
    24   46   14 1    
    25   47   14 1    
    26   16   15 ar   
    27   34   15 1    
    28   17   16 1    
    29   18   17 1    
    30   19   17 1    
    31   20   19 1    
    32   35   19 1    
    33   36   19 1    
    34   21   20 1    
    35   22   20 1    
    36   37   20 1    
    37   48   21 1    
    38   23   22 1    
    39   24   22 1    
    40   38   22 1    
    41   49   23 1    
    42   25   24 1    
    43   26   24 1    
    44   39   24 1    
    45   50   25 1    
    46   27   26 1    
    47   40   26 1    
    48   41   26 1    
    49   28   27 1    
    50   29   28 ar   
    51   30   28 ar   
    52   31   28 ar   
@<TRIPOS>SUBSTRUCTURE
     1 FMN390      1 GROUP   
@<TRIPOS>SET

