#    Name: 3gxl_QIG_1_INTS_M
#    Modification time : Tue Mar 25 13:12:28 2014

@<TRIPOS>MOLECULE
3gxl_QIG_1_INTS_M
   72     0     6     0     0
SMALL
NO_CHARGES


@<TRIPOS>ATOM
      1 CA          9.2150   64.2920    6.5225 C.3       2 GLC5        0.0000 
      2 CA         10.5430   63.4270    5.7160 C.3       6 GLL5        0.0000 
      3 CA          7.8870   65.1570    7.3290 C.3       4 GLP5        0.0000 
      4 CA          8.7670   63.1790    4.5255 C.3       2 GLC5        0.0000 
      5 CA          6.9910   62.9310    3.3350 C.3       4 GLP5        0.0000 
      6 CA         10.2855   61.6805    6.5235 C.3       2 GLC5        0.0000 
      7 CA         10.0280   59.9340    7.3310 C.3       4 GLP5        0.0000 
      8 CA         11.8235   65.6355    4.6915 C.3       2 GLC5        0.0000 
      9 CA         11.9710   63.6300    5.2890 C.3       6 GLL5        0.0000 
     10 CA         11.6760   67.6410    4.0940 C.3       4 GLP5        0.0000 
     11 CA         11.9040   61.9620    2.2525 C.3       2 GLC5        0.0000 
     12 CA         12.4230   63.1370    4.0410 C.3       6 GLL5        0.0000 
     13 CA         11.3850   60.7870    0.4640 C.3       4 GLP5        0.0000 
     14 CA         14.7945   61.9020    2.5900 C.3       2 GLC5        0.0000 
     15 CA         13.7740   63.3590    3.6870 C.3       6 GLL5        0.0000 
     16 CA         15.8150   60.4450    1.4930 C.3       4 GLP5        0.0000 
     17 CA         16.7255   63.9335    4.5890 C.3       2 GLC5        0.0000 
     18 CA         14.6400   64.0490    4.5510 C.3       6 GLL5        0.0000 
     19 CA         18.8110   63.8180    4.6270 C.3       4 GLP5        0.0000 
     20 CA         13.8165   63.1570    7.1800 C.3       2 GLC5        0.0000 
     21 CA         14.1390   64.5220    5.7880 C.3       6 GLL5        0.0000 
     22 CA         13.4940   61.7920    8.5720 C.3       4 GLP5        0.0000 
     23 CA         12.9075   66.0815    4.9410 C.3       2 GLC5        0.0000 
     24 CA         16.7820   64.2055    6.8850 C.3       2 GLC5        0.0000 
     25 CA         15.0010   65.2550    6.7440 C.3       6 GLL5        0.0000 
     26 CA         18.5630   63.1560    7.0260 C.3       4 GLP5        0.0000 
     27 CA         15.0015   63.4345    7.5870 C.3       2 GLC5        0.0000 
     28 CA         15.0020   61.6140    8.4300 C.3       4 GLP5        0.0000 
     29 CA         17.7625   70.0380    3.9600 C.3       2 GLC5        0.0000 
     30 CA         18.7840   68.7140    2.5300 C.3       6 GLL5        0.0000 
     31 CA         16.7410   71.3620    5.3900 C.3       4 GLP5        0.0000 
     32 N          17.1460   69.7025   -0.4235 N.am      1 SEC2        0.0000 
     33 N          17.5260   68.9890    0.6340 N.am      5 SEL2        0.0000 
     34 N          16.7660   70.4160   -1.4810 N.am      3 SEP2        0.0000 
     35 CA         16.7265   66.6495    1.7845 C.3       2 GLC5        0.0000 
     36 CA         17.4620   68.3060    2.8250 C.3       6 GLL5        0.0000 
     37 CA         15.9910   64.9930    0.7440 C.3       4 GLP5        0.0000 
     38 CA         15.2640   63.7450    8.6790 C.3       2 GLC5        0.0000 
     39 CA         15.5260   65.8760    8.9280 C.3       6 GLL5        0.0000 
     40 N          13.9725   64.0945    8.7500 N.am      1 SEC2        0.0000 
     41 N          14.7140   65.1940    8.0750 N.am      5 SEL2        0.0000 
     42 N          13.2310   62.9950    9.4250 N.am      3 SEP2        0.0000 
     43 CA         12.3755   62.6602    7.0373 C.3       2 GLC5        0.0000 
     44 CA         11.4735   61.4788    4.8170 C.3       2 GLC5        0.0000 
     45 CA         10.7500   59.5740    4.9690 C.3       4 GLP5        0.0000 
     46 CA         15.0990   64.3485    2.4315 C.3       2 GLC5        0.0000 
     47 CA         12.1677   64.3401    2.7530 C.3       2 GLC5        0.0000 
     48 CA         11.3500   65.3090    1.3300 C.3       4 GLP5        0.0000 
     49 CA         14.3781   62.0693    5.1878 C.3       2 GLC5        0.0000 
     50 CA         14.8870   60.4900    6.1680 C.3       4 GLP5        0.0000 
     51 CA         17.7965   69.6775    5.1777 C.3       2 GLC5        0.0000 
     52 CA         18.1890   67.7830    5.1390 C.3       6 GLL5        0.0000 
     53 CA         20.1983   66.9188    2.9962 C.3       2 GLC5        0.0000 
     54 CA         19.5150   68.2030    4.7920 C.3       6 GLL5        0.0000 
     55 CA         20.7180   65.3980    1.8530 C.3       4 GLP5        0.0000 
     56 CA         19.7855   70.5500    3.1022 C.3       2 GLC5        0.0000 
     57 CA         19.8420   68.6760    3.4870 C.3       6 GLL5        0.0000 
     58 CA         20.2580   72.4050    3.1960 C.3       4 GLP5        0.0000 
     59 CA         19.4205   66.9540    2.2652 C.3       2 GLC5        0.0000 
     60 CA         16.0297   69.3307    3.7748 C.3       2 GLC5        0.0000 
     61 CA         14.7490   70.5910    4.0640 C.3       4 GLP5        0.0000 
     62 CA         18.4082   65.8660    4.5914 C.3       2 GLC5        0.0000 
     63 CA         17.1590   67.8350    4.1460 C.3       6 GLL5        0.0000 
     64 CA         15.6052   68.6660   11.3500 C.3       2 GLC5        0.0000 
     65 CA         16.0440   66.5100   11.2690 C.3       6 GLL5        0.0000 
     66 CA         14.6090   70.4410   11.6430 C.3       4 GLP5        0.0000 
     67 CA         16.7404   64.7862   11.3187 C.3       2 GLC5        0.0000 
     68 CA         15.2340   65.8140   10.3020 C.3       6 GLL5        0.0000 
     69 CA         17.5630   63.2200   11.9580 C.3       4 GLP5        0.0000 
     70 CA         17.3547   64.7088    7.6914 C.3       2 GLC5        0.0000 
     71 CA         13.9878   66.4165   10.6999 C.3       2 GLC5        0.0000 
     72 CA         12.3930   66.8140   11.5430 C.3       4 GLP5        0.0000 
@<TRIPOS>BOND
@<TRIPOS>SUBSTRUCTURE
     1 SEC2       32 GROUP        1 X    SEC  0     ROOT SEC X 2
     2 GLC5        1 GROUP        1 X    GLC  0     **** GLC X 6
     3 SEP2       34 GROUP        1 Y    SEP  0     ROOT SEP Y 9
     4 GLP5        3 GROUP        1 Y    GLP  0     **** GLP Y 13
     5 SEL2       33 GROUP        1 Z    SEL  0     ROOT SEL Z 16
     6 GLL5        2 GROUP        1 Z    GLL  0     **** GLL Z 20
@<TRIPOS>SET

