#    Name: 3gxl_QIG_1_ligand
#    Modification time : Tue Mar 25 13:12:28 2014

@<TRIPOS>MOLECULE
3gxl_QIG_1_ligand
   43    47     1     0     0
SMALL
NO_CHARGES


@<TRIPOS>ATOM
      1 C1         10.5430   63.4270    5.7160 C.3       1 QIG999      0.0000 
      2 C2         11.9710   63.6300    5.2890 C.ar      1 QIG999      0.0000 
      3 C3         12.4230   63.1370    4.0410 C.ar      1 QIG999      0.0000 
      4 C4         13.7740   63.3590    3.6870 C.ar      1 QIG999      0.0000 
      5 C5         14.6400   64.0490    4.5510 C.ar      1 QIG999      0.0000 
      6 C6         14.1390   64.5220    5.7880 C.ar      1 QIG999      0.0000 
      7 N7         12.8130   64.3140    6.1560 N.ar      1 QIG999      0.0000 
      8 C8         15.0010   65.2550    6.7440 C.ar      1 QIG999      0.0000 
      9 N9         16.0450   65.9520    6.2370 N.ar      1 QIG999      0.0000 
     10 C10        16.8690   66.6410    7.0800 C.ar      1 QIG999      0.0000 
     11 N11        17.9370   67.3340    6.4620 N.pl3     1 QIG999      0.0000 
     12 C12        18.1890   67.7830    5.1390 C.ar      1 QIG999      0.0000 
     13 C13        19.5150   68.2030    4.7920 C.ar      1 QIG999      0.0000 
     14 C14        19.8420   68.6760    3.4870 C.ar      1 QIG999      0.0000 
     15 C15        18.7840   68.7140    2.5300 C.ar      1 QIG999      0.0000 
     16 N16        18.7540   69.1080    1.2150 N.pl3     1 QIG999      0.0000 
     17 N18        17.5260   68.9890    0.6340 N.2       1 QIG999      0.0000 
     18 C19        16.7490   68.5010    1.6190 C.2       1 QIG999      0.0000 
     19 C20        17.4620   68.3060    2.8250 C.ar      1 QIG999      0.0000 
     20 C21        17.1590   67.8350    4.1460 C.ar      1 QIG999      0.0000 
     21 C22        16.6650   66.6530    8.4910 C.ar      1 QIG999      0.0000 
     22 C23        17.4710   67.3440    9.4690 C.ar      1 QIG999      0.0000 
     23 C24        17.1590   67.2720   10.8450 C.ar      1 QIG999      0.0000 
     24 C25        16.0440   66.5100   11.2690 C.ar      1 QIG999      0.0000 
     25 C26        15.2340   65.8140   10.3020 C.ar      1 QIG999      0.0000 
     26 C27        15.5260   65.8760    8.9280 C.ar      1 QIG999      0.0000 
     27 N28        14.7140   65.1940    8.0750 N.ar      1 QIG999      0.0000 
     28 H          11.7999   62.6427    3.4240 H         1 QIG999      0.0000 
     29 H          14.1224   63.0095    2.7854 H         1 QIG999      0.0000 
     30 H          15.6089   64.2085    4.2979 H         1 QIG999      0.0000 
     31 H          18.7691   67.5846    7.1737 H         1 QIG999      0.0000 
     32 H          20.2525   68.1606    5.5099 H         1 QIG999      0.0000 
     33 H          20.7640   68.9659    3.2542 H         1 QIG999      0.0000 
     34 H          19.5550   69.4475    0.7357 H         1 QIG999      0.0000 
     35 H          15.7931   68.2923    1.5452 H         1 QIG999      0.0000 
     36 H          16.2168   67.5399    4.3744 H         1 QIG999      0.0000 
     37 H          18.2742   67.8883    9.1488 H         1 QIG999      0.0000 
     38 H          17.7309   67.7639   11.5273 H         1 QIG999      0.0000 
     39 H          15.8051   66.4468   12.2552 H         1 QIG999      0.0000 
     40 H          14.4330   65.2673   10.6369 H         1 QIG999      0.0000 
     41 H          10.3068   62.4570    5.7731 H         1 QIG999      0.0000 
     42 H          10.3641   63.8257    6.6154 H         1 QIG999      0.0000 
     43 H           9.9005   63.8479    5.0757 H         1 QIG999      0.0000 
@<TRIPOS>BOND
     1    2    1 1    
     2   41    1 1    
     3   42    1 1    
     4   43    1 1    
     5    3    2 ar   
     6    7    2 ar   
     7    4    3 ar   
     8   28    3 1    
     9    5    4 ar   
    10   29    4 1    
    11    6    5 ar   
    12   30    5 1    
    13    7    6 ar   
    14    8    6 1    
    15    9    8 ar   
    16   27    8 ar   
    17   10    9 ar   
    18   11   10 1    
    19   21   10 ar   
    20   12   11 1    
    21   31   11 1    
    22   13   12 ar   
    23   20   12 ar   
    24   14   13 ar   
    25   32   13 1    
    26   15   14 ar   
    27   33   14 1    
    28   16   15 1    
    29   19   15 ar   
    30   17   16 1    
    31   34   16 1    
    32   18   17 2    
    33   19   18 1    
    34   35   18 1    
    35   20   19 ar   
    36   36   20 1    
    37   22   21 ar   
    38   26   21 ar   
    39   23   22 ar   
    40   37   22 1    
    41   24   23 ar   
    42   38   23 1    
    43   25   24 ar   
    44   39   24 1    
    45   26   25 ar   
    46   40   25 1    
    47   27   26 ar   
@<TRIPOS>SUBSTRUCTURE
     1 QIG999      1 GROUP   
@<TRIPOS>SET

