#    Name: 3w78_CBD_1_INTS_M
#    Modification time : Tue Mar 25 02:24:19 2014

@<TRIPOS>MOLECULE
3w78_CBD_1_INTS_M
   56     0     9     0     0
SMALL
NO_CHARGES


@<TRIPOS>ATOM
      1 CA        -86.7775   24.0725  -14.0005 C.3       3 GLC5        0.0000 
      2 CA        -85.4810   22.3920  -14.1660 C.3       9 GLL5        0.0000 
      3 CA        -88.0740   25.7530  -13.8350 C.3       6 GLP5        0.0000 
      4 O         -87.2035   19.3135  -10.7020 O.2       1 ALC1        0.0000 
      5 O         -86.1780   18.7660  -11.9800 O.2       7 ALL1        0.0000 
      6 O         -88.2290   19.8610   -9.4240 O.2       4 ALP1        0.0000 
      7 CA        -88.6415   17.0335  -11.2200 C.3       3 GLC5        0.0000 
      8 CA        -86.6710   16.4700  -11.6790 C.3       9 GLL5        0.0000 
      9 CA        -90.6120   17.5970  -10.7610 C.3       6 GLP5        0.0000 
     10 CA        -84.0745    9.7730  -12.9905 C.3       3 GLC5        0.0000 
     11 CA        -86.1210   10.0100  -13.1660 C.3       9 GLL5        0.0000 
     12 CA        -82.0280    9.5360  -12.8150 C.3       6 GLP5        0.0000 
     13 CA        -87.8455   10.9120  -13.1950 C.3       3 GLC5        0.0000 
     14 CA        -89.5700   11.8140  -13.2240 C.3       6 GLP5        0.0000 
     15 CA        -84.1880   12.2045  -11.7135 C.3       3 GLC5        0.0000 
     16 CA        -85.9670   11.1080  -11.0840 C.3       9 GLL5        0.0000 
     17 CA        -82.4090   13.3010  -12.3430 C.3       6 GLP5        0.0000 
     18 CA        -87.8680   11.2635  -11.4260 C.3       3 GLC5        0.0000 
     19 CA        -89.7690   11.4190  -11.7680 C.3       6 GLP5        0.0000 
     20 CA        -84.2320   12.8320  -12.7120 C.3       3 GLC5        0.0000 
     21 CA        -86.0550   12.3630  -13.0810 C.3       9 GLL5        0.0000 
     22 CA        -87.8125   12.0885  -13.1525 C.3       3 GLC5        0.0000 
     23 N         -90.0320   12.1780   -7.3785 N.am      2 SEC2        0.0000 
     24 N         -89.2220   10.9730   -8.1270 N.am      8 SEL2        0.0000 
     25 N         -90.8420   13.3830   -6.6300 N.am      5 SEP2        0.0000 
     26 CA        -83.7940   13.2260  -10.6545 C.3       3 GLC5        0.0000 
     27 CA        -85.1790   13.1510   -8.9660 C.3       9 GLL5        0.0000 
     28 CA        -87.8388   20.9070  -13.0325 C.3       3 GLC5        0.0000 
     29 CA        -86.5400   20.1280  -13.9310 C.3       9 GLL5        0.0000 
     30 CA        -89.2340   21.1050  -11.7560 C.3       6 GLP5        0.0000 
     31 CA        -80.6461   24.6471   -8.6700 C.3       3 GLC5        0.0000 
     32 CA        -82.1450   22.6930   -8.4080 C.3       9 GLL5        0.0000 
     33 CA        -79.1150   25.9570   -8.2650 C.3       6 GLP5        0.0000 
     34 CA        -83.4921   23.4739   -7.3839 C.3       3 GLC5        0.0000 
     35 CA        -81.9180   23.8760   -9.1170 C.3       9 GLL5        0.0000 
     36 CA        -84.4910   24.4670   -5.9250 C.3       6 GLP5        0.0000 
     37 CA        -87.3708   20.7735  -12.0680 C.3       3 GLC5        0.0000 
     38 CA        -85.0690   20.9700  -12.0800 C.3       9 GLL5        0.0000 
     39 CA        -84.1090   14.3213  -13.0467 C.3       3 GLC5        0.0000 
     40 CA        -85.5220   15.8870  -14.1730 C.3       9 GLL5        0.0000 
     41 CA        -84.1680   15.6768  -12.5343 C.3       3 GLC5        0.0000 
     42 CA        -86.0960   14.7960  -13.3280 C.3       9 GLL5        0.0000 
     43 CA        -82.5270   16.0120  -11.3180 C.3       6 GLP5        0.0000 
     44 CA        -87.6925   15.8392  -13.9262 C.3       3 GLC5        0.0000 
     45 CA        -89.5760   16.3370  -14.1020 C.3       6 GLP5        0.0000 
     46 CA        -84.5970   15.9080  -11.6037 C.3       3 GLC5        0.0000 
     47 CA        -86.6630   15.1380  -12.1000 C.3       9 GLL5        0.0000 
     48 CA        -88.1215   16.0705  -12.9957 C.3       3 GLC5        0.0000 
     49 CA        -84.0635   17.4057  -12.3268 C.3       3 GLC5        0.0000 
     50 CA        -86.1320   17.4950  -12.4630 C.3       9 GLL5        0.0000 
     51 CA        -82.2830   17.4650  -11.5710 C.3       6 GLP5        0.0000 
     52 CA        -87.7100   16.8417  -13.5922 C.3       3 GLC5        0.0000 
     53 CA        -85.5560   17.1980  -13.7020 C.3       9 GLL5        0.0000 
     54 CA        -88.2909   13.9524   -7.8514 C.3       3 GLC5        0.0000 
     55 CA        -86.9820   11.9790   -7.7130 C.3       9 GLL5        0.0000 
     56 CA        -89.9730   14.5640   -8.5580 C.3       6 GLP5        0.0000 
@<TRIPOS>BOND
@<TRIPOS>SUBSTRUCTURE
     1 ALC1        4 GROUP        1 X    ALC  0     ROOT ALC X 1
     2 SEC2       23 GROUP        1 X    SEC  0     **** SEC X 2
     3 GLC5        1 GROUP        1 X    GLC  0     **** GLC X 6
     4 ALP1        6 GROUP        1 Y    ALP  0     ROOT ALP Y 8
     5 SEP2       25 GROUP        1 Y    SEP  0     **** SEP Y 9
     6 GLP5        3 GROUP        1 Y    GLP  0     **** GLP Y 13
     7 ALL1        5 GROUP        1 Z    ALL  0     ROOT ALL Z 15
     8 SEL2       24 GROUP        1 Z    SEL  0     **** SEL Z 16
     9 GLL5        2 GROUP        1 Z    GLL  0     **** GLL Z 20
@<TRIPOS>SET

