#    Name: 3w78_CBD_1_ligand
#    Modification time : Tue Mar 25 02:24:20 2014

@<TRIPOS>MOLECULE
3w78_CBD_1_ligand
   68    73     1     0     0
SMALL
NO_CHARGES


@<TRIPOS>ATOM
      1 C1        -86.3470   21.2900  -14.6870 C.ar      1 CBD302      0.0000 
      2 SA        -87.0650   21.4360  -16.1140 S.o2      1 CBD302      0.0000 
      3 O1A       -87.4640   20.1450  -16.6010 O.co2     1 CBD302      0.0000 
      4 O2A       -88.2270   22.2790  -15.9980 O.co2     1 CBD302      0.0000 
      5 O3A       -86.0100   22.0900  -17.1760 O.co2     1 CBD302      0.0000 
      6 C2        -85.4810   22.3920  -14.1660 C.ar      1 CBD302      0.0000 
      7 N2        -85.2920   23.5240  -14.8880 N.pl3     1 CBD302      0.0000 
      8 C3        -84.8280   22.2320  -12.8350 C.ar      1 CBD302      0.0000 
      9 C4        -83.9510   23.3000  -12.2630 C.2       1 CBD302      0.0000 
     10 O4        -83.7480   24.3600  -12.8950 O.2       1 CBD302      0.0000 
     11 C5        -83.3190   23.1030  -10.9260 C.ar      1 CBD302      0.0000 
     12 C6        -82.5010   24.0870  -10.3670 C.ar      1 CBD302      0.0000 
     13 C7        -81.9180   23.8760   -9.1170 C.ar      1 CBD302      0.0000 
     14 C8        -82.1450   22.6930   -8.4080 C.ar      1 CBD302      0.0000 
     15 C9        -82.9550   21.6770   -8.9230 C.ar      1 CBD302      0.0000 
     16 C10       -83.5580   21.8380  -10.1690 C.ar      1 CBD302      0.0000 
     17 C11       -84.4300   20.7730  -10.7450 C.2       1 CBD302      0.0000 
     18 O11       -84.6290   19.7190  -10.1050 O.2       1 CBD302      0.0000 
     19 C12       -85.0690   20.9700  -12.0800 C.ar      1 CBD302      0.0000 
     20 C13       -85.9460   19.9140  -12.6800 C.ar      1 CBD302      0.0000 
     21 C14       -86.5400   20.1280  -13.9310 C.ar      1 CBD302      0.0000 
     22 NB        -86.1780   18.7660  -11.9800 N.pl3     1 CBD302      0.0000 
     23 CB1       -85.5220   15.8870  -14.1730 C.ar      1 CBD302      0.0000 
     24 SB        -84.8630   15.5790  -15.5980 S.o2      1 CBD302      0.0000 
     25 O1B       -85.5970   14.5380  -16.2590 O.co2     1 CBD302      0.0000 
     26 O2B       -84.9020   16.7570  -16.4160 O.co2     1 CBD302      0.0000 
     27 O3B       -83.3110   15.1060  -15.3930 O.co2     1 CBD302      0.0000 
     28 CB2       -86.0960   14.7960  -13.3280 C.ar      1 CBD302      0.0000 
     29 CB3       -86.6630   15.1380  -12.1000 C.ar      1 CBD302      0.0000 
     30 CB4       -86.6710   16.4700  -11.6790 C.ar      1 CBD302      0.0000 
     31 CB5       -86.1320   17.4950  -12.4630 C.ar      1 CBD302      0.0000 
     32 CB6       -85.5560   17.1980  -13.7020 C.ar      1 CBD302      0.0000 
     33 NC        -86.0680   13.5210  -13.7910 N.pl3     1 CBD302      0.0000 
     34 NC1       -86.1290   11.2100  -13.7870 N.ar      1 CBD302      0.0000 
     35 CC2       -86.1210   10.0100  -13.1660 C.ar      1 CBD302      0.0000 
     36 CL        -86.2230    8.4970  -14.1400 Cl        1 CBD302      0.0000 
     37 NC3       -86.0400    9.9650  -11.8130 N.ar      1 CBD302      0.0000 
     38 CC4       -85.9670   11.1080  -11.0840 C.ar      1 CBD302      0.0000 
     39 NC5       -85.9740   12.3080  -11.7250 N.ar      1 CBD302      0.0000 
     40 CC6       -86.0550   12.3630  -13.0810 C.ar      1 CBD302      0.0000 
     41 ND        -85.8830   11.0040   -9.7290 N.pl3     1 CBD302      0.0000 
     42 CD1       -86.9820   11.9790   -7.7130 C.ar      1 CBD302      0.0000 
     43 SD        -87.9670   10.7360   -7.4710 S.o2      1 CBD302      0.0000 
     44 O1D       -89.2220   10.9730   -8.1270 O.co2     1 CBD302      0.0000 
     45 O2D       -87.3700    9.5320   -7.9760 O.co2     1 CBD302      0.0000 
     46 O3D       -88.2570   10.5390   -5.8750 O.co2     1 CBD302      0.0000 
     47 CD2       -86.0010   12.0300   -8.8470 C.ar      1 CBD302      0.0000 
     48 CD3       -85.1790   13.1510   -8.9660 C.ar      1 CBD302      0.0000 
     49 CD4       -85.2870   14.2080   -8.0630 C.ar      1 CBD302      0.0000 
     50 CD5       -86.2050   14.1610   -7.0140 C.ar      1 CBD302      0.0000 
     51 CD6       -87.0430   13.0620   -6.8380 C.ar      1 CBD302      0.0000 
     52 H         -84.7224   24.2272  -14.4626 H         1 CBD302      0.0000 
     53 H         -85.7389   23.5555  -15.7820 H         1 CBD302      0.0000 
     54 H         -82.3296   24.9614  -10.8737 H         1 CBD302      0.0000 
     55 H         -81.3095   24.6042   -8.7086 H         1 CBD302      0.0000 
     56 H         -81.7026   22.5663   -7.4793 H         1 CBD302      0.0000 
     57 H         -83.1038   20.8176   -8.3849 H         1 CBD302      0.0000 
     58 H         -87.1615   19.3778  -14.3206 H         1 CBD302      0.0000 
     59 H         -86.4245   18.8801  -10.9299 H         1 CBD302      0.0000 
     60 H         -87.0753   14.4101  -11.5041 H         1 CBD302      0.0000 
     61 H         -87.0890   16.7065  -10.7577 H         1 CBD302      0.0000 
     62 H         -85.1532   17.9576  -14.2708 H         1 CBD302      0.0000 
     63 H         -86.0540   13.4098  -14.8841 H         1 CBD302      0.0000 
     64 H         -85.7076   10.0213   -9.3222 H         1 CBD302      0.0000 
     65 H         -84.4863   13.1979   -9.7278 H         1 CBD302      0.0000 
     66 H         -84.6797   15.0362   -8.1722 H         1 CBD302      0.0000 
     67 H         -86.2642   14.9572   -6.3548 H         1 CBD302      0.0000 
     68 H         -87.7131   13.0497   -6.0549 H         1 CBD302      0.0000 
@<TRIPOS>BOND
     1    2    1 1    
     2    6    1 ar   
     3   21    1 ar   
     4    3    2 ar   
     5    4    2 ar   
     6    5    2 ar   
     7    7    6 1    
     8    8    6 ar   
     9   52    7 1    
    10   53    7 1    
    11    9    8 1    
    12   19    8 ar   
    13   10    9 2    
    14   11    9 1    
    15   12   11 ar   
    16   16   11 ar   
    17   13   12 ar   
    18   54   12 1    
    19   14   13 ar   
    20   55   13 1    
    21   15   14 ar   
    22   56   14 1    
    23   16   15 ar   
    24   57   15 1    
    25   17   16 1    
    26   18   17 2    
    27   19   17 1    
    28   20   19 ar   
    29   21   20 ar   
    30   22   20 1    
    31   58   21 1    
    32   31   22 1    
    33   59   22 1    
    34   24   23 1    
    35   28   23 ar   
    36   32   23 ar   
    37   25   24 ar   
    38   26   24 ar   
    39   27   24 ar   
    40   29   28 ar   
    41   33   28 1    
    42   30   29 ar   
    43   60   29 1    
    44   31   30 ar   
    45   61   30 1    
    46   32   31 ar   
    47   62   32 1    
    48   40   33 1    
    49   63   33 1    
    50   35   34 ar   
    51   40   34 ar   
    52   36   35 1    
    53   37   35 ar   
    54   38   37 ar   
    55   39   38 ar   
    56   41   38 1    
    57   40   39 ar   
    58   47   41 1    
    59   64   41 1    
    60   43   42 1    
    61   47   42 ar   
    62   51   42 ar   
    63   44   43 ar   
    64   45   43 ar   
    65   46   43 ar   
    66   48   47 ar   
    67   49   48 ar   
    68   65   48 1    
    69   50   49 ar   
    70   66   49 1    
    71   51   50 ar   
    72   67   50 1    
    73   68   51 1    
@<TRIPOS>SUBSTRUCTURE
     1 CBD302      1 GROUP   
@<TRIPOS>SET

