#    Name: 1g6o_ADP_2_INTS_M
#    Modification time : Tue Mar 25 02:43:16 2014

@<TRIPOS>MOLECULE
1g6o_ADP_2_INTS_M
   39     0     9     0     0
SMALL
NO_CHARGES


@<TRIPOS>ATOM
      1 NZ        -10.8320   31.0530   21.0720 N.4       2 LYC4        0.0000 
      2 NZ        -10.9820   29.6240   21.2780 N.4       8 LYL4        0.0000 
      3 NZ        -10.6820   32.4820   20.8660 N.4       5 LYP4        0.0000 
      4 N         -11.5495   28.4530   20.3455 N.am      1 SEC2        0.0000 
      5 N         -10.9820   29.6240   21.2780 N.am      7 SEL2        0.0000 
      6 N         -12.1170   27.2820   19.4130 N.am      4 SEP2        0.0000 
      7 N         -10.1770   28.7735   20.2960 N.am      1 SEC2        0.0000 
      8 N          -9.3720   27.9230   19.3140 N.am      4 SEP2        0.0000 
      9 N         -10.8320   31.0530   21.0720 N.am      1 SEC2        0.0000 
     10 N         -10.6820   32.4820   20.8660 N.am      4 SEP2        0.0000 
     11 N         -12.6820   29.3460   24.8260 N.am      1 SEC2        0.0000 
     12 N         -12.2330   29.8260   23.4510 N.am      7 SEL2        0.0000 
     13 N         -13.1310   28.8660   26.2010 N.am      4 SEP2        0.0000 
     14 N         -13.4530   30.0670   22.8930 N.am      1 SEC2        0.0000 
     15 N         -14.6730   30.3080   22.3350 N.am      4 SEP2        0.0000 
     16 N          -8.4680   28.9195   23.7050 N.am      1 SEC2        0.0000 
     17 N          -9.7550   29.2020   23.3540 N.am      7 SEL2        0.0000 
     18 N          -7.1810   28.6370   24.0560 N.am      4 SEP2        0.0000 
     19 N          -8.5460   25.3350   22.0315 N.am      1 SEC2        0.0000 
     20 N          -9.7950   25.7400   22.4400 N.am      7 SEL2        0.0000 
     21 N          -7.2970   24.9300   21.6230 N.am      4 SEP2        0.0000 
     22 N          -9.5730   24.4350   22.3225 N.am      1 SEC2        0.0000 
     23 N          -9.3510   23.1300   22.2050 N.am      4 SEP2        0.0000 
     24 N         -11.8485   27.4280   20.9905 N.am      1 SEC2        0.0000 
     25 N         -11.5800   27.5740   22.5680 N.am      7 SEL2        0.0000 
     26 CA        -14.3580   27.0415   22.7515 C.3       3 GLC5        0.0000 
     27 CA        -13.6120   25.1620   23.2990 C.3       9 GLL5        0.0000 
     28 CA        -15.1040   28.9210   22.2040 C.3       6 GLP5        0.0000 
     29 N         -15.5250   22.2775   24.7735 N.am      1 SEC2        0.0000 
     30 N         -13.9170   22.2450   25.4300 N.am      7 SEL2        0.0000 
     31 N         -17.1330   22.3100   24.1170 N.am      4 SEP2        0.0000 
     32 CA        -14.8725   22.8310   20.6280 C.3       3 GLC5        0.0000 
     33 CA        -13.7280   21.7950   22.1760 C.3       9 GLL5        0.0000 
     34 CA        -16.0170   23.8670   19.0800 C.3       6 GLP5        0.0000 
     35 CA        -10.5140   21.3730   19.6625 C.3       3 GLC5        0.0000 
     36 CA        -12.5040   21.2340   18.6950 C.3       9 GLL5        0.0000 
     37 CA         -8.5240   21.5120   20.6300 C.3       6 GLP5        0.0000 
     38 CA        -14.2235   22.1354   18.3506 C.3       3 GLC5        0.0000 
     39 CA        -15.5000   23.4100   17.7380 C.3       6 GLP5        0.0000 
@<TRIPOS>BOND
@<TRIPOS>SUBSTRUCTURE
     1 SEC2        4 GROUP        1 X    SEC  0     ROOT SEC X 2
     2 LYC4        1 GROUP        1 X    LYC  0     **** LYC X 4
     3 GLC5       26 GROUP        1 X    GLC  0     **** GLC X 6
     4 SEP2        6 GROUP        1 Y    SEP  0     ROOT SEP Y 9
     5 LYP4        3 GROUP        1 Y    LYP  0     **** LYP Y 11
     6 GLP5       28 GROUP        1 Y    GLP  0     **** GLP Y 13
     7 SEL2        5 GROUP        1 Z    SEL  0     ROOT SEL Z 16
     8 LYL4        2 GROUP        1 Z    LYL  0     **** LYL Z 18
     9 GLL5       27 GROUP        1 Z    GLL  0     **** GLL Z 20
@<TRIPOS>SET

