#    Name: 1g6o_ADP_2_ligand
#    Modification time : Tue Mar 25 02:43:16 2014

@<TRIPOS>MOLECULE
1g6o_ADP_2_ligand
   39    41     1     0     0
SMALL
NO_CHARGES


@<TRIPOS>ATOM
      1 PB        -11.0790   29.0670   22.6350 P.3       1 ADP402      0.0000 
      2 O1B       -10.9820   29.6240   21.2780 O.co2     1 ADP402      0.0000 
      3 O2B       -12.2330   29.8260   23.4510 O.co2     1 ADP402      0.0000 
      4 O3B        -9.7550   29.2020   23.3540 O.co2     1 ADP402      0.0000 
      5 PA        -11.0640   26.1400   23.0890 P.3       1 ADP402      0.0000 
      6 O1A       -10.8950   26.2340   24.5560 O.co2     1 ADP402      0.0000 
      7 O2A        -9.7950   25.7400   22.4400 O.co2     1 ADP402      0.0000 
      8 O3A       -11.5800   27.5740   22.5680 O.3       1 ADP402      0.0000 
      9 O5'       -12.2720   25.1270   22.6960 O.3       1 ADP402      0.0000 
     10 C5'       -13.6120   25.1620   23.2990 C.3       1 ADP402      0.0000 
     11 C4'       -14.1830   23.7280   23.5280 C.3       1 ADP402      0.0000 
     12 O4'       -14.4400   23.0630   22.2730 O.3       1 ADP402      0.0000 
     13 C3'       -13.2540   22.8340   24.3140 C.3       1 ADP402      0.0000 
     14 O3'       -13.9170   22.2450   25.4300 O.3       1 ADP402      0.0000 
     15 C2'       -12.7220   21.7900   23.3480 C.3       1 ADP402      0.0000 
     16 O2'       -12.5220   20.5190   23.9840 O.3       1 ADP402      0.0000 
     17 C1'       -13.7280   21.7950   22.1760 C.3       1 ADP402      0.0000 
     18 N9        -13.0830   21.7290   20.7700 N.pl3     1 ADP402      0.0000 
     19 C8        -12.1430   22.5680   20.2900 C.2       1 ADP402      0.0000 
     20 N7        -11.8130   22.2490   19.0470 N.2       1 ADP402      0.0000 
     21 C5        -12.5040   21.2340   18.6950 C.ar      1 ADP402      0.0000 
     22 C6        -12.6020   20.4530   17.5140 C.ar      1 ADP402      0.0000 
     23 N6        -11.8380   20.7580   16.4340 N.pl3     1 ADP402      0.0000 
     24 N1        -13.4970   19.3710   17.4690 N.ar      1 ADP402      0.0000 
     25 C2        -14.2920   19.0470   18.5710 C.ar      1 ADP402      0.0000 
     26 N3        -14.1930   19.8140   19.7260 N.ar      1 ADP402      0.0000 
     27 C4        -13.3410   20.8780   19.8220 C.ar      1 ADP402      0.0000 
     28 H         -14.3195   25.6987   22.6558 H         1 ADP402      0.0000 
     29 H         -13.5931   25.6676   24.2718 H         1 ADP402      0.0000 
     30 H         -15.1123   23.8263   24.0866 H         1 ADP402      0.0000 
     31 H         -12.4071   23.4434   24.6294 H         1 ADP402      0.0000 
     32 H         -11.7834   22.1962   22.9473 H         1 ADP402      0.0000 
     33 H         -14.4091   20.9853   22.2952 H         1 ADP402      0.0000 
     34 H         -11.7597   23.3167   20.8063 H         1 ADP402      0.0000 
     35 H         -11.2345   21.5494   16.5313 H         1 ADP402      0.0000 
     36 H         -11.9463   20.1643   15.6366 H         1 ADP402      0.0000 
     37 H         -14.9367   18.2562   18.5255 H         1 ADP402      0.0000 
     38 H         -13.4133   22.5691   26.2307 H         1 ADP402      0.0000 
     39 H         -13.0118   20.5848   24.8533 H         1 ADP402      0.0000 
@<TRIPOS>BOND
     1    2    1 ar   
     2    3    1 ar   
     3    4    1 ar   
     4    8    1 1    
     5    6    5 ar   
     6    7    5 ar   
     7    8    5 1    
     8    9    5 1    
     9   10    9 1    
    10   11   10 1    
    11   28   10 1    
    12   29   10 1    
    13   12   11 1    
    14   13   11 1    
    15   30   11 1    
    16   17   12 1    
    17   14   13 1    
    18   15   13 1    
    19   31   13 1    
    20   38   14 1    
    21   16   15 1    
    22   17   15 1    
    23   32   15 1    
    24   39   16 1    
    25   18   17 1    
    26   33   17 1    
    27   19   18 1    
    28   27   18 1    
    29   20   19 2    
    30   34   19 1    
    31   21   20 1    
    32   22   21 ar   
    33   27   21 ar   
    34   23   22 1    
    35   24   22 ar   
    36   35   23 1    
    37   36   23 1    
    38   25   24 ar   
    39   26   25 ar   
    40   37   25 1    
    41   27   26 ar   
@<TRIPOS>SUBSTRUCTURE
     1 ADP402      1 GROUP   
@<TRIPOS>SET

