#    Name: 3v49_PK0_1_INTS_M
#    Modification time : Mon Mar 24 23:56:49 2014

@<TRIPOS>MOLECULE
3v49_PK0_1_INTS_M
   83     0     6     0     0
SMALL
NO_CHARGES


@<TRIPOS>ATOM
      1 CA         30.5640    1.6400    1.9865 C.3       2 GLC5        0.0000 
      2 CA         31.0210    0.8540    3.7490 C.3       6 GLL5        0.0000 
      3 CA         30.1070    2.4260    0.2240 C.3       4 GLP5        0.0000 
      4 CA         32.4055    2.0285    3.2425 C.3       2 GLC5        0.0000 
      5 CA         33.7900    3.2030    2.7360 C.3       4 GLP5        0.0000 
      6 CA         30.5685   -1.8415    1.4940 C.3       2 GLC5        0.0000 
      7 CA         29.0160   -1.4320    2.7480 C.3       6 GLL5        0.0000 
      8 CA         32.1210   -2.2510    0.2400 C.3       4 GLP5        0.0000 
      9 CA         27.4985   -1.8775    1.5885 C.3       2 GLC5        0.0000 
     10 CA         25.9810   -2.3230    0.4290 C.3       4 GLP5        0.0000 
     11 CA         28.6645   -3.3005    1.7605 C.3       2 GLC5        0.0000 
     12 CA         28.3130   -5.1690    0.7730 C.3       4 GLP5        0.0000 
     13 CA         30.2045   -2.6475    4.0745 C.3       2 GLC5        0.0000 
     14 CA         31.3930   -3.8630    5.4010 C.3       4 GLP5        0.0000 
     15 CA         32.3780   -1.5310    7.2530 C.3       2 GLC5        0.0000 
     16 CA         30.7980   -0.1350    6.6420 C.3       6 GLL5        0.0000 
     17 CA         33.9580   -2.9270    7.8640 C.3       4 GLP5        0.0000 
     18 CA         27.5575   -3.3640    8.0745 C.3       2 GLC5        0.0000 
     19 CA         28.5580   -1.6410    7.3670 C.3       6 GLL5        0.0000 
     20 CA         26.5570   -5.0870    8.7820 C.3       4 GLP5        0.0000 
     21 N          28.3605   -2.4895   10.0130 N.am      1 SEC2        0.0000 
     22 N          29.6210   -2.2520    9.4890 N.am      5 SEL2        0.0000 
     23 N          27.1000   -2.7270   10.5370 N.am      3 SEP2        0.0000 
     24 CA         25.8190    2.1715    5.6675 C.3       2 GLC5        0.0000 
     25 CA         26.0170    2.9880    3.8080 C.3       6 GLL5        0.0000 
     26 CA         25.6210    1.3550    7.5270 C.3       4 GLP5        0.0000 
     27 CA         24.6085    6.3945    5.5630 C.3       2 GLC5        0.0000 
     28 CA         24.8800    6.6060    3.5210 C.3       6 GLL5        0.0000 
     29 CA         24.3370    6.1830    7.6050 C.3       4 GLP5        0.0000 
     30 CA         22.8060    6.9680    3.2870 C.3       2 GLC5        0.0000 
     31 CA         20.7320    7.3300    3.0530 C.3       4 GLP5        0.0000 
     32 CA         24.7445    5.8715    1.7875 C.3       2 GLC5        0.0000 
     33 CA         24.6090    5.1370    0.0540 C.3       4 GLP5        0.0000 
     34 N          23.6065    8.8980    3.1975 N.am      1 SEC2        0.0000 
     35 N          24.3950    7.7410    3.5160 N.am      5 SEL2        0.0000 
     36 N          22.8180   10.0550    2.8790 N.am      3 SEP2        0.0000 
     37 CA         21.9675    5.7910    4.0260 C.3       2 GLC5        0.0000 
     38 CA         23.2030    4.2520    4.9990 C.3       6 GLL5        0.0000 
     39 CA         23.0260    1.2285    4.5305 C.3       2 GLC5        0.0000 
     40 CA         23.2040    2.8810    3.6770 C.3       6 GLL5        0.0000 
     41 CA         22.8480   -0.4240    5.3840 C.3       4 GLP5        0.0000 
     42 CA         28.7835    0.5795    7.2005 C.3       2 GLC5        0.0000 
     43 CA         29.7180   -0.2290    5.7660 C.3       6 GLL5        0.0000 
     44 CA         27.3090    1.3410    8.1970 C.3       4 GLP5        0.0000 
     45 CA         32.2138    0.9942    7.4840 C.3       2 GLC5        0.0000 
     46 CA         33.6640    2.4690    7.7210 C.3       4 GLP5        0.0000 
     47 CA         28.7437    0.0753    8.1288 C.3       2 GLC5        0.0000 
     48 CA         30.7290   -0.8260    7.8520 C.3       6 GLL5        0.0000 
     49 CA         30.9432   -2.1835    6.2145 C.3       2 GLC5        0.0000 
     50 CA         31.7248   -2.1178    8.6418 C.3       2 GLC5        0.0000 
     51 CA         33.2710   -3.0450    9.2230 C.3       4 GLP5        0.0000 
     52 CA         27.9470    0.0152    7.4780 C.3       2 GLC5        0.0000 
     53 CA         29.4597   -2.9265    6.2847 C.3       2 GLC5        0.0000 
     54 CA         28.6120   -0.9800    6.1510 C.3       6 GLL5        0.0000 
     55 CA         30.0670   -4.5640    5.5850 C.3       4 GLP5        0.0000 
     56 CA         27.7647    3.5288    1.5953 C.3       2 GLC5        0.0000 
     57 CA         27.4050    3.1250    3.7130 C.3       6 GLL5        0.0000 
     58 CA         27.8680    3.2820   -0.4560 C.3       4 GLP5        0.0000 
     59 CA         27.3912    4.1843    5.5362 C.3       2 GLC5        0.0000 
     60 CA         27.9180    4.4260    3.5800 C.3       6 GLL5        0.0000 
     61 CA         27.1210    4.5930    7.4260 C.3       4 GLP5        0.0000 
     62 CA         29.1390    5.4945    4.5960 C.3       2 GLC5        0.0000 
     63 CA         30.7650    6.0030    5.6230 C.3       4 GLP5        0.0000 
     64 CA         26.7265    5.9165    5.4192 C.3       2 GLC5        0.0000 
     65 CA         27.1080    5.5460    3.5580 C.3       6 GLL5        0.0000 
     66 CA         27.0370    6.3730    7.2350 C.3       4 GLP5        0.0000 
     67 CA         26.3630    4.0715    5.6095 C.3       2 GLC5        0.0000 
     68 CA         25.1930    4.1120    3.7780 C.3       6 GLL5        0.0000 
     69 CA         26.7000    7.0945    2.2696 C.3       2 GLC5        0.0000 
     70 CA         27.7520    8.1560    0.9770 C.3       4 GLP5        0.0000 
     71 CA         23.9015    5.1495    6.0295 C.3       2 GLC5        0.0000 
     72 CA         23.7290    3.9800    3.9090 C.3       6 GLL5        0.0000 
     73 CA         22.2107    2.8247    5.3250 C.3       2 GLC5        0.0000 
     74 CA         20.9550    2.2190    6.8570 C.3       4 GLP5        0.0000 
     75 CA         21.6480    4.5075    5.3750 C.3       2 GLC5        0.0000 
     76 CA         23.0130    4.6640    3.1690 C.3       6 GLL5        0.0000 
     77 CA         20.1880    4.5570    6.6660 C.3       4 GLP5        0.0000 
     78 CA         21.7223    4.1617    2.4575 C.3       2 GLC5        0.0000 
     79 CA         20.1570    4.7220    1.3070 C.3       4 GLP5        0.0000 
     80 CA         23.7323    3.7153    1.8950 C.3       2 GLC5        0.0000 
     81 CA         24.1770    3.8290    0.1820 C.3       4 GLP5        0.0000 
     82 CA         21.6698    2.6202    3.2750 C.3       2 GLC5        0.0000 
     83 CA         20.0520    1.6390    2.9420 C.3       4 GLP5        0.0000 
@<TRIPOS>BOND
@<TRIPOS>SUBSTRUCTURE
     1 SEC2       21 GROUP        1 X    SEC  0     ROOT SEC X 2
     2 GLC5        1 GROUP        1 X    GLC  0     **** GLC X 6
     3 SEP2       23 GROUP        1 Y    SEP  0     ROOT SEP Y 9
     4 GLP5        3 GROUP        1 Y    GLP  0     **** GLP Y 13
     5 SEL2       22 GROUP        1 Z    SEL  0     ROOT SEL Z 16
     6 GLL5        2 GROUP        1 Z    GLL  0     **** GLL Z 20
@<TRIPOS>SET

