#    Name: 3v49_PK0_1_ligand
#    Modification time : Mon Mar 24 23:56:49 2014

@<TRIPOS>MOLECULE
3v49_PK0_1_ligand
   42    44     1     0     0
SMALL
NO_CHARGES


@<TRIPOS>ATOM
      1 N4         28.8800   -0.1250    3.4150 N.am      1 PK0950      0.0000 
      2 C31        31.0210    0.8540    3.7490 C.3       1 PK0950      0.0000 
      3 C4         29.0160   -1.4320    2.7480 C.3       1 PK0950      0.0000 
      4 O2         29.7270    2.6550    5.3940 O.2       1 PK0950      0.0000 
      5 C2         29.2620    1.8410    4.6850 C.2       1 PK0950      0.0000 
      6 O5         26.9340    0.6940    2.3810 O.2       1 PK0950      0.0000 
      7 C5         27.8920    0.8500    3.0940 C.2       1 PK0950      0.0000 
      8 C3         29.7090    0.4640    4.4360 C.3       1 PK0950      0.0000 
      9 C1B        29.7180   -0.2290    5.7660 C.ar      1 PK0950      0.0000 
     10 C2B        30.7980   -0.1350    6.6420 C.ar      1 PK0950      0.0000 
     11 C3B        30.7290   -0.8260    7.8520 C.ar      1 PK0950      0.0000 
     12 C4B        29.6280   -1.5550    8.2690 C.ar      1 PK0950      0.0000 
     13 C5B        28.5580   -1.6410    7.3670 C.ar      1 PK0950      0.0000 
     14 C6B        28.6120   -0.9800    6.1510 C.ar      1 PK0950      0.0000 
     15 O4         29.6210   -2.2520    9.4890 O.3       1 PK0950      0.0000 
     16 N1         28.3030    2.0430    3.7420 N.am      1 PK0950      0.0000 
     17 C1A        27.4050    3.1250    3.7130 C.ar      1 PK0950      0.0000 
     18 C2A        27.9180    4.4260    3.5800 C.ar      1 PK0950      0.0000 
     19 C3A        27.1080    5.5460    3.5580 C.ar      1 PK0950      0.0000 
     20 C4A        25.7240    5.3740    3.6490 C.ar      1 PK0950      0.0000 
     21 C5A        25.1930    4.1120    3.7780 C.ar      1 PK0950      0.0000 
     22 C6A        26.0170    2.9880    3.8080 C.ar      1 PK0950      0.0000 
     23 C41        24.8800    6.6060    3.5210 C.1       1 PK0950      0.0000 
     24 N41        24.3950    7.7410    3.5160 N.1       1 PK0950      0.0000 
     25 C51        23.7290    3.9800    3.9090 C.3       1 PK0950      0.0000 
     26 F1         23.0130    4.6640    3.1690 F         1 PK0950      0.0000 
     27 F2         23.2030    4.2520    4.9990 F         1 PK0950      0.0000 
     28 F3         23.2040    2.8810    3.6770 F         1 PK0950      0.0000 
     29 H          31.6134    0.4213    6.4064 H         1 PK0950      0.0000 
     30 H          31.5732   -0.7881    8.4882 H         1 PK0950      0.0000 
     31 H          27.7304   -2.2008    7.6171 H         1 PK0950      0.0000 
     32 H          27.7980   -1.0459    5.5008 H         1 PK0950      0.0000 
     33 H          28.9533    4.5417    3.4950 H         1 PK0950      0.0000 
     34 H          27.5051    6.4811    3.4773 H         1 PK0950      0.0000 
     35 H          25.6024    2.0503    3.9007 H         1 PK0950      0.0000 
     36 H          31.6656    1.2717    4.3893 H         1 PK0950      0.0000 
     37 H          31.4794    0.0615    3.3467 H         1 PK0950      0.0000 
     38 H          30.8725    1.5125    3.0112 H         1 PK0950      0.0000 
     39 H          29.1884   -1.3327    1.7680 H         1 PK0950      0.0000 
     40 H          29.7729   -1.9650    3.1262 H         1 PK0950      0.0000 
     41 H          28.1895   -1.9865    2.8455 H         1 PK0950      0.0000 
     42 H          30.1984   -1.6746   10.0664 H         1 PK0950      0.0000 
@<TRIPOS>BOND
     1    3    1 1    
     2    7    1 am   
     3    8    1 1    
     4    8    2 1    
     5   36    2 1    
     6   37    2 1    
     7   38    2 1    
     8   39    3 1    
     9   40    3 1    
    10   41    3 1    
    11    5    4 2    
    12    8    5 1    
    13   16    5 am   
    14    7    6 2    
    15   16    7 am   
    16    9    8 1    
    17   10    9 ar   
    18   14    9 ar   
    19   11   10 ar   
    20   29   10 1    
    21   12   11 ar   
    22   30   11 1    
    23   13   12 ar   
    24   15   12 1    
    25   14   13 ar   
    26   31   13 1    
    27   32   14 1    
    28   42   15 1    
    29   17   16 1    
    30   18   17 ar   
    31   22   17 ar   
    32   19   18 ar   
    33   33   18 1    
    34   20   19 ar   
    35   34   19 1    
    36   21   20 ar   
    37   23   20 1    
    38   22   21 ar   
    39   25   21 1    
    40   35   22 1    
    41   24   23 3    
    42   26   25 1    
    43   27   25 1    
    44   28   25 1    
@<TRIPOS>SUBSTRUCTURE
     1 PK0950      1 GROUP   
@<TRIPOS>SET

