#    Name: 2R1N_1_CAVITY_N1_6.mol2
#    Modification time : Tue Mar 11 09:20:09 2014

@<TRIPOS>MOLECULE
2R1N_1_CAVITY_N1_6.mol2
   60     0     7     0     0
SMALL
NO_CHARGES


@<TRIPOS>ATOM
      1 CZ         24.1915   15.5775    3.9431 C.ar      5 PHE5        0.0000 
      2 OG         24.8282   14.2280    4.0968 O.2       1 SER1        0.0000 
      3 N          24.2018   20.5156    3.3388 N.2       2 ALA2        0.0000 
      4 CZ         24.8385   19.1661    3.4925 C.ar      5 PHE5        0.0000 
      5 CZ         25.4752   17.8167    3.6462 C.ar      5 PHE5        0.0000 
      6 CZ         26.1119   16.4672    3.7999 C.ar      5 PHE5        0.0000 
      7 CZ         22.5861   21.2914    2.2041 C.ar      5 PHE5        0.0000 
      8 CZ         23.2228   19.9419    2.3578 C.ar      5 PHE5        0.0000 
      9 CZ         23.8594   18.5925    2.5115 C.ar      5 PHE5        0.0000 
     10 CZ         24.4961   17.2430    2.6652 C.ar      5 PHE5        0.0000 
     11 CA         25.1328   15.8936    2.8189 C.3       6 GLY6        0.0000 
     12 CA         25.7695   14.5441    2.9725 C.3       6 GLY6        0.0000 
     13 CZ         23.5171   16.6694    1.6841 C.ar      5 PHE5        0.0000 
     14 DU         24.1538   15.3199    1.8378 H         7 CUB7        0.0000 
     15 CZ         26.7588   20.0559    3.3494 C.ar      5 PHE5        0.0000 
     16 CZ         27.3955   18.7064    3.5030 C.ar      5 PHE5        0.0000 
     17 CZ         25.1431   20.8317    2.2146 C.ar      5 PHE5        0.0000 
     18 DU         25.7798   19.4822    2.3683 H         7 CUB7        0.0000 
     19 CA         26.4165   18.1328    2.5220 C.3       6 GLY6        0.0000 
     20 CZ         24.1641   20.2580    1.2336 C.ar      5 PHE5        0.0000 
     21 CZ         24.8008   18.9086    1.3872 C.ar      5 PHE5        0.0000 
     22 CA         25.4375   17.5591    1.5409 C.3       6 GLY6        0.0000 
     23 CA         26.0742   16.2097    1.6946 C.3       6 GLY6        0.0000 
     24 CZ         24.4585   16.9855    0.5599 C.ar      5 PHE5        0.0000 
     25 DU         25.0952   15.6360    0.7136 H         7 CUB7        0.0000 
     26 CA         25.7319   14.2866    0.8673 C.3       6 GLY6        0.0000 
     27 CZ         23.4795   16.4118   -0.4212 C.ar      5 PHE5        0.0000 
     28 CZ         27.0635   21.7214    2.0714 C.ar      5 PHE5        0.0000 
     29 CZ         27.7002   20.3720    2.2251 C.ar      5 PHE5        0.0000 
     30 CZ         28.3369   19.0226    2.3788 C.ar      5 PHE5        0.0000 
     31 CZ         26.7212   19.7984    1.2441 C.ar      5 PHE5        0.0000 
     32 CA         27.3579   18.4489    1.3977 C.3       6 GLY6        0.0000 
     33 CZ         25.7422   19.2247    0.2630 C.ar      5 PHE5        0.0000 
     34 CZ         26.3789   17.8753    0.4167 C.ar      5 PHE5        0.0000 
     35 CA         27.0156   16.5258    0.5704 C.3       6 GLY6        0.0000 
     36 CZ         25.3999   17.3016   -0.5644 C.ar      5 PHE5        0.0000 
     37 CA         26.0366   15.9522   -0.4107 C.3       6 GLY6        0.0000 
     38 CZ         30.2573   19.9123    2.2356 C.ar      5 PHE5        0.0000 
     39 CZ         28.0048   22.0376    0.9472 C.ar      5 PHE5        0.0000 
     40 CZ         28.6415   20.6881    1.1009 C.ar      5 PHE5        0.0000 
     41 CZ         29.2782   19.3387    1.2546 C.ar      5 PHE5        0.0000 
     42 CA         29.9149   17.9892    1.4083 C.3       6 GLY6        0.0000 
     43 CZ         27.6625   20.1145    0.1198 C.ar      5 PHE5        0.0000 
     44 O          28.2992   18.7650    0.2735 O.2       2 ALA2        0.0000 
     45 CZ         26.6835   19.5408   -0.8612 C.ar      5 PHE5        0.0000 
     46 O          27.3202   18.1914   -0.7075 O.2       2 ALA2        0.0000 
     47 CA         29.9252   22.9273    0.8040 C.3       6 GLY6        0.0000 
     48 CA         30.5619   21.5779    0.9577 C.3       6 GLY6        0.0000 
     49 OG         31.1986   20.2284    1.1114 O.2       1 SER1        0.0000 
     50 CA         28.3095   23.7031   -0.3307 C.3       6 GLY6        0.0000 
     51 DU         28.9462   22.3537   -0.1771 H         7 CUB7        0.0000 
     52 DU         29.5829   21.0042   -0.0234 H         7 CUB7        0.0000 
     53 NZ         30.2196   19.6548    0.1303 N.2       4 LYS4        0.0000 
     54 CZ         27.9672   21.7800   -1.1581 C.ar      5 PHE5        0.0000 
     55 CZ         28.6039   20.4306   -1.0044 C.ar      5 PHE5        0.0000 
     56 O          29.2406   19.0811   -0.8507 O.2       2 ALA2        0.0000 
     57 CA         30.8666   23.2434   -0.3202 C.3       6 GLY6        0.0000 
     58 CA         31.5033   21.8940   -0.1666 C.3       6 GLY6        0.0000 
     59 N          29.8876   22.6698   -1.3013 N.2       2 ALA2        0.0000 
     60 OD1        30.5243   21.3203   -1.1476 O.3       3 ASP3        0.0000 
@<TRIPOS>BOND
@<TRIPOS>SUBSTRUCTURE
     1 SER1        2 GROUP   
     2 ALA2        3 GROUP   
     3 ASP3       60 GROUP   
     4 LYS4       53 GROUP   
     5 PHE5        1 GROUP   
     6 GLY6       11 GROUP   
     7 CUB7       14 GROUP   
@<TRIPOS>SET

