#    Name: 2r1n_EPL_1_INTS_M
#    Modification time : Mon Mar 24 23:03:12 2014

@<TRIPOS>MOLECULE
2r1n_EPL_1_INTS_M
   34     0     6     0     0
SMALL
NO_CHARGES


@<TRIPOS>ATOM
      1 N          26.5545   20.4570   -2.4545 N.am      1 SEC2        0.0000 
      2 N          27.3900   19.5130   -1.5440 N.am      5 SEL2        0.0000 
      3 N          25.7190   21.4010   -3.3650 N.am      3 SEP2        0.0000 
      4 N          29.6840   17.9725   -0.8945 N.am      1 SEC2        0.0000 
      5 N          29.6080   19.2460   -0.2140 N.am      5 SEL2        0.0000 
      6 N          29.7600   16.6990   -1.5750 N.am      3 SEP2        0.0000 
      7 CA         30.3355   18.0285    3.2795 C.3       2 GLC5        0.0000 
      8 CA         30.7510   19.0080    1.8680 C.3       6 GLL5        0.0000 
      9 CA         29.9200   17.0490    4.6910 C.3       4 GLP5        0.0000 
     10 CA         27.9435   23.8165   -2.4105 C.3       2 GLC5        0.0000 
     11 CA         28.5110   22.4080   -0.8530 C.3       6 GLL5        0.0000 
     12 CA         27.3760   25.2250   -3.9680 C.3       4 GLP5        0.0000 
     13 CA         30.9095   23.6635   -1.1400 C.3       2 GLC5        0.0000 
     14 CA         29.0040   23.6640   -0.1750 C.3       6 GLL5        0.0000 
     15 CA         32.8150   23.6630   -2.1050 C.3       4 GLP5        0.0000 
     16 CA         29.3775   25.1440    0.8505 C.3       2 GLC5        0.0000 
     17 CA         29.7510   26.6240    1.8760 C.3       4 GLP5        0.0000 
     18 CA         28.5865   25.3685   -0.8975 C.3       2 GLC5        0.0000 
     19 CA         28.1690   27.0730   -1.6200 C.3       4 GLP5        0.0000 
     20 CA         30.6250   23.8400    1.2260 C.3       2 GLC5        0.0000 
     21 CA         32.2460   24.0160    2.6270 C.3       4 GLP5        0.0000 
     22 CA         32.3343   18.2715    1.2255 C.3       2 GLC5        0.0000 
     23 CA         30.6560   19.7860    0.5880 C.3       6 GLL5        0.0000 
     24 CA         33.9650   17.1460    1.2230 C.3       4 GLP5        0.0000 
     25 CA         29.9453   20.2470    2.7005 C.3       2 GLC5        0.0000 
     26 CA         29.1870   21.0970    4.1730 C.3       4 GLP5        0.0000 
     27 CA         26.9027   22.4555   -0.7465 C.3       2 GLC5        0.0000 
     28 CA         25.0480   21.8750   -0.9790 C.3       4 GLP5        0.0000 
     29 CA         27.3370   17.3272    2.2400 C.3       2 GLC5        0.0000 
     30 CA         26.3210   19.2760    1.7400 C.3       6 GLL5        0.0000 
     31 CA         28.6950   15.9830    2.7330 C.3       4 GLP5        0.0000 
     32 CA         24.9647   22.4817    3.1002 C.3       2 GLC5        0.0000 
     33 CA         25.7320   20.4230    2.2500 C.3       6 GLL5        0.0000 
     34 CA         24.8420   24.5730    3.6910 C.3       4 GLP5        0.0000 
@<TRIPOS>BOND
@<TRIPOS>SUBSTRUCTURE
     1 SEC2        1 GROUP        1 X    SEC  0     ROOT SEC X 2
     2 GLC5        7 GROUP        1 X    GLC  0     **** GLC X 6
     3 SEP2        3 GROUP        1 Y    SEP  0     ROOT SEP Y 9
     4 GLP5        9 GROUP        1 Y    GLP  0     **** GLP Y 13
     5 SEL2        2 GROUP        1 Z    SEL  0     ROOT SEL Z 16
     6 GLL5        8 GROUP        1 Z    GLL  0     **** GLL Z 20
@<TRIPOS>SET

