#    Name: 2r1n_EPL_1_ligand
#    Modification time : Mon Mar 24 23:03:12 2014

@<TRIPOS>MOLECULE
2r1n_EPL_1_ligand
   34    34     1     0     0
SMALL
NO_CHARGES


@<TRIPOS>ATOM
      1 O1         27.3900   19.5130   -1.5440 O.2       1 EPL701      0.0000 
      2 P          28.1440   19.8790   -0.1460 P.3       1 EPL701      0.0000 
      3 O2         29.6080   19.2460   -0.2140 O.3       1 EPL701      0.0000 
      4 C8         30.6560   19.7860    0.5880 C.3       1 EPL701      0.0000 
      5 C9         30.7510   19.0080    1.8680 C.3       1 EPL701      0.0000 
      6 O4         28.2670   21.4390    0.1640 O.3       1 EPL701      0.0000 
      7 C10        28.5110   22.4080   -0.8530 C.3       1 EPL701      0.0000 
      8 C11        29.0040   23.6640   -0.1750 C.3       1 EPL701      0.0000 
      9 O3         27.6110   19.2930    1.2690 O.3       1 EPL701      0.0000 
     10 C4         26.3210   19.2760    1.7400 C.ar      1 EPL701      0.0000 
     11 C2         25.6370   18.0670    1.7540 C.ar      1 EPL701      0.0000 
     12 C3         24.3530   17.9930    2.2840 C.ar      1 EPL701      0.0000 
     13 C1         23.7450   19.1490    2.7780 C.ar      1 EPL701      0.0000 
     14 O5         22.4560   19.1190    3.2840 O.3       1 EPL701      0.0000 
     15 C7         21.6310   17.9510    3.3330 C.3       1 EPL701      0.0000 
     16 C5         24.4430   20.3580    2.7690 C.ar      1 EPL701      0.0000 
     17 C6         25.7320   20.4230    2.2500 C.ar      1 EPL701      0.0000 
     18 H          30.4705   20.8387    0.8351 H         1 EPL701      0.0000 
     19 H          31.6241   19.7289    0.0750 H         1 EPL701      0.0000 
     20 H          27.6050   22.6500   -1.4068 H         1 EPL701      0.0000 
     21 H          29.2744   22.0745   -1.5546 H         1 EPL701      0.0000 
     22 H          26.0821   17.2205    1.3702 H         1 EPL701      0.0000 
     23 H          23.8553   17.0987    2.3128 H         1 EPL701      0.0000 
     24 H          23.9989   21.2060    3.1496 H         1 EPL701      0.0000 
     25 H          26.2408   21.3131    2.2456 H         1 EPL701      0.0000 
     26 H          30.9495   18.0421    1.7017 H         1 EPL701      0.0000 
     27 H          31.4750   19.3579    2.4624 H         1 EPL701      0.0000 
     28 H          29.8990   19.0464    2.3901 H         1 EPL701      0.0000 
     29 H          29.8492   23.5036    0.3348 H         1 EPL701      0.0000 
     30 H          29.1929   24.3921   -0.8340 H         1 EPL701      0.0000 
     31 H          28.3336   24.0231    0.4744 H         1 EPL701      0.0000 
     32 H          21.4699   17.5716    2.4219 H         1 EPL701      0.0000 
     33 H          22.0457   17.2262    3.8832 H         1 EPL701      0.0000 
     34 H          20.7350   18.1457    3.7321 H         1 EPL701      0.0000 
@<TRIPOS>BOND
     1    2    1 2    
     2    3    2 1    
     3    6    2 1    
     4    9    2 1    
     5    4    3 1    
     6    5    4 1    
     7   18    4 1    
     8   19    4 1    
     9   26    5 1    
    10   27    5 1    
    11   28    5 1    
    12    7    6 1    
    13    8    7 1    
    14   20    7 1    
    15   21    7 1    
    16   29    8 1    
    17   30    8 1    
    18   31    8 1    
    19   10    9 1    
    20   11   10 ar   
    21   17   10 ar   
    22   12   11 ar   
    23   22   11 1    
    24   13   12 ar   
    25   23   12 1    
    26   14   13 1    
    27   16   13 ar   
    28   15   14 1    
    29   32   15 1    
    30   33   15 1    
    31   34   15 1    
    32   17   16 ar   
    33   24   16 1    
    34   25   17 1    
@<TRIPOS>SUBSTRUCTURE
     1 EPL701      1 GROUP   
@<TRIPOS>SET

