#    Name: 2nph_ALA_GLU_THR_PHE_1_INTS_M
#    Modification time : Tue Mar 25 21:28:10 2014

@<TRIPOS>MOLECULE
2nph_ALA_GLU_THR_PHE_1_INTS_M
   59     0    12     0     0
SMALL
NO_CHARGES


@<TRIPOS>ATOM
      1 OD1       -11.0955   13.8635   38.8605 O.co2     3 ASC3        0.0000 
      2 OD1       -11.3150   12.6220   38.7920 O.co2    11 ASL3        0.0000 
      3 OD1       -10.8760   15.1050   38.9290 O.co2     7 ASP3        0.0000 
      4 O         -11.0955   13.8635   38.8605 O.2       1 ALC1        0.0000 
      5 O         -11.3150   12.6220   38.7920 O.2       9 ALL1        0.0000 
      6 O         -10.8760   15.1050   38.9290 O.2       5 ALP1        0.0000 
      7 N         -10.0795   10.2435   35.3430 N.am      2 SEC2        0.0000 
      8 N         -11.4040   10.8480   36.2600 N.am     10 SEL2        0.0000 
      9 N          -8.7550    9.6390   34.4260 N.am      6 SEP2        0.0000 
     10 CA        -13.7970   14.8630   37.1225 C.3       4 GLC5        0.0000 
     11 CA        -13.5230   13.3300   37.9170 C.3      12 GLL5        0.0000 
     12 CA        -14.0710   16.3960   36.3280 C.3       8 GLP5        0.0000 
     13 O         -13.6935   13.5590   35.5045 O.2       1 ALC1        0.0000 
     14 O         -12.3760   12.7480   35.5420 O.2       9 ALL1        0.0000 
     15 O         -15.0110   14.3700   35.4670 O.2       5 ALP1        0.0000 
     16 N         -12.7905   16.1635   33.8810 N.am      2 SEC2        0.0000 
     17 N         -12.5630   14.7320   33.2950 N.am     10 SEL2        0.0000 
     18 N         -13.0180   17.5950   34.4670 N.am      6 SEP2        0.0000 
     19 N         -16.0795   11.3585   33.5700 N.am      2 SEC2        0.0000 
     20 N         -15.5980    9.7950   33.2290 N.am     10 SEL2        0.0000 
     21 N         -16.5610   12.9220   33.9110 N.am      6 SEP2        0.0000 
     22 O          -9.8980   12.5795   32.5220 O.2       1 ALC1        0.0000 
     23 O         -10.5400   13.8620   32.7970 O.2       9 ALL1        0.0000 
     24 O          -9.2560   11.2970   32.2470 O.2       5 ALP1        0.0000 
     25 CA        -11.0460   16.7285   32.2450 C.3       4 GLC5        0.0000 
     26 CA        -10.0790   15.0240   32.0490 C.3      12 GLL5        0.0000 
     27 CA        -12.0130   18.4330   32.4410 C.3       8 GLP5        0.0000 
     28 CA         -6.4290   17.0620   33.1200 C.3       4 GLC5        0.0000 
     29 CA         -8.1740   16.6370   31.8180 C.3      12 GLL5        0.0000 
     30 CA         -4.6840   17.4870   34.4220 C.3       8 GLP5        0.0000 
     31 CA         -6.7845   17.4380   31.3610 C.3       4 GLC5        0.0000 
     32 CA         -5.3950   18.2390   30.9040 C.3       8 GLP5        0.0000 
     33 O         -12.5445   15.9490   30.3820 O.2       1 ALC1        0.0000 
     34 O         -11.4770   14.8180   30.1110 O.2       9 ALL1        0.0000 
     35 O         -13.6120   17.0800   30.6530 O.2       5 ALP1        0.0000 
     36 CA        -13.2040   14.0155   26.5190 C.3       4 GLC5        0.0000 
     37 CA        -13.2660   14.1690   28.6190 C.3      12 GLL5        0.0000 
     38 CA        -13.1420   13.8620   24.4190 C.3       8 GLP5        0.0000 
     39 CA        -13.9990    9.0530   29.1125 C.3       4 GLC5        0.0000 
     40 CA        -14.1670   10.4550   30.5050 C.3      12 GLL5        0.0000 
     41 CA        -13.8310    7.6510   27.7200 C.3       8 GLP5        0.0000 
     42 O         -11.7850   16.8040   26.2380 O.2       1 ALC1        0.0000 
     43 O         -11.5150   15.6500   26.6450 O.2       9 ALL1        0.0000 
     44 O         -12.0550   17.9580   25.8310 O.2       5 ALP1        0.0000 
     45 CA         -9.4720   17.4980   32.3325 C.3       4 GLC5        0.0000 
     46 CA        -10.5460   19.0230   32.5590 C.3       8 GLP5        0.0000 
     47 CA         -6.5975   15.3150   32.1515 C.3       4 GLC5        0.0000 
     48 CA         -4.7970   14.6570   32.1970 C.3       8 GLP5        0.0000 
     49 CA        -14.7533   12.5493   28.1250 C.3       4 GLC5        0.0000 
     50 CA        -16.0960   11.5680   27.2870 C.3       8 GLP5        0.0000 
     51 CA        -15.1479   14.7096   28.9925 C.3       4 GLC5        0.0000 
     52 CA        -14.5850   12.8060   30.2250 C.3      12 GLL5        0.0000 
     53 CA        -16.2980   16.2510   28.3910 C.3       8 GLP5        0.0000 
     54 CA        -10.9895   10.8580   29.4545 C.3       4 GLC5        0.0000 
     55 CA        -12.8210   11.7530   29.0120 C.3      12 GLL5        0.0000 
     56 CA         -9.0010   10.5700   29.6010 C.3       8 GLP5        0.0000 
     57 CA        -12.8985    9.8985   28.2340 C.3       4 GLC5        0.0000 
     58 CA        -12.8190    8.6510   27.1600 C.3       8 GLP5        0.0000 
     59 CA        -14.9064   11.4019   28.5987 C.3       4 GLC5        0.0000 
@<TRIPOS>BOND
@<TRIPOS>SUBSTRUCTURE
     1 ALC1        4 GROUP        1 X    ALC  0     ROOT ALC X 1
     2 SEC2        7 GROUP        1 X    SEC  0     **** SEC X 2
     3 ASC3        1 GROUP        1 X    ASC  0     **** ASC X 3
     4 GLC5       10 GROUP        1 X    GLC  0     **** GLC X 6
     5 ALP1        6 GROUP        1 Y    ALP  0     ROOT ALP Y 8
     6 SEP2        9 GROUP        1 Y    SEP  0     **** SEP Y 9
     7 ASP3        3 GROUP        1 Y    ASP  0     **** ASP Y 10
     8 GLP5       12 GROUP        1 Y    GLP  0     **** GLP Y 13
     9 ALL1        5 GROUP        1 Z    ALL  0     ROOT ALL Z 15
    10 SEL2        8 GROUP        1 Z    SEL  0     **** SEL Z 16
    11 ASL3        2 GROUP        1 Z    ASL  0     **** ASL Z 17
    12 GLL5       11 GROUP        1 Z    GLL  0     **** GLL Z 20
@<TRIPOS>SET

