#    Name: 2nph_ALA_GLU_THR_PHE_1_ligand
#    Modification time : Tue Mar 25 21:28:10 2014

@<TRIPOS>MOLECULE
2nph_ALA_GLU_THR_PHE_1_ligand
   63    63     4     0     0
SMALL
NO_CHARGES


@<TRIPOS>ATOM
      1 N         -11.3150   12.6220   38.7920 N.4       1 ALA1        0.0000
      2 CA        -12.4690   12.2210   37.9280 C.3       1 ALA1        0.0000
      3 C         -12.0380   11.8810   36.4940 C.2       1 ALA1        0.0000
      4 O         -11.4040   10.8480   36.2600 O.2       1 ALA1        0.0000
      5 CB        -13.5230   13.3300   37.9170 C.3       1 ALA1        0.0000
      6 HA        -12.9390   11.3302   38.3558 H         1 ALA1        0.0000
      7 H         -10.4500   12.5991   38.2906 H         1 ALA1        0.0000
      8 H         -11.4227   13.5502   39.1483 H         1 ALA1        0.0000
      9 H         -11.2129   12.0154   39.5804 H         1 ALA1        0.0000
     10 HB1       -13.1536   14.1899   37.5647 H         1 ALA1        0.0000
     11 HB2       -14.3072   13.0914   37.3442 H         1 ALA1        0.0000
     12 HB3       -13.8757   13.5163   38.8340 H         1 ALA1        0.0000
     13 N         -12.3760   12.7480   35.5420 N.am      2 GLU2        0.0000
     14 CA        -12.0390   12.5150   34.1370 C.3       2 GLU2        0.0000
     15 C         -11.7380   13.8100   33.3650 C.2       2 GLU2        0.0000
     16 O         -12.5630   14.7320   33.2950 O.2       2 GLU2        0.0000
     17 CB        -13.1840   11.7420   33.4760 C.3       2 GLU2        0.0000
     18 CG        -13.5210   10.4410   34.2010 C.3       2 GLU2        0.0000
     19 CD        -15.0080   10.1560   34.2690 C.2       2 GLU2        0.0000
     20 OE1       -15.5980    9.7950   33.2290 O.co2     2 GLU2        0.0000
     21 OE2       -15.5920   10.2960   35.3680 O.co2     2 GLU2        0.0000
     22 HNCA      -12.8918   13.6274   35.7431 H         2 GLU2        0.0000
     23 HA        -11.1494   11.8759   34.0760 H         2 GLU2        0.0000
     24 HB2       -12.9076   11.5141   32.4385 H         2 GLU2        0.0000
     25 HB3       -14.0765   12.3805   33.4500 H         2 GLU2        0.0000
     26 HG2       -13.1132   10.4883   35.2232 H         2 GLU2        0.0000
     27 HG3       -13.0146    9.6077   33.6887 H         2 GLU2        0.0000
     28 N         -10.5400   13.8620   32.7970 N.am      3 THR3        0.0000
     29 CA        -10.0790   15.0240   32.0490 C.3       3 THR3        0.0000
     30 C         -10.2270   14.7960   30.5530 C.2       3 THR3        0.0000
     31 O          -9.2490   14.6030   29.8210 O.2       3 THR3        0.0000
     32 CB         -8.6220   15.3090   32.3940 C.3       3 THR3        0.0000
     33 OG1        -8.4960   15.3510   33.8170 O.3       3 THR3        0.0000
     34 CG2        -8.1740   16.6370   31.8180 C.3       3 THR3        0.0000
     35 HNCA       -9.8612   13.0674   32.8572 H         3 THR3        0.0000
     36 HA        -10.6618   15.8978   32.3193 H         3 THR3        0.0000
     37 HB         -8.0144   14.5257   31.9774 H         3 THR3        0.0000
     38 HG21       -7.2197   16.8357   32.0413 H         3 THR3        0.0000
     39 HG22       -8.2515   16.6546   30.8212 H         3 THR3        0.0000
     40 HG23       -8.7213   17.3972   32.1680 H         3 THR3        0.0000
     41 HG1        -7.9186   15.9284   34.3944 H         3 THR3        0.0000
     42 N         -11.4770   14.8180   30.1110 N.am      4 PHE4        0.0000
     43 CA        -11.8180   14.5950   28.7150 C.3       4 PHE4        0.0000
     44 C         -11.6340   15.8300   27.8720 C.2       4 PHE4        0.0000
     45 O         -11.6440   16.9490   28.4320 O.2       4 PHE4        0.0000
     46 CB        -13.2660   14.1690   28.6190 C.3       4 PHE4        0.0000
     47 CG        -13.5550   12.8920   29.3070 C.ar      4 PHE4        0.0000
     48 CD1       -14.5850   12.8060   30.2250 C.ar      4 PHE4        0.0000
     49 CD2       -12.8210   11.7530   29.0120 C.ar      4 PHE4        0.0000
     50 CE1       -14.9030   11.5860   30.8170 C.ar      4 PHE4        0.0000
     51 CE2       -13.1350   10.5390   29.6040 C.ar      4 PHE4        0.0000
     52 CZ        -14.1670   10.4550   30.5050 C.ar      4 PHE4        0.0000
     53 OXT       -11.5150   15.6500   26.6450 O.3       4 PHE4        0.0000
     54 HNCA      -12.2883   14.9984   30.7496 H         4 PHE4        0.0000
     55 HA        -11.2141   13.7981   28.2977 H         4 PHE4        0.0000
     56 HB2       -13.5393   14.0896   27.5482 H         4 PHE4        0.0000
     57 HB3       -13.8987   14.9749   29.0406 H         4 PHE4        0.0000
     58 HD1       -15.1250   13.6492   30.4766 H         4 PHE4        0.0000
     59 HD2       -12.0333   11.8094   28.3453 H         4 PHE4        0.0000
     60 HE1       -15.6832   11.5288   31.4839 H         4 PHE4        0.0000
     61 HE2       -12.5858    9.6973   29.3616 H         4 PHE4        0.0000
     62 HZ        -14.3981    9.5548   30.9514 H         4 PHE4        0.0000
     63 H         -12.1846   16.2641   26.2273 H         4 PHE4        0.0000
@<TRIPOS>BOND
     1    2    1 1
     2    7    1 1
     3    8    1 1
     4    9    1 1
     5    3    2 1
     6    5    2 1
     7    6    2 1
     8    4    3 2
     9   10    5 1
    10   11    5 1
    11   12    5 1
    12   14   13 1
    13   22   13 1
    14   15   14 1
    15   17   14 1
    16   23   14 1
    17   16   15 2
    18   18   17 1
    19   24   17 1
    20   25   17 1
    21   19   18 1
    22   26   18 1
    23   27   18 1
    24   20   19 ar
    25   21   19 ar
    26   29   28 1
    27   35   28 1
    28   30   29 1
    29   32   29 1
    30   36   29 1
    31   31   30 2
    32   33   32 1
    33   34   32 1
    34   37   32 1
    35   41   33 1
    36   38   34 1
    37   39   34 1
    38   40   34 1
    39   43   42 1
    40   54   42 1
    41   44   43 1
    42   46   43 1
    43   55   43 1
    44   45   44 2
    45   53   44 1
    46   47   46 1
    47   56   46 1
    48   57   46 1
    49   48   47 ar
    50   49   47 ar
    51   50   48 ar
    52   58   48 1
    53   51   49 ar
    54   59   49 1
    55   52   50 ar
    56   60   50 1
    57   52   51 ar
    58   61   51 1
    59   62   52 1
    60   63   53 1
    61   13    3 am
    62   28   15 am
    63   42   30 am
@<TRIPOS>SUBSTRUCTURE
     1 ALA1        1 RESIDUE
     2 GLU2       13 RESIDUE
     3 THR3       28 RESIDUE
     4 PHE4       42 RESIDUE
@<TRIPOS>SET

