#    Name: 1zxn_ADP_4_INTS_M
#    Modification time : Mon Mar 24 17:58:15 2014

@<TRIPOS>MOLECULE
1zxn_ADP_4_INTS_M
   55     0    15     0     0
SMALL
NO_CHARGES


@<TRIPOS>ATOM
      1 N           7.1555   47.0000   29.5870 N.am      2 SEC2        0.0000 
      2 N           7.5860   48.2070   28.9180 N.am     12 SEL2        0.0000 
      3 N           6.7250   45.7930   30.2560 N.am      7 SEP2        0.0000 
      4 N           6.1680   48.2105   28.5070 N.am      2 SEC2        0.0000 
      5 N           4.7500   48.2140   28.0960 N.am      7 SEP2        0.0000 
      6 N           9.8500   46.7615   27.5145 N.am      2 SEC2        0.0000 
      7 N           9.0780   47.9400   26.9490 N.am     12 SEL2        0.0000 
      8 N          10.6220   45.5830   28.0800 N.am      7 SEP2        0.0000 
      9 Zn          8.6100   50.8275   26.7020 Zn        4 ZIC7        0.0000 
     10 Zn          7.9290   50.1790   27.4320 Zn       14 ZIL7        0.0000 
     11 Zn          9.2910   51.4760   25.9720 Zn        9 ZIP7        0.0000 
     12 NZ         12.1090   49.7500   31.0180 N.4       3 LYC4        0.0000 
     13 NZ         11.8460   50.5030   29.6360 N.4      13 LYL4        0.0000 
     14 NZ         12.3720   48.9970   32.4000 N.4       8 LYP4        0.0000 
     15 N          12.7270   51.4440   29.1610 N.am      2 SEC2        0.0000 
     16 N          11.8460   50.5030   29.6360 N.am     12 SEL2        0.0000 
     17 N          13.6080   52.3850   28.6860 N.am      7 SEP2        0.0000 
     18 N          12.1090   49.7500   31.0180 N.am      2 SEC2        0.0000 
     19 N          12.3720   48.9970   32.4000 N.am      7 SEP2        0.0000 
     20 Zn          9.7025   51.5005   27.0515 Zn        4 ZIC7        0.0000 
     21 Zn         10.1140   51.5250   28.1310 Zn       14 ZIL7        0.0000 
     22 N          10.1325   53.0380   28.0115 N.am      2 SEC2        0.0000 
     23 N          10.1140   51.5250   28.1310 N.am     12 SEL2        0.0000 
     24 N          10.1510   54.5510   27.8920 N.am      7 SEP2        0.0000 
     25 CA          8.4165   50.7715   33.8465 C.3       5 GLC5        0.0000 
     26 CA          7.6430   50.7840   31.9950 C.3      15 GLL5        0.0000 
     27 CA          9.1900   50.7590   35.6980 C.3      10 GLP5        0.0000 
     28 CA          6.8825   48.3390   32.2110 C.3       5 GLC5        0.0000 
     29 CA          6.1710   50.3950   31.9280 C.3      15 GLL5        0.0000 
     30 CA          7.5940   46.2830   32.4940 C.3      10 GLP5        0.0000 
     31 CA          4.5985   48.9930   32.4670 C.3       5 GLC5        0.0000 
     32 CA          3.0260   47.5910   33.0060 C.3      10 GLP5        0.0000 
     33 O           4.5040   49.0385   32.5125 O.2       1 ALC1        0.0000 
     34 O           5.8850   49.5190   33.0530 O.2      11 ALL1        0.0000 
     35 O           3.1230   48.5580   31.9720 O.2       6 ALP1        0.0000 
     36 O           3.6585   50.1230   32.2900 O.2       1 ALC1        0.0000 
     37 O           4.1940   51.6880   32.6080 O.2      11 ALL1        0.0000 
     38 CA          7.1320   55.9000   29.1410 C.3       5 GLC5        0.0000 
     39 CA          6.1400   56.0640   31.0070 C.3      15 GLL5        0.0000 
     40 CA          8.1240   55.7360   27.2750 C.3      10 GLP5        0.0000 
     41 CA          5.9250   58.7660   31.9530 C.3       5 GLC5        0.0000 
     42 CA          5.3330   57.2720   30.7910 C.3      15 GLL5        0.0000 
     43 CA          6.5170   60.2600   33.1150 C.3      10 GLP5        0.0000 
     44 O           5.3300   59.8265   30.0215 O.2       1 ALC1        0.0000 
     45 O           5.6700   58.3000   30.0930 O.2      11 ALL1        0.0000 
     46 O           4.9900   61.3530   29.9500 O.2       6 ALP1        0.0000 
     47 CA          4.3105   56.2825   33.9530 C.3       5 GLC5        0.0000 
     48 CA          3.6340   56.1750   32.2100 C.3      15 GLL5        0.0000 
     49 CA          4.9870   56.3900   35.6960 C.3      10 GLP5        0.0000 
     50 CA          6.6185   52.3468   34.1052 C.3       5 GLC5        0.0000 
     51 CA          6.3960   52.7300   32.6170 C.3      15 GLL5        0.0000 
     52 CA          7.3150   52.4540   35.9420 C.3      10 GLP5        0.0000 
     53 CA          6.1677   55.9498   33.4342 C.3       5 GLC5        0.0000 
     54 CA          5.5830   55.0530   31.8100 C.3      15 GLL5        0.0000 
     55 CA          6.4740   56.3410   35.4600 C.3      10 GLP5        0.0000 
@<TRIPOS>BOND
@<TRIPOS>SUBSTRUCTURE
     1 ALC1       33 GROUP        1 X    ALC  0     ROOT ALC X 1
     2 SEC2        1 GROUP        1 X    SEC  0     **** SEC X 2
     3 LYC4       12 GROUP        1 X    LYC  0     **** LYC X 4
     4 ZIC7        9 GROUP        1 X    ZIC  0     **** ZIC X 5
     5 GLC5       25 GROUP        1 X    GLC  0     **** GLC X 6
     6 ALP1       35 GROUP        1 Y    ALP  0     ROOT ALP Y 8
     7 SEP2        3 GROUP        1 Y    SEP  0     **** SEP Y 9
     8 LYP4       14 GROUP        1 Y    LYP  0     **** LYP Y 11
     9 ZIP7       11 GROUP        1 Y    ZIP  0     **** ZIP Y 12
    10 GLP5       27 GROUP        1 Y    GLP  0     **** GLP Y 13
    11 ALL1       34 GROUP        1 Z    ALL  0     ROOT ALL Z 15
    12 SEL2        2 GROUP        1 Z    SEL  0     **** SEL Z 16
    13 LYL4       13 GROUP        1 Z    LYL  0     **** LYL Z 18
    14 ZIL7       10 GROUP        1 Z    ZIL  0     **** ZIL Z 19
    15 GLL5       26 GROUP        1 Z    GLL  0     **** GLL Z 20
@<TRIPOS>SET

