#    Name: 1zxn_ADP_4_ligand
#    Modification time : Mon Mar 24 17:58:15 2014

@<TRIPOS>MOLECULE
1zxn_ADP_4_ligand
   38    40     1     0     0
SMALL
NO_CHARGES


@<TRIPOS>ATOM
      1 PB          8.5600   48.8470   28.0130 P.3       1 ADP907      0.0000 
      2 O1B         7.5860   48.2070   28.9180 O.co2     1 ADP907      0.0000 
      3 O2B         9.0780   47.9400   26.9490 O.co2     1 ADP907      0.0000 
      4 O3B         7.9290   50.1790   27.4320 O.co2     1 ADP907      0.0000 
      5 PA         10.4020   50.5930   29.2620 P.3       1 ADP907      0.0000 
      6 O1A        11.8460   50.5030   29.6360 O.co2     1 ADP907      0.0000 
      7 O2A        10.1140   51.5250   28.1310 O.co2     1 ADP907      0.0000 
      8 O3A         9.8200   49.2030   28.9240 O.3       1 ADP907      0.0000 
      9 O5'         9.7150   50.8710   30.6420 O.3       1 ADP907      0.0000 
     10 C5'         8.2970   50.9890   30.6520 C.3       1 ADP907      0.0000 
     11 C4'         7.6430   50.7840   31.9950 C.3       1 ADP907      0.0000 
     12 O4'         7.6750   52.0710   32.6450 O.3       1 ADP907      0.0000 
     13 C3'         6.1710   50.3950   31.9280 C.3       1 ADP907      0.0000 
     14 O3'         5.8850   49.5190   33.0530 O.3       1 ADP907      0.0000 
     15 C2'         5.4480   51.7490   31.9200 C.3       1 ADP907      0.0000 
     16 O2'         4.1940   51.6880   32.6080 O.3       1 ADP907      0.0000 
     17 C1'         6.3960   52.7300   32.6170 C.3       1 ADP907      0.0000 
     18 N9          6.5130   54.0620   31.8570 N.pl3     1 ADP907      0.0000 
     19 C8          7.5580   54.5080   31.1000 C.2       1 ADP907      0.0000 
     20 N7          7.3790   55.7080   30.5670 N.2       1 ADP907      0.0000 
     21 C5          6.1400   56.0640   31.0070 C.ar      1 ADP907      0.0000 
     22 C6          5.3330   57.2720   30.7910 C.ar      1 ADP907      0.0000 
     23 N6          5.6700   58.3000   30.0930 N.pl3     1 ADP907      0.0000 
     24 N1          4.0910   57.2480   31.4280 N.ar      1 ADP907      0.0000 
     25 C2          3.6340   56.1750   32.2100 C.ar      1 ADP907      0.0000 
     26 N3          4.3580   55.0750   32.4140 N.ar      1 ADP907      0.0000 
     27 C4          5.5830   55.0530   31.8100 C.ar      1 ADP907      0.0000 
     28 H           7.8309   50.2617   29.9353 H         1 ADP907      0.0000 
     29 H           7.9776   51.9954   30.2714 H         1 ADP907      0.0000 
     30 H           8.1800   50.0721   32.5656 H         1 ADP907      0.0000 
     31 H           6.0182   49.9198   30.9826 H         1 ADP907      0.0000 
     32 H           5.3468   52.0630   30.9003 H         1 ADP907      0.0000 
     33 H           6.0368   52.9096   33.6030 H         1 ADP907      0.0000 
     34 H           8.3890   53.9542   30.9697 H         1 ADP907      0.0000 
     35 H           2.6761   56.2726   32.6398 H         1 ADP907      0.0000 
     36 H           4.9974   49.1092   32.8426 H         1 ADP907      0.0000 
     37 H           3.8372   50.7740   32.4149 H         1 ADP907      0.0000 
     38 H           5.1492   59.0594   30.4829 H         1 ADP907      0.0000 
@<TRIPOS>BOND
     1    2    1 ar   
     2    3    1 ar   
     3    4    1 ar   
     4    8    1 1    
     5    6    5 ar   
     6    7    5 ar   
     7    8    5 1    
     8    9    5 1    
     9   10    9 1    
    10   11   10 1    
    11   28   10 1    
    12   29   10 1    
    13   12   11 1    
    14   13   11 1    
    15   30   11 1    
    16   17   12 1    
    17   14   13 1    
    18   15   13 1    
    19   31   13 1    
    20   36   14 1    
    21   16   15 1    
    22   17   15 1    
    23   32   15 1    
    24   37   16 1    
    25   18   17 1    
    26   33   17 1    
    27   19   18 1    
    28   27   18 1    
    29   20   19 2    
    30   34   19 1    
    31   21   20 1    
    32   22   21 ar   
    33   27   21 ar   
    34   23   22 1    
    35   24   22 ar   
    36   38   23 1    
    37   25   24 ar   
    38   26   25 ar   
    39   35   25 1    
    40   27   26 ar   
@<TRIPOS>SUBSTRUCTURE
     1 ADP907      1 GROUP   
@<TRIPOS>SET

