#    Name: 4flh_14K_1_INTS_M
#    Modification time : Mon Mar 24 20:16:48 2014

@<TRIPOS>MOLECULE
4flh_14K_1_INTS_M
   79     0     9     0     0
SMALL
NO_CHARGES


@<TRIPOS>ATOM
      1 CA         29.9240    9.8790   19.6930 C.3       3 GLC5        0.0000 
      2 CA         29.3230   11.2700   20.8310 C.3       9 GLL5        0.0000 
      3 CA         30.5250    8.4880   18.5550 C.3       6 GLP5        0.0000 
      4 CA         29.3525   12.6425   22.4650 C.3       3 GLC5        0.0000 
      5 CA         29.3820   14.0150   24.0990 C.3       6 GLP5        0.0000 
      6 N          29.1435   12.7920   18.6770 N.am      2 SEC2        0.0000 
      7 N          28.4600   12.0220   19.9620 N.am      8 SEL2        0.0000 
      8 N          29.8270   13.5620   17.3920 N.am      5 SEP2        0.0000 
      9 CA         28.1665   13.8355   21.8820 C.3       3 GLC5        0.0000 
     10 CA         27.2920   12.4610   20.5450 C.3       9 GLL5        0.0000 
     11 CA         29.0410   15.2100   23.2190 C.3       6 GLP5        0.0000 
     12 CA         25.4230   13.9205   16.6690 C.3       3 GLC5        0.0000 
     13 CA         26.5480   13.2850   18.4510 C.3       9 GLL5        0.0000 
     14 CA         24.2980   14.5560   14.8870 C.3       6 GLP5        0.0000 
     15 CA         24.6910   12.1725   17.9840 C.3       3 GLC5        0.0000 
     16 CA         22.8340   11.0600   17.5170 C.3       6 GLP5        0.0000 
     17 CA         24.8815   10.8075   22.5035 C.3       3 GLC5        0.0000 
     18 CA         25.9270   12.7040   22.4200 C.3       9 GLL5        0.0000 
     19 CA         23.8360    8.9110   22.5870 C.3       6 GLP5        0.0000 
     20 CA         25.8155   13.7680   24.3025 C.3       3 GLC5        0.0000 
     21 CA         25.7040   14.8320   26.1850 C.3       6 GLP5        0.0000 
     22 CA         27.6545   13.3595   23.2595 C.3       3 GLC5        0.0000 
     23 CA         21.1000   17.9555   18.2225 C.3       3 GLC5        0.0000 
     24 CA         20.6410   19.9720   18.3830 C.3       9 GLL5        0.0000 
     25 CA         21.5590   15.9390   18.0620 C.3       6 GLP5        0.0000 
     26 CA         20.2095   17.3885   18.7910 C.3       3 GLC5        0.0000 
     27 CA         18.8600   18.8380   19.5200 C.3       9 GLL5        0.0000 
     28 CA         18.0560   16.8820   19.8685 C.3       3 GLC5        0.0000 
     29 CA         17.2520   14.9260   20.2170 C.3       6 GLP5        0.0000 
     30 N          15.9190   18.3905   17.0585 N.am      2 SEC2        0.0000 
     31 N          17.4040   18.6670   17.1450 N.am      8 SEL2        0.0000 
     32 N          14.4340   18.1140   16.9720 N.am      5 SEP2        0.0000 
     33 N          20.3585   19.6920   15.0915 N.am      2 SEC2        0.0000 
     34 N          19.4760   19.4610   16.1270 N.am      8 SEL2        0.0000 
     35 N          21.2410   19.9230   14.0560 N.am      5 SEP2        0.0000 
     36 CA         19.7240   11.0235   24.0345 C.3       3 GLC5        0.0000 
     37 CA         21.2810   12.3600   24.7390 C.3       9 GLL5        0.0000 
     38 CA         18.1670    9.6870   23.3300 C.3       6 GLP5        0.0000 
     39 CA         22.8615    9.9780   26.1845 C.3       3 GLC5        0.0000 
     40 CA         22.0130   11.1260   25.2360 C.3       9 GLL5        0.0000 
     41 CA         23.7100    8.8300   27.1330 C.3       6 GLP5        0.0000 
     42 CA         22.9245   10.0185   23.9115 C.3       3 GLC5        0.0000 
     43 CA         20.7210   10.6880   26.7620 C.3       3 GLC5        0.0000 
     44 CA         19.4290   10.2500   28.2880 C.3       6 GLP5        0.0000 
     45 N          18.9740   11.4525   25.3345 N.am      2 SEC2        0.0000 
     46 N          19.9870   12.5350   25.0200 N.am      8 SEL2        0.0000 
     47 N          17.9610   10.3700   25.6490 N.am      5 SEP2        0.0000 
     48 CA         17.8945   12.5230   23.6505 C.3       3 GLC5        0.0000 
     49 CA         19.3640   13.6490   24.5810 C.3       9 GLL5        0.0000 
     50 CA         16.4250   11.3970   22.7200 C.3       6 GLP5        0.0000 
     51 CA         18.7765   12.3785   26.3020 C.3       3 GLC5        0.0000 
     52 CA         18.1890   11.1080   28.0230 C.3       6 GLP5        0.0000 
     53 CA         20.1630   15.1165   25.4510 C.3       3 GLC5        0.0000 
     54 CA         20.9620   16.5840   26.3210 C.3       6 GLP5        0.0000 
     55 O          17.0810   13.0800   25.4830 O.2       1 ALC1        0.0000 
     56 O          18.0790   13.8280   24.8560 O.2       7 ALL1        0.0000 
     57 O          16.0830   12.3320   26.1100 O.2       4 ALP1        0.0000 
     58 CA         26.2078   10.7885   19.6610 C.3       3 GLC5        0.0000 
     59 CA         26.3370   13.1070   19.7630 C.3       9 GLL5        0.0000 
     60 CA         25.6010    8.7930   19.1680 C.3       6 GLP5        0.0000 
     61 CA         27.4773   12.5215   17.6490 C.3       3 GLC5        0.0000 
     62 CA         28.5120   11.8470   16.1910 C.3       6 GLP5        0.0000 
     63 CA         23.2780   12.9125   20.4333 C.3       3 GLC5        0.0000 
     64 CA         25.1490   13.5520   20.3260 C.3       9 GLL5        0.0000 
     65 CA         21.5120   12.3700   19.8610 C.3       6 GLP5        0.0000 
     66 CA         22.2345   16.6500   19.8750 C.3       3 GLC5        0.0000 
     67 CA         23.5160   17.1780   21.3970 C.3       9 GLL5        0.0000 
     68 CA         23.7970   17.0730   23.2625 C.3       3 GLC5        0.0000 
     69 CA         24.6840   16.7850   24.8370 C.3       6 GLP5        0.0000 
     70 CA         21.8090   20.1718   23.5042 C.3       3 GLC5        0.0000 
     71 CA         21.7690   18.9850   21.8440 C.3       9 GLL5        0.0000 
     72 CA         21.2670   20.8490   25.1190 C.3       6 GLP5        0.0000 
     73 CA         21.7559   13.5641   21.4435 C.3       3 GLC5        0.0000 
     74 CA         23.2930   14.9900   22.2100 C.3       9 GLL5        0.0000 
     75 CA         21.2651   15.8720   24.7334 C.3       3 GLC5        0.0000 
     76 CA         21.3250   14.3700   23.5440 C.3       9 GLL5        0.0000 
     77 CA         23.2034   15.9529   23.9541 C.3       3 GLC5        0.0000 
     78 CA         23.0475   13.0360   25.9292 C.3       3 GLC5        0.0000 
     79 CA         24.4480   14.3290   26.8710 C.3       6 GLP5        0.0000 
@<TRIPOS>BOND
@<TRIPOS>SUBSTRUCTURE
     1 ALC1       55 GROUP        1 X    ALC  0     ROOT ALC X 1
     2 SEC2        6 GROUP        1 X    SEC  0     **** SEC X 2
     3 GLC5        1 GROUP        1 X    GLC  0     **** GLC X 6
     4 ALP1       57 GROUP        1 Y    ALP  0     ROOT ALP Y 8
     5 SEP2        8 GROUP        1 Y    SEP  0     **** SEP Y 9
     6 GLP5        3 GROUP        1 Y    GLP  0     **** GLP Y 13
     7 ALL1       56 GROUP        1 Z    ALL  0     ROOT ALL Z 15
     8 SEL2        7 GROUP        1 Z    SEL  0     **** SEL Z 16
     9 GLL5        2 GROUP        1 Z    GLL  0     **** GLL Z 20
@<TRIPOS>SET

