#    Name: 4flh_14K_1_ligand
#    Modification time : Mon Mar 24 20:16:48 2014

@<TRIPOS>MOLECULE
4flh_14K_1_ligand
   65    68     1     0     0
SMALL
NO_CHARGES


@<TRIPOS>ATOM
      1 C15        29.3230   11.2700   20.8310 C.3       1 14K1205     0.0000 
      2 O14        28.4600   12.0220   19.9620 O.3       1 14K1205     0.0000 
      3 C11        27.2920   12.4610   20.5450 C.ar      1 14K1205     0.0000 
      4 C12        26.3370   13.1070   19.7630 C.ar      1 14K1205     0.0000 
      5 C13        25.1490   13.5520   20.3260 C.ar      1 14K1205     0.0000 
      6 F16        26.5480   13.2850   18.4510 F         1 14K1205     0.0000 
      7 N10        27.0470   12.2860   21.8560 N.ar      1 14K1205     0.0000 
      8 C9         25.9270   12.7040   22.4200 C.ar      1 14K1205     0.0000 
      9 C8         24.9390   13.3580   21.6850 C.ar      1 14K1205     0.0000 
     10 N7         23.8090   13.7500   22.2890 N.pl3     1 14K1205     0.0000 
     11 C2         23.2930   14.9900   22.2100 C.ar      1 14K1205     0.0000 
     12 N1         23.9600   15.9410   21.5340 N.ar      1 14K1205     0.0000 
     13 C6         23.5160   17.1780   21.3970 C.ar      1 14K1205     0.0000 
     14 C5         22.3040   17.5440   21.9790 C.ar      1 14K1205     0.0000 
     15 C25        21.7690   18.9850   21.8440 C.3       1 14K1205     0.0000 
     16 C36        22.9330   20.0040   21.9350 C.3       1 14K1205     0.0000 
     17 N26        21.0380   19.0270   20.5690 N.4       1 14K1205     0.0000 
     18 C31        21.3800   20.1550   19.7050 C.3       1 14K1205     0.0000 
     19 C30        20.6410   19.9720   18.3830 C.3       1 14K1205     0.0000 
     20 C27        19.5990   19.0830   20.8410 C.3       1 14K1205     0.0000 
     21 C28        18.8600   18.8380   19.5200 C.3       1 14K1205     0.0000 
     22 N29        19.1870   19.9350   18.6080 N.pl3     1 14K1205     0.0000 
     23 S32        18.4330   19.7660   17.1550 S.o2      1 14K1205     0.0000 
     24 C33        17.6330   21.3090   16.7730 C.3       1 14K1205     0.0000 
     25 O35        17.4040   18.6670   17.1450 O.2       1 14K1205     0.0000 
     26 O34        19.4760   19.4610   16.1270 O.2       1 14K1205     0.0000 
     27 C4         21.5670   16.5970   22.6890 C.ar      1 14K1205     0.0000 
     28 C3         22.0560   15.3030   22.8060 C.ar      1 14K1205     0.0000 
     29 C17        21.3250   14.3700   23.5440 C.ar      1 14K1205     0.0000 
     30 N22        20.0290   14.5640   23.8490 N.ar      1 14K1205     0.0000 
     31 N18        21.9460   13.2720   24.0150 N.ar      1 14K1205     0.0000 
     32 C19        21.2810   12.3600   24.7390 C.ar      1 14K1205     0.0000 
     33 C23        22.0130   11.1260   25.2360 C.3       1 14K1205     0.0000 
     34 N20        19.9870   12.5350   25.0200 N.ar      1 14K1205     0.0000 
     35 C21        19.3640   13.6490   24.5810 C.ar      1 14K1205     0.0000 
     36 N24        18.0790   13.8280   24.8560 N.pl3     1 14K1205     0.0000 
     37 H          24.4424   14.0134   19.7521 H         1 14K1205     0.0000 
     38 H          25.7472   12.5550   23.4442 H         1 14K1205     0.0000 
     39 H          23.2762   13.0253   22.8780 H         1 14K1205     0.0000 
     40 H          24.0425   17.8968   20.8654 H         1 14K1205     0.0000 
     41 H          21.0926   19.1500   22.6684 H         1 14K1205     0.0000 
     42 H          21.2294   18.0901   20.0201 H         1 14K1205     0.0000 
     43 H          22.4450   20.1841   19.5033 H         1 14K1205     0.0000 
     44 H          21.0679   21.0947   20.1471 H         1 14K1205     0.0000 
     45 H          20.9829   19.0414   17.9211 H         1 14K1205     0.0000 
     46 H          20.9071   20.8003   17.7201 H         1 14K1205     0.0000 
     47 H          19.3103   20.0563   21.2189 H         1 14K1205     0.0000 
     48 H          19.3042   18.3146   21.5453 H         1 14K1205     0.0000 
     49 H          17.7962   18.8032   19.7253 H         1 14K1205     0.0000 
     50 H          19.1849   17.8849   19.1187 H         1 14K1205     0.0000 
     51 H          20.6750   16.8559   23.1185 H         1 14K1205     0.0000 
     52 H          17.6453   13.1195   25.4127 H         1 14K1205     0.0000 
     53 H          17.6600   14.6553   24.4818 H         1 14K1205     0.0000 
     54 H          30.1542   10.9719   20.3617 H         1 14K1205     0.0000 
     55 H          29.6107   11.8069   21.6241 H         1 14K1205     0.0000 
     56 H          28.8732   10.4483   21.1808 H         1 14K1205     0.0000 
     57 H          23.4164   19.9387   22.8080 H         1 14K1205     0.0000 
     58 H          23.6102   19.8597   21.2135 H         1 14K1205     0.0000 
     59 H          22.6093   20.9462   21.8490 H         1 14K1205     0.0000 
     60 H          18.2872   22.0635   16.7204 H         1 14K1205     0.0000 
     61 H          17.1563   21.2727   15.8947 H         1 14K1205     0.0000 
     62 H          16.9547   21.5569   17.4647 H         1 14K1205     0.0000 
     63 H          22.3854   10.5859   24.4812 H         1 14K1205     0.0000 
     64 H          22.7796   11.3640   25.8323 H         1 14K1205     0.0000 
     65 H          21.4111   10.5226   25.7591 H         1 14K1205     0.0000 
@<TRIPOS>BOND
     1    2    1 1    
     2   54    1 1    
     3   55    1 1    
     4   56    1 1    
     5    3    2 1    
     6    4    3 ar   
     7    7    3 ar   
     8    5    4 ar   
     9    6    4 1    
    10    9    5 ar   
    11   37    5 1    
    12    8    7 ar   
    13    9    8 ar   
    14   38    8 1    
    15   10    9 1    
    16   11   10 1    
    17   39   10 1    
    18   12   11 ar   
    19   28   11 ar   
    20   13   12 ar   
    21   14   13 ar   
    22   40   13 1    
    23   15   14 1    
    24   27   14 ar   
    25   16   15 1    
    26   17   15 1    
    27   41   15 1    
    28   57   16 1    
    29   58   16 1    
    30   59   16 1    
    31   18   17 1    
    32   20   17 1    
    33   42   17 1    
    34   19   18 1    
    35   43   18 1    
    36   44   18 1    
    37   22   19 1    
    38   45   19 1    
    39   46   19 1    
    40   21   20 1    
    41   47   20 1    
    42   48   20 1    
    43   22   21 1    
    44   49   21 1    
    45   50   21 1    
    46   23   22 1    
    47   24   23 1    
    48   25   23 2    
    49   26   23 2    
    50   60   24 1    
    51   61   24 1    
    52   62   24 1    
    53   28   27 ar   
    54   51   27 1    
    55   29   28 1    
    56   30   29 ar   
    57   31   29 ar   
    58   35   30 ar   
    59   32   31 ar   
    60   33   32 1    
    61   34   32 ar   
    62   63   33 1    
    63   64   33 1    
    64   65   33 1    
    65   35   34 ar   
    66   36   35 1    
    67   52   36 1    
    68   53   36 1    
@<TRIPOS>SUBSTRUCTURE
     1 14K1205     1 GROUP   
@<TRIPOS>SET

