#    Name: 3iob_A4D_1_INTS_M
#    Modification time : Tue Mar 25 16:59:41 2014

@<TRIPOS>MOLECULE
3iob_A4D_1_INTS_M
   56     0     9     0     0
SMALL
NO_CHARGES


@<TRIPOS>ATOM
      1 N          13.5400    9.4845   -6.7640 N.am      2 SEC2        0.0000 
      2 N          13.7030    9.6810   -5.3280 N.am      8 SEL2        0.0000 
      3 N          13.3770    9.2880   -8.2000 N.am      5 SEP2        0.0000 
      4 CA         12.8200   11.2485   -4.7845 C.3       3 GLC5        0.0000 
      5 CA         12.7150    9.2910   -4.5130 C.3       9 GLL5        0.0000 
      6 CA         12.9250   13.2060   -5.0560 C.3       6 GLP5        0.0000 
      7 CA         12.1785    7.9005   -3.0450 C.3       3 GLC5        0.0000 
      8 CA         11.6420    6.5100   -1.5770 C.3       6 GLP5        0.0000 
      9 CA         13.0355    8.1220   -6.0115 C.3       3 GLC5        0.0000 
     10 CA         13.3560    6.9530   -7.5100 C.3       6 GLP5        0.0000 
     11 CA         12.0985   10.4325   -6.2475 C.3       3 GLC5        0.0000 
     12 CA         11.4820   11.5740   -7.9820 C.3       6 GLP5        0.0000 
     13 CA         12.8360    8.1265   -2.1055 C.3       3 GLC5        0.0000 
     14 CA         14.0300    9.7430   -2.6340 C.3       9 GLL5        0.0000 
     15 CA         15.3730    8.6065   -6.2350 C.3       3 GLC5        0.0000 
     16 CA         14.8850   10.1110   -4.8330 C.3       9 GLL5        0.0000 
     17 CA         15.8610    7.1020   -7.6370 C.3       6 GLP5        0.0000 
     18 CA         13.8955   10.9235   -6.6665 C.3       3 GLC5        0.0000 
     19 CA         12.9060   11.7360   -8.5000 C.3       6 GLP5        0.0000 
     20 CA         16.0465   11.6035   -5.9205 C.3       3 GLC5        0.0000 
     21 CA         17.2080   13.0960   -7.0080 C.3       6 GLP5        0.0000 
     22 O          15.8280   10.5140   -7.2220 O.2       1 ALC1        0.0000 
     23 O          15.8750   10.4850   -5.6310 O.2       7 ALL1        0.0000 
     24 O          15.7810   10.5430   -8.8130 O.2       4 ALP1        0.0000 
     25 O          17.1660   10.7840   -5.2550 O.2       1 ALC1        0.0000 
     26 O          18.4570   11.0830   -4.8790 O.2       4 ALP1        0.0000 
     27 N          11.8205    7.4055    0.8585 N.am      2 SEC2        0.0000 
     28 N          12.5160    8.0950    1.9410 N.am      8 SEL2        0.0000 
     29 N          11.1250    6.7160   -0.2240 N.am      5 SEP2        0.0000 
     30 O          11.5715    8.7805    2.6875 O.2       1 ALC1        0.0000 
     31 O          12.5160    8.0950    1.9410 O.2       7 ALL1        0.0000 
     32 O          10.6270    9.4660    3.4340 O.2       4 ALP1        0.0000 
     33 N          13.9640    5.8585    0.9810 N.am      2 SEC2        0.0000 
     34 N          14.4300    7.2470    0.1400 N.am      8 SEL2        0.0000 
     35 N          13.4980    4.4700    1.8220 N.am      5 SEP2        0.0000 
     36 O          15.9360    7.0845    0.2685 O.2       1 ALC1        0.0000 
     37 O          14.4300    7.2470    0.1400 O.2       7 ALL1        0.0000 
     38 O          17.4420    6.9220    0.3970 O.2       4 ALP1        0.0000 
     39 CA         15.8915   11.5055    6.2455 C.3       3 GLC5        0.0000 
     40 CA         14.7580   10.4330    4.6390 C.3       9 GLL5        0.0000 
     41 CA         17.0250   12.5780    7.8520 C.3       6 GLP5        0.0000 
     42 CA         11.7535   10.4715    1.2055 C.3       3 GLC5        0.0000 
     43 CA         13.5710   10.2560    2.0970 C.3       9 GLL5        0.0000 
     44 CA          9.9360   10.6870    0.3140 C.3       6 GLP5        0.0000 
     45 CA         13.6695   11.6735    0.2375 C.3       3 GLC5        0.0000 
     46 CA         13.7060    9.5720   -0.1640 C.3       9 GLL5        0.0000 
     47 CA         13.6330   13.7750    0.6390 C.3       6 GLP5        0.0000 
     48 CA         11.8210   10.1295    0.0750 C.3       3 GLC5        0.0000 
     49 CA         13.8213   11.6184   -4.4979 C.3       3 GLC5        0.0000 
     50 CA         15.6673    8.2359   -3.7909 C.3       3 GLC5        0.0000 
     51 CA         16.6170    6.4410   -3.6420 C.3       6 GLP5        0.0000 
     52 CA         13.7525   12.0907    4.7828 C.3       3 GLC5        0.0000 
     53 CA         14.6880   10.9820    2.8960 C.3       9 GLL5        0.0000 
     54 CA         12.7820   13.4740    5.7980 C.3       6 GLP5        0.0000 
     55 CA         13.8812   12.1970    1.5677 C.3       3 GLC5        0.0000 
     56 CA         12.8775    7.7940   -0.6573 C.3       3 GLC5        0.0000 
@<TRIPOS>BOND
@<TRIPOS>SUBSTRUCTURE
     1 ALC1       22 GROUP        1 X    ALC  0     ROOT ALC X 1
     2 SEC2        1 GROUP        1 X    SEC  0     **** SEC X 2
     3 GLC5        4 GROUP        1 X    GLC  0     **** GLC X 6
     4 ALP1       24 GROUP        1 Y    ALP  0     ROOT ALP Y 8
     5 SEP2        3 GROUP        1 Y    SEP  0     **** SEP Y 9
     6 GLP5        6 GROUP        1 Y    GLP  0     **** GLP Y 13
     7 ALL1       23 GROUP        1 Z    ALL  0     ROOT ALL Z 15
     8 SEL2        2 GROUP        1 Z    SEL  0     **** SEL Z 16
     9 GLL5        5 GROUP        1 Z    GLL  0     **** GLL Z 20
@<TRIPOS>SET

