#    Name: 3iob_A4D_1_ligand
#    Modification time : Tue Mar 25 16:59:41 2014

@<TRIPOS>MOLECULE
3iob_A4D_1_ligand
   31    33     1     0     0
SMALL
NO_CHARGES


@<TRIPOS>ATOM
      1 N1         13.7030    9.6810   -5.3280 N.ar      1 A4D301      0.0000 
      2 C2         12.7150    9.2910   -4.5130 C.ar      1 A4D301      0.0000 
      3 N3         12.8640    9.3200   -3.1850 N.ar      1 A4D301      0.0000 
      4 C4         14.0300    9.7430   -2.6340 C.ar      1 A4D301      0.0000 
      5 C5         15.0700   10.1580   -3.4590 C.ar      1 A4D301      0.0000 
      6 C6         14.8850   10.1110   -4.8330 C.ar      1 A4D301      0.0000 
      7 N6         15.8750   10.4850   -5.6310 N.pl3     1 A4D301      0.0000 
      8 N7         16.0900   10.5250   -2.6830 N.2       1 A4D301      0.0000 
      9 C8         15.7100   10.3600   -1.4120 C.2       1 A4D301      0.0000 
     10 N9         14.4640    9.8850   -1.3750 N.pl3     1 A4D301      0.0000 
     11 OAB        12.5160    8.0950    1.9410 O.3       1 A4D301      0.0000 
     12 OAC        14.4300    7.2470    0.1400 O.3       1 A4D301      0.0000 
     13 SAD        14.7580   10.4330    4.6390 S.3       1 A4D301      0.0000 
     14 CAG        14.6880   10.9820    2.8960 C.3       1 A4D301      0.0000 
     15 OAK        13.5730   10.7400    0.6970 O.3       1 A4D301      0.0000 
     16 CAO        13.7910    8.7300    2.0240 C.3       1 A4D301      0.0000 
     17 CAP        14.5200    8.5840    0.6890 C.3       1 A4D301      0.0000 
     18 CAQ        13.5710   10.2560    2.0970 C.3       1 A4D301      0.0000 
     19 CAR        13.7060    9.5720   -0.1640 C.3       1 A4D301      0.0000 
     20 H          11.8059    8.9560   -4.9259 H         1 A4D301      0.0000 
     21 H          16.7061   10.8090   -5.1790 H         1 A4D301      0.0000 
     22 H          15.7012   10.4093   -6.6129 H         1 A4D301      0.0000 
     23 H          16.2629   10.5580   -0.6290 H         1 A4D301      0.0000 
     24 H          15.6690   10.7566    2.5453 H         1 A4D301      0.0000 
     25 H          14.5211   12.0303    2.9926 H         1 A4D301      0.0000 
     26 H          14.3957    8.4336    2.7946 H         1 A4D301      0.0000 
     27 H          15.4887    8.9611    0.7863 H         1 A4D301      0.0000 
     28 H          12.6274   10.4483    2.5483 H         1 A4D301      0.0000 
     29 H          12.7732    9.1359   -0.3676 H         1 A4D301      0.0000 
     30 H          11.9070    8.6645    2.4930 H         1 A4D301      0.0000 
     31 H          15.3700    6.9058    0.1344 H         1 A4D301      0.0000 
@<TRIPOS>BOND
     1    2    1 ar   
     2    6    1 ar   
     3    3    2 ar   
     4   20    2 1    
     5    4    3 ar   
     6    5    4 ar   
     7   10    4 1    
     8    6    5 ar   
     9    8    5 1    
    10    7    6 1    
    11   21    7 1    
    12   22    7 1    
    13    9    8 2    
    14   10    9 1    
    15   23    9 1    
    16   19   10 1    
    17   16   11 1    
    18   30   11 1    
    19   17   12 1    
    20   31   12 1    
    21   14   13 1    
    22   18   14 1    
    23   24   14 1    
    24   25   14 1    
    25   18   15 1    
    26   19   15 1    
    27   17   16 1    
    28   18   16 1    
    29   26   16 1    
    30   19   17 1    
    31   27   17 1    
    32   28   18 1    
    33   29   19 1    
@<TRIPOS>SUBSTRUCTURE
     1 A4D301      1 GROUP   
@<TRIPOS>SET

