#    Name: 2p5n_NAP_2_INTS_M
#    Modification time : Mon Mar 24 18:22:38 2014

@<TRIPOS>MOLECULE
2p5n_NAP_2_INTS_M
  126     0    12     0     0
SMALL
NO_CHARGES


@<TRIPOS>ATOM
      1 N          16.2140  -12.6370  -12.7665 N.am      2 SEC2        0.0000 
      2 N          17.0180  -13.8110  -12.7530 N.am     10 SEL2        0.0000 
      3 N          15.4100  -11.4630  -12.7800 N.am      6 SEP2        0.0000 
      4 N          15.9925  -14.8175  -12.4215 N.am      2 SEC2        0.0000 
      5 N          14.9670  -15.8240  -12.0900 N.am      6 SEP2        0.0000 
      6 N          20.7345  -13.0995  -14.5055 N.am      2 SEC2        0.0000 
      7 N          19.4200  -13.1930  -13.5590 N.am     10 SEL2        0.0000 
      8 N          22.0490  -13.0060  -15.4520 N.am      6 SEP2        0.0000 
      9 CA         16.3355  -16.0585  -13.6905 C.3       4 GLC5        0.0000 
     10 CA         16.7270  -15.2030  -15.3920 C.3      12 GLL5        0.0000 
     11 CA         15.9440  -16.9140  -11.9890 C.3       8 GLP5        0.0000 
     12 CA         17.0190  -17.3440  -14.9490 C.3       4 GLC5        0.0000 
     13 CA         17.3110  -19.4850  -14.5060 C.3       8 GLP5        0.0000 
     14 CA         18.7250  -17.4590  -16.1525 C.3       4 GLC5        0.0000 
     15 CA         17.7670  -16.2430  -17.5300 C.3      12 GLL5        0.0000 
     16 CA         19.6830  -18.6750  -14.7750 C.3       8 GLP5        0.0000 
     17 CA         19.8575  -15.2280  -19.4295 C.3       4 GLC5        0.0000 
     18 CA         17.9070  -15.6240  -18.9320 C.3      12 GLL5        0.0000 
     19 CA         21.8080  -14.8320  -19.9270 C.3       8 GLP5        0.0000 
     20 CA         17.0265  -12.5790  -17.8315 C.3       4 GLC5        0.0000 
     21 CA         16.8920  -14.4970  -18.9620 C.3      12 GLL5        0.0000 
     22 CA         17.1610  -10.6610  -16.7010 C.3       8 GLP5        0.0000 
     23 N          19.5620  -10.3205  -19.4060 N.am      2 SEC2        0.0000 
     24 N          18.5250  -11.3910  -19.8870 N.am     10 SEL2        0.0000 
     25 N          20.5990   -9.2500  -18.9250 N.am      6 SEP2        0.0000 
     26 CA         18.6440  -11.3300  -22.0595 C.3       4 GLC5        0.0000 
     27 CA         17.3700  -11.3010  -20.6220 C.3      12 GLL5        0.0000 
     28 CA         19.9180  -11.3590  -23.4970 C.3       8 GLP5        0.0000 
     29 CA         17.7830  -10.9940  -22.9515 C.3       4 GLC5        0.0000 
     30 CA         16.8550  -10.3720  -21.5490 C.3      12 GLL5        0.0000 
     31 CA         18.7110  -11.6160  -24.3540 C.3       8 GLP5        0.0000 
     32 O          16.8695   -8.0850  -22.5580 O.2       1 ALC1        0.0000 
     33 O          17.4860   -9.2170  -21.8290 O.2       9 ALL1        0.0000 
     34 O          16.2530   -6.9530  -23.2870 O.2       5 ALP1        0.0000 
     35 O          18.4055   -8.5260  -20.9780 O.2       1 ALC1        0.0000 
     36 O          19.3250   -7.8350  -20.1270 O.2       5 ALP1        0.0000 
     37 CA         13.9320  -11.6655  -20.1945 C.3       4 GLC5        0.0000 
     38 CA         14.9500  -11.6900  -21.8830 C.3      12 GLL5        0.0000 
     39 CA         12.9140  -11.6410  -18.5060 C.3       8 GLP5        0.0000 
     40 CA         14.9685  -10.0380  -20.6415 C.3       4 GLC5        0.0000 
     41 CA         14.9870   -8.3860  -19.4000 C.3       8 GLP5        0.0000 
     42 CA         16.5685  -12.3370  -22.9585 C.3       4 GLC5        0.0000 
     43 CA         18.1870  -12.9840  -24.0340 C.3       8 GLP5        0.0000 
     44 CA         14.7675  -12.0415  -19.4455 C.3       4 GLC5        0.0000 
     45 CA         16.6210  -12.4420  -20.3850 C.3      12 GLL5        0.0000 
     46 CA         17.4040  -12.7130  -22.2095 C.3       4 GLC5        0.0000 
     47 N          18.2235  -18.0130  -12.5505 N.am      2 SEC2        0.0000 
     48 N          19.2890  -17.5250  -11.6860 N.am     10 SEL2        0.0000 
     49 N          17.1580  -18.5010  -13.4150 N.am      6 SEP2        0.0000 
     50 N          20.2545  -18.4410  -11.6935 N.am      2 SEC2        0.0000 
     51 N          21.2200  -19.3570  -11.7010 N.am      6 SEP2        0.0000 
     52 N          18.4850  -14.3480   -9.8610 N.am      2 SEC2        0.0000 
     53 N          19.0720  -15.1800  -10.6680 N.am     10 SEL2        0.0000 
     54 N          17.8980  -13.5160   -9.0540 N.am      6 SEP2        0.0000 
     55 N          21.1450  -17.6590  -11.8185 N.am      2 SEC2        0.0000 
     56 N          21.0700  -15.9610  -11.9360 N.am     10 SEL2        0.0000 
     57 CA         22.2780  -15.0435  -13.5965 C.3       4 GLC5        0.0000 
     58 CA         21.6990  -14.7260  -11.6470 C.3      12 GLL5        0.0000 
     59 CA         22.8570  -15.3610  -15.5460 C.3       8 GLP5        0.0000 
     60 CA         23.1010  -12.9175  -10.4110 C.3       4 GLC5        0.0000 
     61 CA         22.9940  -14.9850  -10.9040 C.3      12 GLL5        0.0000 
     62 CA         23.2080  -10.8500   -9.9180 C.3       8 GLP5        0.0000 
     63 N          25.6060  -17.6050  -12.3190 N.am      2 SEC2        0.0000 
     64 N          24.6340  -16.5030  -12.1700 N.am     10 SEL2        0.0000 
     65 N          26.5780  -18.7070  -12.4680 N.am      6 SEP2        0.0000 
     66 O          24.2355  -15.8860  -13.3300 O.2       1 ALC1        0.0000 
     67 O          24.6340  -16.5030  -12.1700 O.2       9 ALL1        0.0000 
     68 O          23.8370  -15.2690  -14.4900 O.2       5 ALP1        0.0000 
     69 CA         25.8450  -17.5565   -9.0940 C.3       4 GLC5        0.0000 
     70 CA         24.4200  -16.4500   -9.7950 C.3      12 GLL5        0.0000 
     71 CA         27.2700  -18.6630   -8.3930 C.3       8 GLP5        0.0000 
     72 O          26.1790  -15.1210   -8.7720 O.2       1 ALC1        0.0000 
     73 O          25.5760  -15.6070   -9.8190 O.2       9 ALL1        0.0000 
     74 O          26.7820  -14.6350   -7.7250 O.2       5 ALP1        0.0000 
     75 CA         24.8610  -17.4550   -8.2005 C.3       4 GLC5        0.0000 
     76 CA         23.5110  -15.7790   -8.7760 C.3      12 GLL5        0.0000 
     77 CA         26.2110  -19.1310   -7.6250 C.3       8 GLP5        0.0000 
     78 CA         21.9355  -14.7450   -8.1100 C.3       4 GLC5        0.0000 
     79 CA         20.3600  -13.7110   -7.4440 C.3       8 GLP5        0.0000 
     80 CA         23.9355  -13.9150   -8.4180 C.3       4 GLC5        0.0000 
     81 CA         24.3600  -12.0510   -8.0600 C.3       8 GLP5        0.0000 
     82 CA         24.8175  -16.2270   -5.4015 C.3       4 GLC5        0.0000 
     83 CA         22.9420  -16.5800   -6.5460 C.3      12 GLL5        0.0000 
     84 CA         26.6930  -15.8740   -4.2570 C.3       8 GLP5        0.0000 
     85 N          21.6010  -17.9540   -2.0800 N.am      2 SEC2        0.0000 
     86 N          21.8490  -18.1130   -3.5450 N.am     10 SEL2        0.0000 
     87 N          21.3530  -17.7950   -0.6150 N.am      6 SEP2        0.0000 
     88 O          23.3710  -15.8905   -2.3235 O.2       1 ALC1        0.0000 
     89 O          23.3900  -16.4150   -3.7230 O.2       9 ALL1        0.0000 
     90 O          23.3520  -15.3660   -0.9240 O.2       5 ALP1        0.0000 
     91 O          24.0760  -15.2685   -4.1870 O.2       1 ALC1        0.0000 
     92 O          24.7620  -14.1220   -4.6510 O.2       5 ALP1        0.0000 
     93 CA         21.0685  -15.6250   -7.9080 C.3       4 GLC5        0.0000 
     94 CA         21.7770  -17.5390   -8.3720 C.3      12 GLL5        0.0000 
     95 NZ         17.5280  -15.2850  -22.6915 N.4       3 LYC4        0.0000 
     96 NZ         18.5270  -15.4160  -21.8870 N.4      11 LYL4        0.0000 
     97 NZ         16.0890  -14.1780  -24.3040 N.4       7 LYP4        0.0000 
     98 N          19.6195  -14.8345  -21.9490 N.am      2 SEC2        0.0000 
     99 N          18.5270  -15.4160  -21.8870 N.am     10 SEL2        0.0000 
    100 N          20.7120  -14.2530  -22.0110 N.am      6 SEP2        0.0000 
    101 N          17.5280  -15.2850  -22.6915 N.am      2 SEC2        0.0000 
    102 N          16.5290  -15.1540  -23.4960 N.am      6 SEP2        0.0000 
    103 N          20.2325  -15.7300  -21.3670 N.am      2 SEC2        0.0000 
    104 N          19.7530  -17.2070  -20.7230 N.am     10 SEL2        0.0000 
    105 N          21.0400  -16.9790  -21.0105 N.am      2 SEC2        0.0000 
    106 N          22.3270  -16.7510  -21.2980 N.am      6 SEP2        0.0000 
    107 NZ         17.4820  -18.1045  -23.3355 N.4       3 LYC4        0.0000 
    108 NZ         17.7060  -17.8970  -21.9520 N.4      11 LYL4        0.0000 
    109 NZ         17.2580  -18.3120  -24.7190 N.4       7 LYP4        0.0000 
    110 N          17.4820  -18.1045  -23.3355 N.am      2 SEC2        0.0000 
    111 N          17.7060  -17.8970  -21.9520 N.am     10 SEL2        0.0000 
    112 N          17.2580  -18.3120  -24.7190 N.am      6 SEP2        0.0000 
    113 CA         16.0583  -13.5478  -15.6833 C.3       4 GLC5        0.0000 
    114 CA         16.5980  -15.4860  -16.9050 C.3      12 GLL5        0.0000 
    115 CA         15.4540  -11.7510  -15.2180 C.3       8 GLP5        0.0000 
    116 CA         17.0783  -11.2662  -18.6022 C.3       4 GLC5        0.0000 
    117 CA         15.9269  -10.0126  -20.0676 C.3       4 GLC5        0.0000 
    118 CA         24.3962  -18.1553  -10.8855 C.3       4 GLC5        0.0000 
    119 CA         23.6730  -16.3550  -11.0990 C.3      12 GLL5        0.0000 
    120 CA         24.7460  -19.9080  -11.3240 C.3       8 GLP5        0.0000 
    121 CA         24.9934  -15.0120  -11.5256 C.3       4 GLC5        0.0000 
    122 CA         26.1100  -13.9640  -12.6530 C.3       8 GLP5        0.0000 
    123 CA         21.4727  -15.3472   -6.7780 C.3       4 GLC5        0.0000 
    124 CA         19.2815  -18.8885   -7.1145 C.3       4 GLC5        0.0000 
    125 CA         21.2380  -18.2860   -6.1500 C.3      12 GLL5        0.0000 
    126 CA         17.4380  -19.4650   -7.3940 C.3       8 GLP5        0.0000 
@<TRIPOS>BOND
@<TRIPOS>SUBSTRUCTURE
     1 ALC1       32 GROUP        1 X    ALC  0     ROOT ALC X 1
     2 SEC2        1 GROUP        1 X    SEC  0     **** SEC X 2
     3 LYC4       95 GROUP        1 X    LYC  0     **** LYC X 4
     4 GLC5        9 GROUP        1 X    GLC  0     **** GLC X 6
     5 ALP1       34 GROUP        1 Y    ALP  0     ROOT ALP Y 8
     6 SEP2        3 GROUP        1 Y    SEP  0     **** SEP Y 9
     7 LYP4       97 GROUP        1 Y    LYP  0     **** LYP Y 11
     8 GLP5       11 GROUP        1 Y    GLP  0     **** GLP Y 13
     9 ALL1       33 GROUP        1 Z    ALL  0     ROOT ALL Z 15
    10 SEL2        2 GROUP        1 Z    SEL  0     **** SEL Z 16
    11 LYL4       96 GROUP        1 Z    LYL  0     **** LYL Z 18
    12 GLL5       10 GROUP        1 Z    GLL  0     **** GLL Z 20
@<TRIPOS>SET

