#    Name: 2p5n_NAP_2_ligand
#    Modification time : Mon Mar 24 18:22:38 2014

@<TRIPOS>MOLECULE
2p5n_NAP_2_ligand
   73    77     1     0     0
SMALL
NO_CHARGES


@<TRIPOS>ATOM
      1 PA         18.2440  -14.1360  -13.5460 P.3       1 NAP2350     0.0000 
      2 O1A        17.0180  -13.8110  -12.7530 O.co2     1 NAP2350     0.0000 
      3 O2A        19.4200  -13.1930  -13.5590 O.co2     1 NAP2350     0.0000 
      4 O5B        17.9290  -14.4420  -15.0980 O.3       1 NAP2350     0.0000 
      5 C5B        16.7270  -15.2030  -15.3920 C.3       1 NAP2350     0.0000 
      6 C4B        16.5980  -15.4860  -16.9050 C.3       1 NAP2350     0.0000 
      7 O4B        16.6020  -14.2510  -17.5910 O.3       1 NAP2350     0.0000 
      8 C3B        17.7670  -16.2430  -17.5300 C.3       1 NAP2350     0.0000 
      9 O3B        17.5040  -17.6890  -17.5570 O.3       1 NAP2350     0.0000 
     10 C2B        17.9070  -15.6240  -18.9320 C.3       1 NAP2350     0.0000 
     11 O2B        17.5010  -16.5590  -19.9070 O.3       1 NAP2350     0.0000 
     12 C1B        16.8920  -14.4970  -18.9620 C.3       1 NAP2350     0.0000 
     13 N9A        17.3080  -13.1960  -19.5250 N.pl3     1 NAP2350     0.0000 
     14 C8A        18.4740  -12.5420  -19.2190 C.2       1 NAP2350     0.0000 
     15 N7A        18.5250  -11.3910  -19.8870 N.2       1 NAP2350     0.0000 
     16 C5A        17.3700  -11.3010  -20.6220 C.ar      1 NAP2350     0.0000 
     17 C6A        16.8550  -10.3720  -21.5490 C.ar      1 NAP2350     0.0000 
     18 N6A        17.4860   -9.2170  -21.8290 N.pl3     1 NAP2350     0.0000 
     19 N1A        15.6470  -10.5760  -22.1480 N.ar      1 NAP2350     0.0000 
     20 C2A        14.9500  -11.6900  -21.8830 C.ar      1 NAP2350     0.0000 
     21 N3A        15.4050  -12.6130  -21.0200 N.ar      1 NAP2350     0.0000 
     22 C4A        16.6210  -12.4420  -20.3850 C.ar      1 NAP2350     0.0000 
     23 O3         18.7670  -15.5880  -13.1550 O.3       1 NAP2350     0.0000 
     24 PN         19.4730  -16.0740  -11.8020 P.3       1 NAP2350     0.0000 
     25 O1N        19.2890  -17.5250  -11.6860 O.co2     1 NAP2350     0.0000 
     26 O2N        19.0720  -15.1800  -10.6680 O.co2     1 NAP2350     0.0000 
     27 O5D        21.0700  -15.9610  -11.9360 O.3       1 NAP2350     0.0000 
     28 C5D        21.6990  -14.7260  -11.6470 C.3       1 NAP2350     0.0000 
     29 C4D        22.9940  -14.9850  -10.9040 C.3       1 NAP2350     0.0000 
     30 O4D        22.6080  -14.9840   -9.5050 O.3       1 NAP2350     0.0000 
     31 C3D        23.6730  -16.3550  -11.0990 C.3       1 NAP2350     0.0000 
     32 O3D        24.6340  -16.5030  -12.1700 O.3       1 NAP2350     0.0000 
     33 C2D        24.4200  -16.4500   -9.7950 C.3       1 NAP2350     0.0000 
     34 O2D        25.5760  -15.6070   -9.8190 O.3       1 NAP2350     0.0000 
     35 C1D        23.5110  -15.7790   -8.7760 C.3       1 NAP2350     0.0000 
     36 N1N        22.7190  -16.6630   -7.8830 N.pl3     1 NAP2350     0.0000 
     37 C2N        22.9420  -16.5800   -6.5460 C.ar      1 NAP2350     0.0000 
     38 C3N        22.2290  -17.3870   -5.6780 C.ar      1 NAP2350     0.0000 
     39 C7N        22.4750  -17.2990   -4.2220 C.2       1 NAP2350     0.0000 
     40 O7N        21.8490  -18.1130   -3.5450 O.2       1 NAP2350     0.0000 
     41 N7N        23.3900  -16.4150   -3.7230 N.am      1 NAP2350     0.0000 
     42 C4N        21.2380  -18.2860   -6.1500 C.ar      1 NAP2350     0.0000 
     43 C5N        21.0120  -18.3380   -7.5200 C.ar      1 NAP2350     0.0000 
     44 C6N        21.7770  -17.5390   -8.3720 C.ar      1 NAP2350     0.0000 
     45 P2B        18.3970  -16.7850  -21.2420 P.3       1 NAP2350     0.0000 
     46 O1X        18.5270  -15.4160  -21.8870 O.co2     1 NAP2350     0.0000 
     47 O2X        19.7530  -17.2070  -20.7230 O.co2     1 NAP2350     0.0000 
     48 O3X        17.7060  -17.8970  -21.9520 O.co2     1 NAP2350     0.0000 
     49 H          15.8255  -14.6609  -15.0777 H         1 NAP2350     0.0000 
     50 H          16.7309  -16.1702  -14.8726 H         1 NAP2350     0.0000 
     51 H          15.6956  -16.0211  -17.0960 H         1 NAP2350     0.0000 
     52 H          18.6480  -16.0010  -16.9726 H         1 NAP2350     0.0000 
     53 H          18.8599  -15.2429  -19.0565 H         1 NAP2350     0.0000 
     54 H          15.9930  -14.8501  -19.4452 H         1 NAP2350     0.0000 
     55 H          19.1454  -12.8847  -18.6061 H         1 NAP2350     0.0000 
     56 H          17.3286   -8.8397  -22.7416 H         1 NAP2350     0.0000 
     57 H          18.0561   -8.8390  -21.0995 H         1 NAP2350     0.0000 
     58 H          14.0238  -11.8461  -22.3622 H         1 NAP2350     0.0000 
     59 H          21.0711  -14.0840  -11.0166 H         1 NAP2350     0.0000 
     60 H          21.9397  -14.1655  -12.5590 H         1 NAP2350     0.0000 
     61 H          23.6911  -14.2074  -11.0730 H         1 NAP2350     0.0000 
     62 H          22.9228  -17.1074  -11.0784 H         1 NAP2350     0.0000 
     63 H          24.5991  -17.4168   -9.5182 H         1 NAP2350     0.0000 
     64 H          24.1379  -15.1182   -8.1589 H         1 NAP2350     0.0000 
     65 H          23.6405  -15.9189   -6.1667 H         1 NAP2350     0.0000 
     66 H          23.4982  -16.4079   -2.7289 H         1 NAP2350     0.0000 
     67 H          23.8710  -15.8528   -4.3958 H         1 NAP2350     0.0000 
     68 H          20.7229  -18.8615   -5.5025 H         1 NAP2350     0.0000 
     69 H          20.2919  -18.9555   -7.9042 H         1 NAP2350     0.0000 
     70 H          21.6249  -17.6140   -9.3984 H         1 NAP2350     0.0000 
     71 H          17.5079  -17.9346  -18.5264 H         1 NAP2350     0.0000 
     72 H          24.0935  -16.4599  -13.0103 H         1 NAP2350     0.0000 
     73 H          25.7850  -15.4271   -8.8578 H         1 NAP2350     0.0000 
@<TRIPOS>BOND
     1    2    1 ar   
     2    3    1 ar   
     3    4    1 1    
     4   23    1 1    
     5    5    4 1    
     6    6    5 1    
     7   49    5 1    
     8   50    5 1    
     9    7    6 1    
    10    8    6 1    
    11   51    6 1    
    12   12    7 1    
    13    9    8 1    
    14   10    8 1    
    15   52    8 1    
    16   71    9 1    
    17   11   10 1    
    18   12   10 1    
    19   53   10 1    
    20   45   11 1    
    21   13   12 1    
    22   54   12 1    
    23   14   13 1    
    24   22   13 1    
    25   15   14 2    
    26   55   14 1    
    27   16   15 1    
    28   17   16 ar   
    29   22   16 ar   
    30   18   17 1    
    31   19   17 ar   
    32   56   18 1    
    33   57   18 1    
    34   20   19 ar   
    35   21   20 ar   
    36   58   20 1    
    37   22   21 ar   
    38   24   23 1    
    39   25   24 ar   
    40   26   24 ar   
    41   27   24 1    
    42   28   27 1    
    43   29   28 1    
    44   59   28 1    
    45   60   28 1    
    46   30   29 1    
    47   31   29 1    
    48   61   29 1    
    49   35   30 1    
    50   32   31 1    
    51   33   31 1    
    52   62   31 1    
    53   72   32 1    
    54   34   33 1    
    55   35   33 1    
    56   63   33 1    
    57   73   34 1    
    58   36   35 1    
    59   64   35 1    
    60   37   36 ar   
    61   44   36 ar   
    62   38   37 ar   
    63   65   37 1    
    64   39   38 1    
    65   42   38 ar   
    66   40   39 2    
    67   41   39 am   
    68   66   41 1    
    69   67   41 1    
    70   43   42 ar   
    71   68   42 1    
    72   44   43 ar   
    73   69   43 1    
    74   70   44 1    
    75   46   45 ar   
    76   47   45 ar   
    77   48   45 ar   
@<TRIPOS>SUBSTRUCTURE
     1 NAP2350     1 GROUP   
@<TRIPOS>SET

