#    Name: 3EDO_1_CAVITY_N1_6.mol2
#    Modification time : Mon Mar 10 13:09:07 2014

@<TRIPOS>MOLECULE
3EDO_1_CAVITY_N1_6.mol2
   84     0     6     0     0
SMALL
NO_CHARGES


@<TRIPOS>ATOM
      1 CA         28.4453   49.6795    1.4011 C.3       5 GLY6        0.0000 
      2 CA         26.3832   49.3399    1.0374 C.3       5 GLY6        0.0000 
      3 OG         27.6393   48.5427    0.8460 O.2       1 SER1        0.0000 
      4 N          28.8955   47.7456    0.6547 N.2       2 ALA2        0.0000 
      5 OG         25.5772   48.2032    0.4823 O.2       1 SER1        0.0000 
      6 O          26.8333   47.4060    0.2909 O.2       2 ALA2        0.0000 
      7 OG         29.4013   51.3840    0.5758 O.2       1 SER1        0.0000 
      8 OG         27.3392   51.0444    0.2121 O.2       1 SER1        0.0000 
      9 OG         28.5953   50.2472    0.0208 O.2       1 SER1        0.0000 
     10 CA         29.8515   49.4500   -0.1706 C.3       5 GLY6        0.0000 
     11 CA         26.5332   49.9076   -0.3430 C.3       5 GLY6        0.0000 
     12 DU         27.7893   49.1104   -0.5343 H         6 CUB7        0.0000 
     13 CA         29.0455   48.3132   -0.7257 C.3       5 GLY6        0.0000 
     14 N          30.3016   47.5160   -0.9170 N.2       2 ALA2        0.0000 
     15 CA         25.7272   48.7708   -0.8980 C.3       5 GLY6        0.0000 
     16 CA         26.9833   47.9736   -1.0894 C.3       5 GLY6        0.0000 
     17 CA         28.2395   47.1764   -1.2807 C.3       5 GLY6        0.0000 
     18 N          29.4956   46.3792   -1.4721 N.2       2 ALA2        0.0000 
     19 N          24.9212   47.6340   -1.4531 N.2       2 ALA2        0.0000 
     20 OG         29.5513   51.9516   -0.8045 O.2       1 SER1        0.0000 
     21 O          30.8074   51.1544   -0.9958 O.2       2 ALA2        0.0000 
     22 OG         28.7453   50.8148   -1.3595 O.2       1 SER1        0.0000 
     23 CA         30.0014   50.0176   -1.5509 C.3       5 GLY6        0.0000 
     24 CA         31.2576   49.2205   -1.7422 C.3       5 GLY6        0.0000 
     25 OG         26.6832   50.4752   -1.7233 O.2       1 SER1        0.0000 
     26 DU         27.9393   49.6781   -1.9146 H         6 CUB7        0.0000 
     27 DU         29.1954   48.8809   -2.1060 H         6 CUB7        0.0000 
     28 N          30.4516   48.0837   -2.2973 N.2       2 ALA2        0.0000 
     29 DU         27.1333   48.5413   -2.4697 H         6 CUB7        0.0000 
     30 O          28.3895   47.7441   -2.6610 O.2       2 ALA2        0.0000 
     31 N          29.6456   46.9469   -2.8524 N.2       2 ALA2        0.0000 
     32 O          26.3273   47.4045   -3.0248 O.2       2 ALA2        0.0000 
     33 O          28.8396   45.8101   -3.4075 O.2       2 ALA2        0.0000 
     34 CZ         29.7013   52.5193   -2.1848 C.ar      4 PHE5        0.0000 
     35 CZ         30.9574   51.7221   -2.3761 C.ar      4 PHE5        0.0000 
     36 O          32.2136   50.9249   -2.5675 O.2       2 ALA2        0.0000 
     37 OG         28.8953   51.3825   -2.7399 O.2       1 SER1        0.0000 
     38 DU         30.1514   50.5853   -2.9312 H         6 CUB7        0.0000 
     39 CA         31.4076   49.7881   -3.1226 C.3       5 GLY6        0.0000 
     40 CA         32.6637   48.9909   -3.3139 C.3       5 GLY6        0.0000 
     41 CA         33.9198   48.1937   -3.5053 C.3       5 GLY6        0.0000 
     42 DU         28.0893   50.2457   -3.2949 H         6 CUB7        0.0000 
     43 DU         29.3454   49.4485   -3.4863 H         6 CUB7        0.0000 
     44 OG         30.6016   48.6513   -3.6776 O.2       1 SER1        0.0000 
     45 N          31.8577   47.8541   -3.8690 N.2       2 ALA2        0.0000 
     46 N          33.1138   47.0570   -4.0603 N.2       2 ALA2        0.0000 
     47 DU         28.5394   48.3117   -4.0414 H         6 CUB7        0.0000 
     48 OG         29.7956   47.5146   -4.2327 O.2       1 SER1        0.0000 
     49 CZ         33.1695   52.6293   -3.3927 C.ar      4 PHE5        0.0000 
     50 O          34.4257   51.8321   -3.5841 O.2       2 ALA2        0.0000 
     51 CA         35.6818   51.0349   -3.7754 C.3       5 GLY6        0.0000 
     52 CZ         31.1074   52.2897   -3.7565 C.ar      4 PHE5        0.0000 
     53 OG         32.3635   51.4925   -3.9478 O.2       1 SER1        0.0000 
     54 OG         33.6197   50.6953   -4.1392 O.2       1 SER1        0.0000 
     55 CA         34.8758   49.8982   -4.3305 C.3       5 GLY6        0.0000 
     56 CZ         29.0453   51.9501   -4.1202 C.ar      4 PHE5        0.0000 
     57 OG         30.3014   51.1529   -4.3115 O.2       1 SER1        0.0000 
     58 OG         31.5575   50.3558   -4.5029 O.2       1 SER1        0.0000 
     59 OG         32.8137   49.5586   -4.6942 O.2       1 SER1        0.0000 
     60 CZ         34.0698   48.7614   -4.8856 C.ar      4 PHE5        0.0000 
     61 OG         29.4954   50.0162   -4.8666 O.2       1 SER1        0.0000 
     62 CA         34.1255   54.3337   -4.2180 C.3       5 GLY6        0.0000 
     63 CZ         33.3195   53.1970   -4.7730 C.ar      4 PHE5        0.0000 
     64 O          34.5757   52.3998   -4.9644 O.2       2 ALA2        0.0000 
     65 O          35.8318   51.6026   -5.1557 O.2       2 ALA2        0.0000 
     66 CZ         30.0013   53.6546   -4.9454 C.ar      4 PHE5        0.0000 
     67 CZ         31.2574   52.8574   -5.1368 C.ar      4 PHE5        0.0000 
     68 OG         32.5135   52.0602   -5.3281 O.2       1 SER1        0.0000 
     69 CZ         33.7697   51.2630   -5.5195 C.ar      4 PHE5        0.0000 
     70 CZ         35.0258   50.4658   -5.7108 C.ar      4 PHE5        0.0000 
     71 OG         30.4514   51.7206   -5.6918 O.2       1 SER1        0.0000 
     72 CZ         32.2134   54.5618   -5.9620 C.ar      4 PHE5        0.0000 
     73 OD1        33.4695   53.7646   -6.1534 O.3       3 ASP3        0.0000 
     74 OD1        34.7256   52.9674   -6.3447 O.3       3 ASP3        0.0000 
     75 CZ         30.1512   54.2222   -6.3257 C.ar      4 PHE5        0.0000 
     76 OG         31.4074   53.4250   -6.5171 O.2       1 SER1        0.0000 
     77 CZ         32.6635   52.6278   -6.7084 C.ar      4 PHE5        0.0000 
     78 OG         30.6014   52.2883   -7.0722 O.2       1 SER1        0.0000 
     79 CZ         31.1072   55.9266   -7.1510 C.ar      4 PHE5        0.0000 
     80 OD1        32.3634   55.1295   -7.3423 O.3       3 ASP3        0.0000 
     81 DU         30.3012   54.7899   -7.7061 H         6 CUB7        0.0000 
     82 OD1        31.5574   53.9927   -7.8974 O.3       3 ASP3        0.0000 
     83 OD1        32.8135   53.1955   -8.0888 O.3       3 ASP3        0.0000 
     84 OG         30.7514   52.8559   -8.4525 O.2       1 SER1        0.0000 
@<TRIPOS>BOND
@<TRIPOS>SUBSTRUCTURE
     1 SER1        3 GROUP   
     2 ALA2        4 GROUP   
     3 ASP3       73 GROUP   
     4 PHE5       34 GROUP   
     5 GLY6        1 GROUP   
     6 CUB7       12 GROUP   
@<TRIPOS>SET

