#    Name: 3edo_FMN_1_INTS_M
#    Modification time : Tue Mar 25 01:32:50 2014

@<TRIPOS>MOLECULE
3edo_FMN_1_INTS_M
   73     0     9     0     0
SMALL
NO_CHARGES


@<TRIPOS>ATOM
      1 N          28.0320   44.8760   -3.2955 N.am      2 SEC2        0.0000 
      2 N          29.5710   45.2220   -3.8930 N.am      8 SEL2        0.0000 
      3 N          26.4930   44.5300   -2.6980 N.am      5 SEP2        0.0000 
      4 N          27.5675   43.8495   -3.3360 N.am      2 SEC2        0.0000 
      5 N          28.6420   43.1690   -3.9740 N.am      8 SEL2        0.0000 
      6 N          28.3395   41.7230   -4.0820 N.am      2 SEC2        0.0000 
      7 N          28.0370   40.2770   -4.1900 N.am      5 SEP2        0.0000 
      8 O          30.7465   41.9165   -3.7820 O.2       1 ALC1        0.0000 
      9 O          30.8500   43.3110   -4.3580 O.2       7 ALL1        0.0000 
     10 O          30.6430   40.5220   -3.2060 O.2       4 ALP1        0.0000 
     11 N          33.2540   42.1940   -5.4200 N.am      2 SEC2        0.0000 
     12 N          33.0780   43.4000   -4.7020 N.am      8 SEL2        0.0000 
     13 N          33.4300   40.9880   -6.1380 N.am      5 SEP2        0.0000 
     14 N          34.2715   45.5675   -4.0870 N.am      2 SEC2        0.0000 
     15 N          33.0320   46.2250   -4.5950 N.am      8 SEL2        0.0000 
     16 N          35.5110   44.9100   -3.5790 N.am      5 SEP2        0.0000 
     17 CA         35.9350   52.5285   -3.3095 C.3       3 GLC5        0.0000 
     18 CA         35.2430   50.5640   -4.1580 C.3       9 GLL5        0.0000 
     19 CA         36.6270   54.4930   -2.4610 C.3       6 GLP5        0.0000 
     20 CA         36.4625   50.8480   -5.5505 C.3       3 GLC5        0.0000 
     21 CA         37.6820   51.1320   -6.9430 C.3       6 GLP5        0.0000 
     22 CA         34.7060   49.8250   -2.5030 C.3       3 GLC5        0.0000 
     23 CA         34.1690   49.0860   -0.8480 C.3       6 GLP5        0.0000 
     24 CA         34.4930   50.4570   -6.1435 C.3       3 GLC5        0.0000 
     25 CA         33.7430   50.3500   -8.1290 C.3       6 GLP5        0.0000 
     26 CA         31.9195   53.3130   -2.5700 C.3       3 GLC5        0.0000 
     27 CA         32.6200   51.8000   -3.5170 C.3       9 GLL5        0.0000 
     28 CA         31.2190   54.8260   -1.6230 C.3       6 GLP5        0.0000 
     29 CA         33.3945   50.4430   -2.1825 C.3       3 GLC5        0.0000 
     30 CA         30.2880   48.3875    0.0420 C.3       3 GLC5        0.0000 
     31 CA         29.2770   48.0390   -1.8180 C.3       9 GLL5        0.0000 
     32 CA         31.2990   48.7360    1.9020 C.3       6 GLP5        0.0000 
     33 N          30.6815   46.2480    0.0530 N.am      2 SEC2        0.0000 
     34 N          29.7220   46.8690   -1.1520 N.am      8 SEL2        0.0000 
     35 N          31.6410   45.6270    1.2580 N.am      5 SEP2        0.0000 
     36 O          31.0755   46.5740   -1.2830 O.2       1 ALC1        0.0000 
     37 O          29.7220   46.8690   -1.1520 O.2       7 ALL1        0.0000 
     38 O          32.4290   46.2790   -1.4140 O.2       4 ALP1        0.0000 
     39 CA         27.0050   47.5735    1.8630 C.3       3 GLC5        0.0000 
     40 CA         27.8420   48.6720    0.1690 C.3       9 GLL5        0.0000 
     41 CA         26.1680   46.4750    3.5570 C.3       6 GLP5        0.0000 
     42 O          26.7770   48.0175    1.9805 O.2       1 ALC1        0.0000 
     43 O          26.5580   48.4240    0.6940 O.2       7 ALL1        0.0000 
     44 O          26.9960   47.6110    3.2670 O.2       4 ALP1        0.0000 
     45 N          28.4510   49.7500    3.4525 N.am      2 SEC2        0.0000 
     46 N          28.3540   50.3110    1.8440 N.am      8 SEL2        0.0000 
     47 N          28.5480   49.1890    5.0610 N.am      5 SEP2        0.0000 
     48 N          28.4510   53.9045    1.7290 N.am      2 SEC2        0.0000 
     49 N          27.5020   52.6510    1.8360 N.am      8 SEL2        0.0000 
     50 N          29.4000   55.1580    1.6220 N.am      5 SEP2        0.0000 
     51 N          27.6595   53.2000    0.7000 N.am      2 SEC2        0.0000 
     52 N          27.8170   53.7490   -0.4360 N.am      5 SEP2        0.0000 
     53 N          26.4580   52.8290    2.7225 N.am      2 SEC2        0.0000 
     54 N          25.4140   53.0070    3.6090 N.am      5 SEP2        0.0000 
     55 N          30.6435   53.2455    2.6825 N.am      2 SEC2        0.0000 
     56 N          29.9860   52.2640    1.8620 N.am      8 SEL2        0.0000 
     57 N          31.3010   54.2270    3.5030 N.am      5 SEP2        0.0000 
     58 N          29.6930   53.7110    1.7420 N.am      2 SEC2        0.0000 
     59 N          28.4460   52.7100    4.6330 N.am      2 SEC2        0.0000 
     60 N          28.5620   51.6470    3.8680 N.am      8 SEL2        0.0000 
     61 N          28.3300   53.7730    5.3980 N.am      5 SEP2        0.0000 
     62 N          27.4310   51.2395    4.5600 N.am      2 SEC2        0.0000 
     63 N          26.3000   50.8320    5.2520 N.am      5 SEP2        0.0000 
     64 N          28.5550   50.4180    4.4645 N.am      2 SEC2        0.0000 
     65 CA         34.4829   47.6519   -3.0040 C.3       3 GLC5        0.0000 
     66 CA         32.9120   47.5800   -4.3270 C.3       9 GLL5        0.0000 
     67 CA         35.2320   46.4370   -1.7180 C.3       6 GLP5        0.0000 
     68 CA         26.3795   50.1460    1.4135 C.3       3 GLC5        0.0000 
     69 CA         24.7370   50.9030    2.5250 C.3       6 GLP5        0.0000 
     70 CA         29.6605   49.0625    1.1020 C.3       3 GLC5        0.0000 
     71 CA         28.2020   50.1060    0.4350 C.3       9 GLL5        0.0000 
     72 CA         27.7266   46.5015   -0.5725 C.3       3 GLC5        0.0000 
     73 CA         27.2480   44.5640   -0.4410 C.3       6 GLP5        0.0000 
@<TRIPOS>BOND
@<TRIPOS>SUBSTRUCTURE
     1 ALC1        8 GROUP        1 X    ALC  0     ROOT ALC X 1
     2 SEC2        1 GROUP        1 X    SEC  0     **** SEC X 2
     3 GLC5       17 GROUP        1 X    GLC  0     **** GLC X 6
     4 ALP1       10 GROUP        1 Y    ALP  0     ROOT ALP Y 8
     5 SEP2        3 GROUP        1 Y    SEP  0     **** SEP Y 9
     6 GLP5       19 GROUP        1 Y    GLP  0     **** GLP Y 13
     7 ALL1        9 GROUP        1 Z    ALL  0     ROOT ALL Z 15
     8 SEL2        2 GROUP        1 Z    SEL  0     **** SEL Z 16
     9 GLL5       18 GROUP        1 Z    GLL  0     **** GLL Z 20
@<TRIPOS>SET

