#    Name: 3edo_FMN_1_ligand
#    Modification time : Tue Mar 25 01:32:50 2014

@<TRIPOS>MOLECULE
3edo_FMN_1_ligand
   50    52     1     0     0
SMALL
NO_CHARGES


@<TRIPOS>ATOM
      1 N1         29.5710   45.2220   -3.8930 N.2       1 FMN200      0.0000 
      2 C2         29.6460   43.8920   -4.0660 C.2       1 FMN200      0.0000 
      3 O2         28.6420   43.1690   -3.9740 O.2       1 FMN200      0.0000 
      4 N3         30.8500   43.3110   -4.3580 N.am      1 FMN200      0.0000 
      5 C4         32.0090   44.0320   -4.5420 C.2       1 FMN200      0.0000 
      6 O4         33.0780   43.4000   -4.7020 O.2       1 FMN200      0.0000 
      7 C4A        31.9200   45.4160   -4.4010 C.2       1 FMN200      0.0000 
      8 N5         33.0320   46.2250   -4.5950 N.2       1 FMN200      0.0000 
      9 C5A        32.9120   47.5800   -4.3270 C.ar      1 FMN200      0.0000 
     10 C6         34.0510   48.3830   -4.4490 C.ar      1 FMN200      0.0000 
     11 C7         33.9860   49.7520   -4.1920 C.ar      1 FMN200      0.0000 
     12 C7M        35.2430   50.5640   -4.1580 C.3       1 FMN200      0.0000 
     13 C8         32.7550   50.3300   -3.8580 C.ar      1 FMN200      0.0000 
     14 C8M        32.6200   51.8000   -3.5170 C.3       1 FMN200      0.0000 
     15 C9         31.6240   49.5370   -3.6960 C.ar      1 FMN200      0.0000 
     16 C9A        31.6830   48.1500   -3.9490 C.ar      1 FMN200      0.0000 
     17 N10        30.5630   47.3280   -3.8250 N.pl3     1 FMN200      0.0000 
     18 C10        30.6890   45.9850   -4.0440 C.2       1 FMN200      0.0000 
     19 C1'        29.2620   47.8890   -3.3440 C.3       1 FMN200      0.0000 
     20 C2'        29.2770   48.0390   -1.8180 C.3       1 FMN200      0.0000 
     21 O2'        29.7220   46.8690   -1.1520 O.3       1 FMN200      0.0000 
     22 C3'        27.8600   48.3730   -1.3360 C.3       1 FMN200      0.0000 
     23 O3'        27.3660   49.4900   -2.0790 O.3       1 FMN200      0.0000 
     24 C4'        27.8420   48.6720    0.1690 C.3       1 FMN200      0.0000 
     25 O4'        26.5580   48.4240    0.6940 O.3       1 FMN200      0.0000 
     26 C5'        28.2020   50.1060    0.4350 C.3       1 FMN200      0.0000 
     27 O5'        28.3540   50.3110    1.8440 O.3       1 FMN200      0.0000 
     28 P          28.6320   51.7830    2.3500 P.3       1 FMN200      0.0000 
     29 O1P        27.5020   52.6510    1.8360 O.co2     1 FMN200      0.0000 
     30 O2P        29.9860   52.2640    1.8620 O.co2     1 FMN200      0.0000 
     31 O3P        28.5620   51.6470    3.8680 O.co2     1 FMN200      0.0000 
     32 H          30.8967   42.2598   -4.4473 H         1 FMN200      0.0000 
     33 H          34.9459   47.9568   -4.7317 H         1 FMN200      0.0000 
     34 H          30.7363   49.9548   -3.3908 H         1 FMN200      0.0000 
     35 H          28.4421   47.2269   -3.6213 H         1 FMN200      0.0000 
     36 H          29.0879   48.8684   -3.7890 H         1 FMN200      0.0000 
     37 H          29.9009   48.8970   -1.5747 H         1 FMN200      0.0000 
     38 H          27.2411   47.4951   -1.5090 H         1 FMN200      0.0000 
     39 H          28.5855   48.0397    0.6399 H         1 FMN200      0.0000 
     40 H          27.4106   50.7452    0.0224 H         1 FMN200      0.0000 
     41 H          29.1302   50.3368   -0.1037 H         1 FMN200      0.0000 
     42 H          35.8758   50.2396   -3.4549 H         1 FMN200      0.0000 
     43 H          35.7311   50.5295   -5.0301 H         1 FMN200      0.0000 
     44 H          35.0577   51.5273   -3.9637 H         1 FMN200      0.0000 
     45 H          33.1756   52.0498   -2.7239 H         1 FMN200      0.0000 
     46 H          32.9103   52.3851   -4.2742 H         1 FMN200      0.0000 
     47 H          31.6749   52.0461   -3.3020 H         1 FMN200      0.0000 
     48 H          30.7070   46.8340   -1.3210 H         1 FMN200      0.0000 
     49 H          26.8755   49.0894   -2.8529 H         1 FMN200      0.0000 
     50 H          26.7170   48.1182    1.6327 H         1 FMN200      0.0000 
@<TRIPOS>BOND
     1    2    1 1    
     2   18    1 2    
     3    3    2 2    
     4    4    2 am   
     5    5    4 am   
     6   32    4 1    
     7    6    5 2    
     8    7    5 1    
     9    8    7 2    
    10   18    7 1    
    11    9    8 1    
    12   10    9 ar   
    13   16    9 ar   
    14   11   10 ar   
    15   33   10 1    
    16   12   11 1    
    17   13   11 ar   
    18   42   12 1    
    19   43   12 1    
    20   44   12 1    
    21   14   13 1    
    22   15   13 ar   
    23   45   14 1    
    24   46   14 1    
    25   47   14 1    
    26   16   15 ar   
    27   34   15 1    
    28   17   16 1    
    29   18   17 1    
    30   19   17 1    
    31   20   19 1    
    32   35   19 1    
    33   36   19 1    
    34   21   20 1    
    35   22   20 1    
    36   37   20 1    
    37   48   21 1    
    38   23   22 1    
    39   24   22 1    
    40   38   22 1    
    41   49   23 1    
    42   25   24 1    
    43   26   24 1    
    44   39   24 1    
    45   50   25 1    
    46   27   26 1    
    47   40   26 1    
    48   41   26 1    
    49   28   27 1    
    50   29   28 ar   
    51   30   28 ar   
    52   31   28 ar   
@<TRIPOS>SUBSTRUCTURE
     1 FMN200      1 GROUP   
@<TRIPOS>SET

