#    Name: 1qin_GIP_1_INTS_M
#    Modification time : Mon Mar 24 23:30:56 2014

@<TRIPOS>MOLECULE
1qin_GIP_1_INTS_M
   77     0    15     0     0
SMALL
NO_CHARGES


@<TRIPOS>ATOM
      1 NZ         -0.6985   -4.6425   36.5645 N.4       3 LYC4        0.0000 
      2 NZ         -0.7340   -2.9030   36.2580 N.4      13 LYL4        0.0000 
      3 NZ         -0.6630   -6.3820   36.8710 N.4       8 LYP4        0.0000 
      4 NZ         -0.6400   -3.6035   35.0495 N.4       3 LYC4        0.0000 
      5 NZ         -1.5800   -4.7010   33.1040 N.4       8 LYP4        0.0000 
      6 N          -0.6400   -3.6035   35.0495 N.am      2 SEC2        0.0000 
      7 N          -0.7340   -2.9030   36.2580 N.am     12 SEL2        0.0000 
      8 N          -0.5460   -4.3040   33.8410 N.am      7 SEP2        0.0000 
      9 N           0.6760   -2.9190   36.7110 N.am      2 SEC2        0.0000 
     10 N           2.0860   -2.9350   37.1640 N.am      7 SEP2        0.0000 
     11 NZ         -1.5605   -3.2330   34.5910 N.4       3 LYC4        0.0000 
     12 NZ         -2.5750   -2.1620   35.3410 N.4      13 LYL4        0.0000 
     13 N          -1.5605   -3.2330   34.5910 N.am      2 SEC2        0.0000 
     14 N          -2.5750   -2.1620   35.3410 N.am     12 SEL2        0.0000 
     15 N          -2.6940   -3.3180   34.4560 N.am      2 SEC2        0.0000 
     16 N          -2.8130   -4.4740   33.5710 N.am      7 SEP2        0.0000 
     17 O           0.0045   -1.5265   38.6735 O.2       1 ALC1        0.0000 
     18 O          -1.4230   -1.7120   38.7380 O.2      11 ALL1        0.0000 
     19 O           1.4320   -1.3410   38.6090 O.2       6 ALP1        0.0000 
     20 CA         -0.5110    1.6295   37.9420 C.3       5 GLC5        0.0000 
     21 CA         -1.3330    0.2150   37.1770 C.3      15 GLL5        0.0000 
     22 CA          0.3110    3.0440   38.7070 C.3      10 GLP5        0.0000 
     23 CA         -7.0410    2.3000   33.1200 C.3       5 GLC5        0.0000 
     24 CA         -5.8830    3.4320   34.3220 C.3      15 GLL5        0.0000 
     25 CA         -8.1990    1.1680   31.9180 C.3      10 GLP5        0.0000 
     26 CA         -1.5375    2.6675   36.6120 C.3       5 GLC5        0.0000 
     27 CA         -2.0280    0.9390   35.9650 C.3      15 GLL5        0.0000 
     28 CA         -1.0470    4.3960   37.2590 C.3      10 GLP5        0.0000 
     29 CA         -5.8970    4.3135   36.4290 C.3       5 GLC5        0.0000 
     30 CA         -5.4030    2.7030   35.5820 C.3      15 GLL5        0.0000 
     31 CA         -6.3910    5.9240   37.2760 C.3      10 GLP5        0.0000 
     32 CA         -3.7650    3.4915   36.8530 C.3       5 GLC5        0.0000 
     33 CA         -2.1270    4.2800   38.1240 C.3      10 GLP5        0.0000 
     34 CA        -10.5380    1.7370   36.5970 C.3       5 GLC5        0.0000 
     35 CA         -8.5210    1.2110   37.3180 C.3      15 GLL5        0.0000 
     36 CA        -12.5550    2.2630   35.8760 C.3      10 GLP5        0.0000 
     37 CA         -8.8135    1.2005   35.1415 C.3       5 GLC5        0.0000 
     38 CA         -9.1060    1.1900   32.9650 C.3      10 GLP5        0.0000 
     39 N         -10.1580    3.1850   39.7205 N.am      2 SEC2        0.0000 
     40 N          -9.1990    3.2710   38.3370 N.am     12 SEL2        0.0000 
     41 N         -11.1170    3.0990   41.1040 N.am      7 SEP2        0.0000 
     42 N          -9.6600    4.3850   39.0760 N.am      2 SEC2        0.0000 
     43 N         -10.1210    5.4990   39.8150 N.am      7 SEP2        0.0000 
     44 N         -10.6995    2.2715   40.0150 N.am      2 SEC2        0.0000 
     45 N         -10.2820    1.4440   38.9260 N.am     12 SEL2        0.0000 
     46 Zn         -4.5590    4.9085   29.7710 Zn        4 ZIC7        0.0000 
     47 Zn         -4.8460    5.8890   29.9890 Zn       14 ZIL7        0.0000 
     48 Zn         -4.2720    3.9280   29.5530 Zn        9 ZIP7        0.0000 
     49 N          -4.6905    6.2745   28.6350 N.am      2 SEC2        0.0000 
     50 N          -4.8460    5.8890   29.9890 N.am     12 SEL2        0.0000 
     51 N          -4.5350    6.6600   27.2810 N.am      7 SEP2        0.0000 
     52 Zn         -4.5640    3.8300   30.5760 Zn        4 ZIC7        0.0000 
     53 Zn         -4.8560    3.7320   31.5990 Zn       14 ZIL7        0.0000 
     54 O          -3.3640    4.2075   31.3625 O.2       1 ALC1        0.0000 
     55 O          -4.8560    3.7320   31.5990 O.2      11 ALL1        0.0000 
     56 O          -1.8720    4.6830   31.1260 O.2       6 ALP1        0.0000 
     57 CA         -6.9080    9.9115   34.5645 C.3       5 GLC5        0.0000 
     58 CA         -5.6750    9.0760   33.2370 C.3      15 GLL5        0.0000 
     59 CA         -8.1410   10.7470   35.8920 C.3      10 GLP5        0.0000 
     60 CA         -1.5355   10.0640   33.1720 C.3       5 GLC5        0.0000 
     61 CA         -3.3110    9.0740   32.6250 C.3      15 GLL5        0.0000 
     62 CA          0.2400   11.0540   33.7190 C.3      10 GLP5        0.0000 
     63 CA         -0.1772    0.5330   35.6030 C.3       5 GLC5        0.0000 
     64 CA          1.3260    0.4890   34.6350 C.3      10 GLP5        0.0000 
     65 CA         -5.8878    5.0478   35.6940 C.3       5 GLC5        0.0000 
     66 CA         -2.9905    5.7060   33.4375 C.3       5 GLC5        0.0000 
     67 CA         -4.8860    4.9110   33.9020 C.3      15 GLL5        0.0000 
     68 CA         -1.1330    6.5200   33.8930 C.3      10 GLP5        0.0000 
     69 CA         -7.3982    7.6410   33.5023 C.3       5 GLC5        0.0000 
     70 CA         -5.8400    7.8480   32.5860 C.3      15 GLL5        0.0000 
     71 CA         -9.0390    6.8200   34.0930 C.3      10 GLP5        0.0000 
     72 CA         -2.4190    7.4183   33.0949 C.3       5 GLC5        0.0000 
     73 CA         -4.4729   10.5770   31.4644 C.3       5 GLC5        0.0000 
     74 CA         -4.7670   11.9380   30.0010 C.3      10 GLP5        0.0000 
     75 CA         -6.6629    9.5360   32.1699 C.3       5 GLC5        0.0000 
     76 CA         -4.4180    9.6400   33.2240 C.3      15 GLL5        0.0000 
     77 CA         -8.2380   10.0210   31.2720 C.3      10 GLP5        0.0000 
@<TRIPOS>BOND
@<TRIPOS>SUBSTRUCTURE
     1 ALC1       17 GROUP        1 X    ALC  0     ROOT ALC X 1
     2 SEC2        6 GROUP        1 X    SEC  0     **** SEC X 2
     3 LYC4        1 GROUP        1 X    LYC  0     **** LYC X 4
     4 ZIC7       46 GROUP        1 X    ZIC  0     **** ZIC X 5
     5 GLC5       20 GROUP        1 X    GLC  0     **** GLC X 6
     6 ALP1       19 GROUP        1 Y    ALP  0     ROOT ALP Y 8
     7 SEP2        8 GROUP        1 Y    SEP  0     **** SEP Y 9
     8 LYP4        3 GROUP        1 Y    LYP  0     **** LYP Y 11
     9 ZIP7       48 GROUP        1 Y    ZIP  0     **** ZIP Y 12
    10 GLP5       22 GROUP        1 Y    GLP  0     **** GLP Y 13
    11 ALL1       18 GROUP        1 Z    ALL  0     ROOT ALL Z 15
    12 SEL2        7 GROUP        1 Z    SEL  0     **** SEL Z 16
    13 LYL4        2 GROUP        1 Z    LYL  0     **** LYL Z 18
    14 ZIL7       47 GROUP        1 Z    ZIL  0     **** ZIL Z 19
    15 GLL5       21 GROUP        1 Z    GLL  0     **** GLL Z 20
@<TRIPOS>SET

