#    Name: 1qin_GIP_1_ligand
#    Modification time : Mon Mar 24 23:30:56 2014

@<TRIPOS>MOLECULE
1qin_GIP_1_ligand
   52    52     1     0     0
SMALL
NO_CHARGES


@<TRIPOS>ATOM
      1 C          -1.7400   -2.1540   36.2730 C.2       1 GIP300      0.0000 
      2 OT1        -0.7340   -2.9030   36.2580 O.co2     1 GIP300      0.0000 
      3 OT2        -2.5750   -2.1620   35.3410 O.co2     1 GIP300      0.0000 
      4 N          -1.4230   -1.7120   38.7380 N.4       1 GIP300      0.0000 
      5 CA         -1.9680   -1.1830   37.4720 C.3       1 GIP300      0.0000 
      6 CB         -1.3330    0.2150   37.1770 C.3       1 GIP300      0.0000 
      7 CB2        -5.8830    3.4320   34.3220 C.3       1 GIP300      0.0000 
      8 SG2        -4.8860    4.9110   33.9020 S.3       1 GIP300      0.0000 
      9 CG         -2.0280    0.9390   35.9650 C.3       1 GIP300      0.0000 
     10 CD         -3.4350    1.4780   36.2540 C.2       1 GIP300      0.0000 
     11 OE         -3.9710    1.2810   37.3510 O.2       1 GIP300      0.0000 
     12 N2         -4.0500    2.1670   35.2990 N.am      1 GIP300      0.0000 
     13 CA2        -5.4030    2.7030   35.5820 C.3       1 GIP300      0.0000 
     14 C2         -6.4890    1.6390   35.9870 C.2       1 GIP300      0.0000 
     15 O2         -6.5130    0.5450   35.4440 O.2       1 GIP300      0.0000 
     16 N3         -7.3780    2.0830   36.8870 N.am      1 GIP300      0.0000 
     17 CA3        -8.5210    1.2110   37.3180 C.3       1 GIP300      0.0000 
     18 C3         -9.4090    2.0400   38.2710 C.2       1 GIP300      0.0000 
     19 O31        -9.1990    3.2710   38.3370 O.co2     1 GIP300      0.0000 
     20 O32       -10.2820    1.4440   38.9260 O.co2     1 GIP300      0.0000 
     21 NE2        -4.8270    5.9630   31.2850 N.pl3     1 GIP300      0.0000 
     22 OF2        -4.8460    5.8890   29.9890 O.2       1 GIP300      0.0000 
     23 CD2        -4.8100    4.8730   32.0620 C.3       1 GIP300      0.0000 
     24 OZ1        -4.8560    3.7320   31.5990 O.3       1 GIP300      0.0000 
     25 CG2        -4.7310    7.2620   31.9630 C.ar      1 GIP300      0.0000 
     26 CL1        -5.8400    7.8480   32.5860 C.ar      1 GIP300      0.0000 
     27 CL2        -3.4670    7.8560   31.9740 C.ar      1 GIP300      0.0000 
     28 CM1        -5.6750    9.0760   33.2370 C.ar      1 GIP300      0.0000 
     29 CM2        -3.3110    9.0740   32.6250 C.ar      1 GIP300      0.0000 
     30 CZ         -4.4180    9.6400   33.2240 C.ar      1 GIP300      0.0000 
     31 H          -3.0424   -1.0248   37.5688 H         1 GIP300      0.0000 
     32 H          -0.2806    0.0836   36.9449 H         1 GIP300      0.0000 
     33 H          -1.4322    0.8416   38.0581 H         1 GIP300      0.0000 
     34 H          -5.7971    2.8441   33.4255 H         1 GIP300      0.0000 
     35 H          -6.8701    3.8485   34.4154 H         1 GIP300      0.0000 
     36 H          -2.0746    0.2256   35.1273 H         1 GIP300      0.0000 
     37 H          -1.3765    1.7686   35.6487 H         1 GIP300      0.0000 
     38 H          -3.6667    2.3594   34.3812 H         1 GIP300      0.0000 
     39 H          -5.3563    3.4456   36.3745 H         1 GIP300      0.0000 
     40 H          -7.3387    3.0080   37.3226 H         1 GIP300      0.0000 
     41 H          -8.1567    0.3475   37.8485 H         1 GIP300      0.0000 
     42 H          -9.1103    0.9145   36.4668 H         1 GIP300      0.0000 
     43 H          -3.3984    4.8543   32.2108 H         1 GIP300      0.0000 
     44 H          -6.7469    7.3901   32.5656 H         1 GIP300      0.0000 
     45 H          -2.6796    7.4045   31.5146 H         1 GIP300      0.0000 
     46 H          -6.4565    9.5247   33.6972 H         1 GIP300      0.0000 
     47 H          -2.4030    9.5325   32.6566 H         1 GIP300      0.0000 
     48 H          -4.2908   10.5786   33.7100 H         1 GIP300      0.0000 
     49 H          -0.4732   -1.4326   38.8789 H         1 GIP300      0.0000 
     50 H          -1.9434   -1.3909   39.5293 H         1 GIP300      0.0000 
     51 H          -1.4410   -2.7116   38.7612 H         1 GIP300      0.0000 
     52 H          -3.9057    3.4210   31.5827 H         1 GIP300      0.0000 
@<TRIPOS>BOND
     1    2    1 ar   
     2    3    1 ar   
     3    5    1 1    
     4    5    4 1    
     5   49    4 1    
     6   50    4 1    
     7   51    4 1    
     8    6    5 1    
     9   31    5 1    
    10    9    6 1    
    11   32    6 1    
    12   33    6 1    
    13    8    7 1    
    14   13    7 1    
    15   34    7 1    
    16   35    7 1    
    17   23    8 1    
    18   10    9 1    
    19   36    9 1    
    20   37    9 1    
    21   11   10 2    
    22   12   10 am   
    23   13   12 1    
    24   38   12 1    
    25   14   13 1    
    26   39   13 1    
    27   15   14 2    
    28   16   14 am   
    29   17   16 1    
    30   40   16 1    
    31   18   17 1    
    32   41   17 1    
    33   42   17 1    
    34   19   18 ar   
    35   20   18 ar   
    36   22   21 1    
    37   23   21 1    
    38   25   21 1    
    39   24   23 1    
    40   43   23 1    
    41   52   24 1    
    42   26   25 ar   
    43   27   25 ar   
    44   28   26 ar   
    45   44   26 1    
    46   29   27 ar   
    47   45   27 1    
    48   30   28 ar   
    49   46   28 1    
    50   30   29 ar   
    51   47   29 1    
    52   48   30 1    
@<TRIPOS>SUBSTRUCTURE
     1 GIP300      1 GROUP   
@<TRIPOS>SET

