#    Name: 1oyy_AGS_1_INTS_M
#    Modification time : Mon Mar 24 20:47:17 2014

@<TRIPOS>MOLECULE
1oyy_AGS_1_INTS_M
   63     0    15     0     0
SMALL
NO_CHARGES


@<TRIPOS>ATOM
      1 CA         12.4645   -7.9525   17.8460 C.3       5 GLC5        0.0000 
      2 CA         13.3620   -6.1100   18.0030 C.3      15 GLL5        0.0000 
      3 CA         11.5670   -9.7950   17.6890 C.3      10 GLP5        0.0000 
      4 NZ         10.8240   -6.3415   15.3845 N.4       3 LYC4        0.0000 
      5 NZ         11.2600   -5.9080   16.8670 N.4      13 LYL4        0.0000 
      6 NZ         10.3880   -6.7750   13.9020 N.4       8 LYP4        0.0000 
      7 N          10.9380   -7.3065   17.3395 N.am      2 SEC2        0.0000 
      8 N          11.2600   -5.9080   16.8670 N.am     12 SEL2        0.0000 
      9 N          10.6160   -8.7050   17.8120 N.am      7 SEP2        0.0000 
     10 N          10.8240   -6.3415   15.3845 N.am      2 SEC2        0.0000 
     11 N          10.3880   -6.7750   13.9020 N.am      7 SEP2        0.0000 
     12 NZ         11.8030   -5.9390   14.8525 N.4       3 LYC4        0.0000 
     13 NZ         13.2180   -5.1030   15.8030 N.4      13 LYL4        0.0000 
     14 NZ         11.1410   -7.9585   14.1560 N.4       3 LYC4        0.0000 
     15 NZ         11.8940   -9.1420   14.4100 N.4      13 LYL4        0.0000 
     16 N          11.6435  -10.4195   14.0525 N.am      2 SEC2        0.0000 
     17 N          11.8940   -9.1420   14.4100 N.am     12 SEL2        0.0000 
     18 N          11.3930  -11.6970   13.6950 N.am      7 SEP2        0.0000 
     19 N          12.3220   -9.6265   13.0415 N.am      2 SEC2        0.0000 
     20 N          12.7500  -10.1110   11.6730 N.am      7 SEP2        0.0000 
     21 N          11.1410   -7.9585   14.1560 N.am      2 SEC2        0.0000 
     22 NZ         12.0545   -7.3635   13.6940 N.4       3 LYC4        0.0000 
     23 NZ         13.7210   -7.9520   13.4860 N.4      13 LYL4        0.0000 
     24 Zn         14.5115   -7.0335   13.5855 Zn        4 ZIC7        0.0000 
     25 Zn         13.7210   -7.9520   13.4860 Zn       14 ZIL7        0.0000 
     26 Zn         15.3020   -6.1150   13.6850 Zn        9 ZIP7        0.0000 
     27 N          13.2355   -9.0315   12.5795 N.am      2 SEC2        0.0000 
     28 N          13.7210   -7.9520   13.4860 N.am     12 SEL2        0.0000 
     29 N          15.1580   -9.7235   11.5180 N.am      2 SEC2        0.0000 
     30 N          15.1240  -10.0080   12.8200 N.am     12 SEL2        0.0000 
     31 N          15.1920   -9.4390   10.2160 N.am      7 SEP2        0.0000 
     32 N          16.1695   -9.5560   12.2530 N.am      2 SEC2        0.0000 
     33 N          17.2150   -9.1040   11.6860 N.am      7 SEP2        0.0000 
     34 CA         13.6830  -12.2535   14.3375 C.3       5 GLC5        0.0000 
     35 CA         15.0800  -12.2220   15.9630 C.3      15 GLL5        0.0000 
     36 CA         12.2860  -12.2850   12.7120 C.3      10 GLP5        0.0000 
     37 N          13.0825  -14.9790   15.4025 N.am      2 SEC2        0.0000 
     38 N          14.5030  -14.5710   15.4680 N.am     12 SEL2        0.0000 
     39 N          11.6620  -15.3870   15.3370 N.am      7 SEP2        0.0000 
     40 N          17.7225  -16.0745   13.9340 N.am      2 SEC2        0.0000 
     41 N          17.2730  -14.7110   13.4670 N.am     12 SEL2        0.0000 
     42 N          18.1720  -17.4380   14.4010 N.am      7 SEP2        0.0000 
     43 N          12.6590  -15.3910   10.8050 N.am      2 SEC2        0.0000 
     44 N          13.5070  -15.9970   11.7940 N.am     12 SEL2        0.0000 
     45 N          11.8110  -14.7850    9.8160 N.am      7 SEP2        0.0000 
     46 CA         11.4890  -16.9410   13.1630 C.3       5 GLC5        0.0000 
     47 CA         13.3870  -17.1910   12.3240 C.3      15 GLL5        0.0000 
     48 CA          9.5910  -16.6910   14.0020 C.3      10 GLP5        0.0000 
     49 CA         14.0555  -19.8365   11.6465 C.3       5 GLC5        0.0000 
     50 CA         12.6570  -18.2760   11.9050 C.3      15 GLL5        0.0000 
     51 CA         15.4540  -21.3970   11.3880 C.3      10 GLP5        0.0000 
     52 CA         10.8620  -17.9385   12.4050 C.3       5 GLC5        0.0000 
     53 CA          9.0670  -17.6010   12.9050 C.3      10 GLP5        0.0000 
     54 O          11.2685  -17.5390   10.1435 O.2       1 ALC1        0.0000 
     55 O          11.8700  -18.3840   10.8430 O.2      11 ALL1        0.0000 
     56 O          10.6670  -16.6940    9.4440 O.2       6 ALP1        0.0000 
     57 CA         14.4840  -20.3790   12.6010 C.3       5 GLC5        0.0000 
     58 CA         13.5140  -19.3610   13.8140 C.3      15 GLL5        0.0000 
     59 CA         16.7497  -16.8193   14.2237 C.3       5 GLC5        0.0000 
     60 CA         15.2980  -15.5430   14.8560 C.3      15 GLL5        0.0000 
     61 CA         17.5120  -18.3950   13.6650 C.3      10 GLP5        0.0000 
     62 CA         14.0225  -16.9742   10.6103 C.3       5 GLC5        0.0000 
     63 CA         15.0230  -16.2150    9.1060 C.3      10 GLP5        0.0000 
@<TRIPOS>BOND
@<TRIPOS>SUBSTRUCTURE
     1 ALC1       54 GROUP        1 X    ALC  0     ROOT ALC X 1
     2 SEC2        7 GROUP        1 X    SEC  0     **** SEC X 2
     3 LYC4        4 GROUP        1 X    LYC  0     **** LYC X 4
     4 ZIC7       24 GROUP        1 X    ZIC  0     **** ZIC X 5
     5 GLC5        1 GROUP        1 X    GLC  0     **** GLC X 6
     6 ALP1       56 GROUP        1 Y    ALP  0     ROOT ALP Y 8
     7 SEP2        9 GROUP        1 Y    SEP  0     **** SEP Y 9
     8 LYP4        6 GROUP        1 Y    LYP  0     **** LYP Y 11
     9 ZIP7       26 GROUP        1 Y    ZIP  0     **** ZIP Y 12
    10 GLP5        3 GROUP        1 Y    GLP  0     **** GLP Y 13
    11 ALL1       55 GROUP        1 Z    ALL  0     ROOT ALL Z 15
    12 SEL2        8 GROUP        1 Z    SEL  0     **** SEL Z 16
    13 LYL4        5 GROUP        1 Z    LYL  0     **** LYL Z 18
    14 ZIL7       25 GROUP        1 Z    ZIL  0     **** ZIL Z 19
    15 GLL5        2 GROUP        1 Z    GLL  0     **** GLL Z 20
@<TRIPOS>SET

