#    Name: 1oyy_AGS_1_ligand
#    Modification time : Mon Mar 24 20:47:17 2014

@<TRIPOS>MOLECULE
1oyy_AGS_1_ligand
   42    44     1     0     0
SMALL
NO_CHARGES


@<TRIPOS>ATOM
      1 PG         12.6950   -6.2010   16.6740 P.3       1 AGS527      0.0000 
      2 S1G        13.3620   -6.1100   18.0030 S.3       1 AGS527      0.0000 
      3 O2G        11.2600   -5.9080   16.8670 O.co2     1 AGS527      0.0000 
      4 O3G        13.2180   -5.1030   15.8030 O.co2     1 AGS527      0.0000 
      5 PB         13.1600   -8.4780   14.7440 P.3       1 AGS527      0.0000 
      6 O1B        11.8940   -9.1420   14.4100 O.co2     1 AGS527      0.0000 
      7 O2B        13.7210   -7.9520   13.4860 O.co2     1 AGS527      0.0000 
      8 O3B        13.0990   -7.5930   16.0430 O.3       1 AGS527      0.0000 
      9 PA         15.3050  -10.3660   14.2420 P.3       1 AGS527      0.0000 
     10 O1A        15.1240  -10.0080   12.8200 O.co2     1 AGS527      0.0000 
     11 O2A        16.6950  -10.1730   14.7060 O.co2     1 AGS527      0.0000 
     12 O3A        14.2770   -9.5490   15.2010 O.3       1 AGS527      0.0000 
     13 O5'        14.8140  -11.8380   14.5980 O.3       1 AGS527      0.0000 
     14 C5'        15.0800  -12.2220   15.9630 C.3       1 AGS527      0.0000 
     15 C4'        15.3400  -13.6660   16.2030 C.3       1 AGS527      0.0000 
     16 O4'        14.5030  -14.5710   15.4680 O.3       1 AGS527      0.0000 
     17 C3'        16.7680  -14.1680   16.0260 C.3       1 AGS527      0.0000 
     18 O3'        16.9180  -15.1510   17.1040 O.3       1 AGS527      0.0000 
     19 C2'        16.6770  -14.9440   14.7090 C.3       1 AGS527      0.0000 
     20 O2'        17.2730  -14.7110   13.4670 O.3       1 AGS527      0.0000 
     21 C1'        15.2980  -15.5430   14.8560 C.3       1 AGS527      0.0000 
     22 N9         14.7640  -16.0990   13.6400 N.pl3     1 AGS527      0.0000 
     23 C8         14.3120  -15.3980   12.5650 C.2       1 AGS527      0.0000 
     24 N7         13.5070  -15.9970   11.7940 N.2       1 AGS527      0.0000 
     25 C5         13.3870  -17.1910   12.3240 C.ar      1 AGS527      0.0000 
     26 C6         12.6570  -18.2760   11.9050 C.ar      1 AGS527      0.0000 
     27 N6         11.8700  -18.3840   10.8430 N.pl3     1 AGS527      0.0000 
     28 N1         12.7310  -19.3830   12.6800 N.ar      1 AGS527      0.0000 
     29 C2         13.5140  -19.3610   13.8140 C.ar      1 AGS527      0.0000 
     30 N3         14.2700  -18.3840   14.2710 N.ar      1 AGS527      0.0000 
     31 C4         14.1490  -17.3190   13.4680 C.ar      1 AGS527      0.0000 
     32 H          14.2243  -11.9048   16.6239 H         1 AGS527      0.0000 
     33 H          15.9562  -11.6366   16.3618 H         1 AGS527      0.0000 
     34 H          15.1137  -13.8691   17.3120 H         1 AGS527      0.0000 
     35 H          17.4248  -13.4363   16.0051 H         1 AGS527      0.0000 
     36 H          17.2899  -15.9951   15.1436 H         1 AGS527      0.0000 
     37 H          15.4402  -16.3875   15.6005 H         1 AGS527      0.0000 
     38 H          14.6378  -14.4273   12.4263 H         1 AGS527      0.0000 
     39 H          13.4893  -20.2939   14.4004 H         1 AGS527      0.0000 
     40 H          17.3186  -15.9559   16.6662 H         1 AGS527      0.0000 
     41 H          16.5415  -14.8486   12.7991 H         1 AGS527      0.0000 
     42 H          11.6519  -17.4426   10.5858 H         1 AGS527      0.0000 
@<TRIPOS>BOND
     1    2    1 1    
     2    3    1 ar   
     3    4    1 ar   
     4    8    1 1    
     5    6    5 ar   
     6    7    5 ar   
     7    8    5 1    
     8   12    5 1    
     9   10    9 ar   
    10   11    9 ar   
    11   12    9 1    
    12   13    9 1    
    13   14   13 1    
    14   15   14 1    
    15   32   14 1    
    16   33   14 1    
    17   16   15 1    
    18   17   15 1    
    19   34   15 1    
    20   21   16 1    
    21   18   17 1    
    22   19   17 1    
    23   35   17 1    
    24   40   18 1    
    25   20   19 1    
    26   21   19 1    
    27   36   19 1    
    28   41   20 1    
    29   22   21 1    
    30   37   21 1    
    31   23   22 1    
    32   31   22 1    
    33   24   23 2    
    34   38   23 1    
    35   25   24 1    
    36   26   25 ar   
    37   31   25 ar   
    38   27   26 1    
    39   28   26 ar   
    40   42   27 1    
    41   29   28 ar   
    42   30   29 ar   
    43   39   29 1    
    44   31   30 ar   
@<TRIPOS>SUBSTRUCTURE
     1 AGS527      1 GROUP   
@<TRIPOS>SET

