#    Name: 4h7c_10H_1_INTS_M
#    Modification time : Tue Mar 25 00:33:54 2014

@<TRIPOS>MOLECULE
4h7c_10H_1_INTS_M
   40     0     6     0     0
SMALL
NO_CHARGES


@<TRIPOS>ATOM
      1 CA         -4.9255    7.5820   12.7800 C.3       2 GLC5        0.0000 
      2 CA         -4.6400    8.3990   14.3740 C.3       6 GLL5        0.0000 
      3 CA         -5.2110    6.7650   11.1860 C.3       4 GLP5        0.0000 
      4 CA         -6.2870    7.9510   14.6525 C.3       2 GLC5        0.0000 
      5 CA         -7.9340    7.5030   14.9310 C.3       4 GLP5        0.0000 
      6 CA         -1.7930   12.8055   16.2240 C.3       2 GLC5        0.0000 
      7 CA         -2.3950   11.1520   15.5370 C.3       6 GLL5        0.0000 
      8 CA         -1.1910   14.4590   16.9110 C.3       4 GLP5        0.0000 
      9 N          -1.3495    8.5795   19.0485 N.am      1 SEC2        0.0000 
     10 N          -1.8260    7.8730   18.0500 N.am      5 SEL2        0.0000 
     11 N          -0.8730    9.2860   20.0470 N.am      3 SEP2        0.0000 
     12 CA         -0.9295    0.6850   13.2180 C.3       2 GLC5        0.0000 
     13 CA         -2.9410    1.0620   12.4700 C.3       6 GLL5        0.0000 
     14 CA          1.0820    0.3080   13.9660 C.3       4 GLP5        0.0000 
     15 CA         -4.3432   10.6280   17.5248 C.3       2 GLC5        0.0000 
     16 CA         -4.6300    9.2330   15.7280 C.3       6 GLL5        0.0000 
     17 CA         -3.9540   11.2860   19.5040 C.3       4 GLP5        0.0000 
     18 CA         -6.3693    9.4050   15.4443 C.3       2 GLC5        0.0000 
     19 CA         -4.8350   10.7070   15.3630 C.3       6 GLL5        0.0000 
     20 CA         -8.0060    8.8400   15.3430 C.3       4 GLP5        0.0000 
     21 CA         -5.3492   12.5453   15.5723 C.3       2 GLC5        0.0000 
     22 CA         -6.4610   14.0630   16.1180 C.3       4 GLP5        0.0000 
     23 CA         -3.1058   12.6350   13.7668 C.3       2 GLC5        0.0000 
     24 CA         -3.6400   11.3480   14.6900 C.3       6 GLL5        0.0000 
     25 CA         -3.1940   14.0200   12.4200 C.3       4 GLP5        0.0000 
     26 CA         -3.1035   10.8487   17.5727 C.3       2 GLC5        0.0000 
     27 CA         -0.3425   10.5548   16.0288 C.3       2 GLC5        0.0000 
     28 CA          1.5680   10.6980   16.4160 C.3       4 GLP5        0.0000 
     29 CA          0.0373    4.8518   16.2005 C.3       2 GLC5        0.0000 
     30 CA         -1.9680    4.6620   14.9890 C.3       6 GLL5        0.0000 
     31 CA          2.0320    4.4530   17.0210 C.3       4 GLP5        0.0000 
     32 CA         -2.4728    2.8745   16.0114 C.3       2 GLC5        0.0000 
     33 CA         -2.0900    1.3350   16.9660 C.3       4 GLP5        0.0000 
     34 CA         -3.1742    1.3057   15.3823 C.3       2 GLC5        0.0000 
     35 CA         -4.3840    1.8880   14.2650 C.3       6 GLL5        0.0000 
     36 CA         -3.7255   -0.6402   12.0805 C.3       2 GLC5        0.0000 
     37 CA         -4.1330    0.6650   13.3320 C.3       6 GLL5        0.0000 
     38 CA         -3.9140   -2.1440   11.2600 C.3       4 GLP5        0.0000 
     39 CA         -5.3584    1.2311   12.7036 C.3       2 GLC5        0.0000 
     40 CA         -7.1170    1.2930   12.2730 C.3       4 GLP5        0.0000 
@<TRIPOS>BOND
@<TRIPOS>SUBSTRUCTURE
     1 SEC2        9 GROUP        1 X    SEC  0     ROOT SEC X 2
     2 GLC5        1 GROUP        1 X    GLC  0     **** GLC X 6
     3 SEP2       11 GROUP        1 Y    SEP  0     ROOT SEP Y 9
     4 GLP5        3 GROUP        1 Y    GLP  0     **** GLP Y 13
     5 SEL2       10 GROUP        1 Z    SEL  0     ROOT SEL Z 16
     6 GLL5        2 GROUP        1 Z    GLL  0     **** GLL Z 20
@<TRIPOS>SET

