#    Name: 4h7c_10H_1_ligand
#    Modification time : Tue Mar 25 00:33:54 2014

@<TRIPOS>MOLECULE
4h7c_10H_1_ligand
   42    44     1     0     0
SMALL
NO_CHARGES


@<TRIPOS>ATOM
      1 CAA        -4.6400    8.3990   14.3740 C.3       1 10H402      0.0000 
      2 CAS        -4.6300    9.2330   15.7280 C.3       1 10H402      0.0000 
      3 CAM        -4.8350   10.7070   15.3630 C.3       1 10H402      0.0000 
      4 CAI        -3.6400   11.3480   14.6900 C.3       1 10H402      0.0000 
      5 CAJ        -2.3950   11.1520   15.5370 C.3       1 10H402      0.0000 
      6 CAO        -2.1110    9.6710   15.7460 C.3       1 10H402      0.0000 
      7 NAU        -3.2800    8.8650   16.1380 N.pl3     1 10H402      0.0000 
      8 SAV        -3.1680    7.7530   17.3670 S.o2      1 10H402      0.0000 
      9 OAC        -1.8260    7.8730   18.0500 O.2       1 10H402      0.0000 
     10 OAD        -4.3730    7.6700   18.2070 O.2       1 10H402      0.0000 
     11 CAR        -3.1400    6.2780   16.3750 C.ar      1 10H402      0.0000 
     12 CAH        -4.3150    5.5490   16.2230 C.ar      1 10H402      0.0000 
     13 CAF        -4.3350    4.3840   15.4420 C.ar      1 10H402      0.0000 
     14 CAG        -1.9470    5.8390   15.7710 C.ar      1 10H402      0.0000 
     15 CAE        -1.9680    4.6620   14.9890 C.ar      1 10H402      0.0000 
     16 CAQ        -3.1510    3.9480   14.8070 C.ar      1 10H402      0.0000 
     17 NAT        -3.2550    2.8050   14.0620 N.am      1 10H402      0.0000 
     18 CAN        -4.3840    1.8880   14.2650 C.2       1 10H402      0.0000 
     19 CAK        -4.1330    0.6650   13.3320 C.2       1 10H402      0.0000 
     20 CAL        -2.9410    1.0620   12.4700 C.3       1 10H402      0.0000 
     21 CAP        -2.4640    2.3830   13.0770 C.2       1 10H402      0.0000 
     22 OAB        -1.3980    2.9280   12.7470 O.2       1 10H402      0.0000 
     23 H          -5.3596    8.8392   16.3237 H         1 10H402      0.0000 
     24 H          -5.0793   11.2663   16.2827 H         1 10H402      0.0000 
     25 H          -5.7134   10.7861   14.6993 H         1 10H402      0.0000 
     26 H          -3.8236   12.4130   14.5604 H         1 10H402      0.0000 
     27 H          -3.4861   10.8939   13.7128 H         1 10H402      0.0000 
     28 H          -2.5371   11.6309   16.5061 H         1 10H402      0.0000 
     29 H          -1.5422   11.6148   15.0399 H         1 10H402      0.0000 
     30 H          -1.3105    9.5786   16.5140 H         1 10H402      0.0000 
     31 H          -1.6695    9.2688   14.8066 H         1 10H402      0.0000 
     32 H          -5.1800    5.8630   16.6856 H         1 10H402      0.0000 
     33 H          -5.1979    3.8514   15.3305 H         1 10H402      0.0000 
     34 H          -1.0837    6.3577   15.8935 H         1 10H402      0.0000 
     35 H          -1.0949    4.3353   14.5523 H         1 10H402      0.0000 
     36 H          -5.0907    1.9668   14.7982 H         1 10H402      0.0000 
     37 H          -4.5863   -0.0741   13.3215 H         1 10H402      0.0000 
     38 H          -3.2557    1.2218   11.4685 H         1 10H402      0.0000 
     39 H          -2.1742    0.3323   12.5544 H         1 10H402      0.0000 
     40 H          -3.9150    8.6932   13.7512 H         1 10H402      0.0000 
     41 H          -4.5062    7.4218   14.5387 H         1 10H402      0.0000 
     42 H          -5.5058    8.4977   13.8834 H         1 10H402      0.0000 
@<TRIPOS>BOND
     1    2    1 1    
     2   40    1 1    
     3   41    1 1    
     4   42    1 1    
     5    3    2 1    
     6    7    2 1    
     7   23    2 1    
     8    4    3 1    
     9   24    3 1    
    10   25    3 1    
    11    5    4 1    
    12   26    4 1    
    13   27    4 1    
    14    6    5 1    
    15   28    5 1    
    16   29    5 1    
    17    7    6 1    
    18   30    6 1    
    19   31    6 1    
    20    8    7 1    
    21    9    8 2    
    22   10    8 2    
    23   11    8 1    
    24   12   11 ar   
    25   14   11 ar   
    26   13   12 ar   
    27   32   12 1    
    28   16   13 ar   
    29   33   13 1    
    30   15   14 ar   
    31   34   14 1    
    32   16   15 ar   
    33   35   15 1    
    34   17   16 1    
    35   18   17 1    
    36   21   17 am   
    37   19   18 2    
    38   36   18 1    
    39   20   19 1    
    40   37   19 1    
    41   21   20 1    
    42   38   20 1    
    43   39   20 1    
    44   22   21 2    
@<TRIPOS>SUBSTRUCTURE
     1 10H402      1 GROUP   
@<TRIPOS>SET

