#    Name: 2yk9_YK9_1_INTS_M
#    Modification time : Mon Apr  7 18:22:31 2014

@<TRIPOS>MOLECULE
2yk9_YK9_1_INTS_M
   46     0     9     0     0
SMALL
NO_CHARGES


@<TRIPOS>ATOM
      1 CA         10.9760   14.7920   30.2270 C.3       3 GLC5        0.0000 
      2 CA         11.5690   14.6830   28.1450 C.3       9 GLL5        0.0000 
      3 CA         10.3830   14.9010   32.3090 C.3       6 GLP5        0.0000 
      4 CA         13.4225   13.5765   24.5340 C.3       3 GLC5        0.0000 
      5 CA         12.1460   14.4460   25.4870 C.3       9 GLL5        0.0000 
      6 CA         14.6990   12.7070   23.5810 C.3       6 GLP5        0.0000 
      7 CA          9.3335   12.7235   27.4730 C.3       3 GLC5        0.0000 
      8 CA         10.5450   14.5280   27.2130 C.3       9 GLL5        0.0000 
      9 CA          8.1220   10.9190   27.7330 C.3       6 GLP5        0.0000 
     10 CA          7.6650   12.5940   26.7625 C.3       3 GLC5        0.0000 
     11 CA          7.2080   14.2690   25.7920 C.3       9 GLL5        0.0000 
     12 O           9.0220   14.6915   28.6685 O.2       1 ALC1        0.0000 
     13 O           9.1650   14.4930   27.3340 O.2       7 ALL1        0.0000 
     14 O           8.8790   14.8900   30.0030 O.2       4 ALP1        0.0000 
     15 N           9.8005   14.8405   23.9910 N.am      2 SEC2        0.0000 
     16 N           9.6050   14.2430   25.1550 N.am      8 SEL2        0.0000 
     17 N           9.9960   15.4380   22.8270 N.am      5 SEP2        0.0000 
     18 CA          7.2305    9.6195   25.0147 C.3       3 GLC5        0.0000 
     19 CA          8.5650   10.3360   23.4420 C.3       9 GLL5        0.0000 
     20 CA          6.4340    9.2000   26.9100 C.3       6 GLP5        0.0000 
     21 CA          8.6590    8.2100   23.6073 C.3       3 GLC5        0.0000 
     22 CA          9.2910    6.3810   24.0950 C.3       6 GLP5        0.0000 
     23 CA         10.4327   11.0410   23.6445 C.3       3 GLC5        0.0000 
     24 CA         12.3820   11.1520   23.4940 C.3       6 GLP5        0.0000 
     25 CA          9.1720    9.3830   21.5287 C.3       3 GLC5        0.0000 
     26 CA         10.3170    8.7270   19.9380 C.3       6 GLP5        0.0000 
     27 CA          7.9458   11.3680   25.9593 C.3       3 GLC5        0.0000 
     28 CA          8.4020   11.5240   24.1480 C.3       9 GLL5        0.0000 
     29 CA          6.2835   10.0462   25.0707 C.3       3 GLC5        0.0000 
     30 CA          6.0390   11.4810   23.5950 C.3       9 GLL5        0.0000 
     31 CA          5.3835   11.7352   21.7717 C.3       3 GLC5        0.0000 
     32 CA          4.6340   12.5780   20.3120 C.3       6 GLP5        0.0000 
     33 CA         11.9275   12.7845   24.5812 C.3       3 GLC5        0.0000 
     34 CA          5.0085   15.4398   28.0083 C.3       3 GLC5        0.0000 
     35 CA          6.4000   15.2490   26.3950 C.3       9 GLL5        0.0000 
     36 CA          4.3030   15.6120   29.7330 C.3       6 GLP5        0.0000 
     37 CA          3.5492   13.6570   26.9473 C.3       3 GLC5        0.0000 
     38 CA          5.0280   15.2860   26.1720 C.3       9 GLL5        0.0000 
     39 CA          2.3640   12.4900   28.1440 C.3       6 GLP5        0.0000 
     40 CA          3.5447   16.3930   25.1648 C.3       3 GLC5        0.0000 
     41 CA          4.4410   14.3620   25.3290 C.3       9 GLL5        0.0000 
     42 CA          2.3550   17.9620   24.5790 C.3       6 GLP5        0.0000 
     43 CA         12.1399   12.9142   27.2274 C.3       3 GLC5        0.0000 
     44 CA         12.8540   11.3140   27.8430 C.3       6 GLP5        0.0000 
     45 CA          5.5520   12.9344   26.8304 C.3       3 GLC5        0.0000 
     46 CA          5.6530   11.3090   27.9770 C.3       6 GLP5        0.0000 
@<TRIPOS>BOND
@<TRIPOS>SUBSTRUCTURE
     1 ALC1       12 GROUP        1 X    ALC  0     ROOT ALC X 1
     2 SEC2       15 GROUP        1 X    SEC  0     **** SEC X 2
     3 GLC5        1 GROUP        1 X    GLC  0     **** GLC X 6
     4 ALP1       14 GROUP        1 Y    ALP  0     ROOT ALP Y 8
     5 SEP2       17 GROUP        1 Y    SEP  0     **** SEP Y 9
     6 GLP5        3 GROUP        1 Y    GLP  0     **** GLP Y 13
     7 ALL1       13 GROUP        1 Z    ALL  0     ROOT ALL Z 15
     8 SEL2       16 GROUP        1 Z    SEL  0     **** SEL Z 16
     9 GLL5        2 GROUP        1 Z    GLL  0     **** GLL Z 20
@<TRIPOS>SET

