#    Name: 2yk9_YK9_1_ligand
#    Modification time : Mon Apr  7 18:22:31 2014

@<TRIPOS>MOLECULE
2yk9_YK9_1_ligand
   34    38     1     0     0
SMALL
NO_CHARGES


@<TRIPOS>ATOM
      1 C15         8.5650   10.3360   23.4420 C.ar      1 YK91224     0.0000 
      2 C19         7.4890    9.7420   22.7970 C.ar      1 YK91224     0.0000 
      3 C8          8.4020   11.5240   24.1480 C.ar      1 YK91224     0.0000 
      4 C14         6.2270   10.3040   22.8680 C.ar      1 YK91224     0.0000 
      5 C20        11.5690   14.6830   28.1450 C.ar      1 YK91224     0.0000 
      6 C22        12.8560   14.7080   27.6500 C.ar      1 YK91224     0.0000 
      7 C21        12.1460   14.4460   25.4870 C.ar      1 YK91224     0.0000 
      8 C3          7.1370   12.1100   24.2230 C.ar      1 YK91224     0.0000 
      9 C7          6.0390   11.4810   23.5950 C.ar      1 YK91224     0.0000 
     10 C17        10.5450   14.5280   27.2130 C.ar      1 YK91224     0.0000 
     11 C18        10.8000   14.3880   25.8500 C.ar      1 YK91224     0.0000 
     12 C5          8.6590   14.3160   26.0820 C.2       1 YK91224     0.0000 
     13 C1          6.6390   13.3040   24.9400 C.ar      1 YK91224     0.0000 
     14 C9          4.7970   12.2440   23.8900 C.2       1 YK91224     0.0000 
     15 C2          7.2080   14.2690   25.7920 C.ar      1 YK91224     0.0000 
     16 C6          6.4000   15.2490   26.3950 C.ar      1 YK91224     0.0000 
     17 C13         5.0280   15.2860   26.1720 C.ar      1 YK91224     0.0000 
     18 C10         4.4410   14.3620   25.3290 C.ar      1 YK91224     0.0000 
     19 N23        13.1530   14.5980   26.3500 N.ar      1 YK91224     0.0000 
     20 N11         9.1650   14.4930   27.3340 N.pl3     1 YK91224     0.0000 
     21 C30         5.2310   13.3810   24.7390 C.ar      1 YK91224     0.0000 
     22 N12         9.6050   14.2430   25.1550 N.2       1 YK91224     0.0000 
     23 O16         3.6480   11.9920   23.5050 O.2       1 YK91224     0.0000 
     24 H           9.4974    9.8926   23.3984 H         1 YK91224     0.0000 
     25 H           7.6343    8.8709   22.2587 H         1 YK91224     0.0000 
     26 H           9.2014   11.9662   24.6092 H         1 YK91224     0.0000 
     27 H           5.4325    9.8643   22.3927 H         1 YK91224     0.0000 
     28 H          11.3724   14.7716   29.1278 H         1 YK91224     0.0000 
     29 H          13.6453   14.8218   28.3551 H         1 YK91224     0.0000 
     30 H          12.3593   14.3609   24.4447 H         1 YK91224     0.0000 
     31 H           6.8397   15.9509   27.0134 H         1 YK91224     0.0000 
     32 H           4.4535   16.0028   26.6365 H         1 YK91224     0.0000 
     33 H           3.4348   14.3955   25.1378 H         1 YK91224     0.0000 
     34 H           8.6783   14.5776   28.1423 H         1 YK91224     0.0000 
@<TRIPOS>BOND
     1    2    1 ar   
     2    3    1 ar   
     3   24    1 1    
     4    4    2 ar   
     5   25    2 1    
     6    8    3 ar   
     7   26    3 1    
     8    9    4 ar   
     9   27    4 1    
    10    6    5 ar   
    11   10    5 ar   
    12   28    5 1    
    13   19    6 ar   
    14   29    6 1    
    15   11    7 ar   
    16   19    7 ar   
    17   30    7 1    
    18    9    8 ar   
    19   13    8 1    
    20   14    9 1    
    21   11   10 ar   
    22   20   10 1    
    23   22   11 1    
    24   15   12 1    
    25   20   12 1    
    26   22   12 2    
    27   15   13 ar   
    28   21   13 ar   
    29   21   14 1    
    30   23   14 2    
    31   16   15 ar   
    32   17   16 ar   
    33   31   16 1    
    34   18   17 ar   
    35   32   17 1    
    36   21   18 ar   
    37   33   18 1    
    38   34   20 1    
@<TRIPOS>SUBSTRUCTURE
     1 YK91224     1 GROUP   
@<TRIPOS>SET

