#    Name: 1ppr_PID_24_INTS_M
#    Modification time : Mon Mar 24 22:04:13 2014

@<TRIPOS>MOLECULE
1ppr_PID_24_INTS_M
  109     0     9     0     0
SMALL
NO_CHARGES


@<TRIPOS>ATOM
      1 CA         52.6255   89.5330   30.2845 C.3       3 GLC5        0.0000 
      2 CA         52.7720   91.4120   29.4590 C.3       9 GLL5        0.0000 
      3 CA         52.4790   87.6540   31.1100 C.3       6 GLP5        0.0000 
      4 CA         51.8755   94.6600   28.8125 C.3       3 GLC5        0.0000 
      5 CA         51.8360   92.5300   28.9960 C.3       9 GLL5        0.0000 
      6 CA         51.9150   96.7900   28.6290 C.3       6 GLP5        0.0000 
      7 CA         52.2895   92.6090   24.6575 C.3       3 GLC5        0.0000 
      8 CA         50.8700   91.4300   25.4570 C.3       9 GLL5        0.0000 
      9 CA         53.7090   93.7880   23.8580 C.3       6 GLP5        0.0000 
     10 CA         49.1125   89.3250   26.1900 C.3       3 GLC5        0.0000 
     11 CA         50.3090   90.3800   24.7250 C.3       9 GLL5        0.0000 
     12 CA         47.9160   88.2700   27.6550 C.3       6 GLP5        0.0000 
     13 CA         48.4510   89.2445   11.3390 C.3       3 GLC5        0.0000 
     14 CA         47.1480   87.9190   11.9630 C.3       9 GLL5        0.0000 
     15 CA         49.7540   90.5700   10.7150 C.3       6 GLP5        0.0000 
     16 CA         47.4990   89.3075    9.8025 C.3       3 GLC5        0.0000 
     17 CA         46.2440   87.5770    9.7690 C.3       9 GLL5        0.0000 
     18 CA         48.7540   91.0380    9.8360 C.3       6 GLP5        0.0000 
     19 CA         42.2875   82.5580    7.0215 C.3       3 GLC5        0.0000 
     20 CA         43.9050   83.9620    7.5650 C.3       9 GLL5        0.0000 
     21 CA         40.6700   81.1540    6.4780 C.3       6 GLP5        0.0000 
     22 CA         47.4965   82.6775    7.4475 C.3       3 GLC5        0.0000 
     23 CA         46.2820   83.8010    6.7460 C.3       9 GLL5        0.0000 
     24 CA         48.7110   81.5540    8.1490 C.3       6 GLP5        0.0000 
     25 CA         48.3675   84.2495    6.9740 C.3       3 GLC5        0.0000 
     26 CA         46.4490   85.3330    6.7390 C.3       9 GLL5        0.0000 
     27 CA         50.2860   83.1660    7.2090 C.3       6 GLP5        0.0000 
     28 CA         42.7240   80.3995    6.1820 C.3       3 GLC5        0.0000 
     29 CA         44.7780   79.6450    5.8860 C.3       9 GLL5        0.0000 
     30 CA         46.8125   80.0675    5.4650 C.3       3 GLC5        0.0000 
     31 CA         48.8470   80.4900    5.0440 C.3       6 GLP5        0.0000 
     32 CA         54.1110   90.1085   23.7065 C.3       3 GLC5        0.0000 
     33 CA         53.6160   90.3910   25.6930 C.3       9 GLL5        0.0000 
     34 CA         54.6060   89.8260   21.7200 C.3       6 GLP5        0.0000 
     35 CA         53.6625   92.0895   24.7755 C.3       3 GLC5        0.0000 
     36 CA         48.4060   92.6795   26.4645 C.3       3 GLC5        0.0000 
     37 CA         50.1890   93.4520   27.3390 C.3       9 GLL5        0.0000 
     38 CA         46.6230   91.9070   25.5900 C.3       6 GLP5        0.0000 
     39 CA         49.0210   94.4015   26.0245 C.3       3 GLC5        0.0000 
     40 CA         47.8530   95.3510   24.7100 C.3       6 GLP5        0.0000 
     41 CA         50.3245   95.2870   27.8185 C.3       3 GLC5        0.0000 
     42 CA         50.4600   97.1220   28.2980 C.3       6 GLP5        0.0000 
     43 CA         48.1280   91.6550   27.1335 C.3       3 GLC5        0.0000 
     44 CA         49.6330   91.4030   28.6770 C.3       9 GLL5        0.0000 
     45 CA         49.8090   91.6150   30.7120 C.3       3 GLC5        0.0000 
     46 CA         49.9850   91.8270   32.7470 C.3       6 GLP5        0.0000 
     47 CA         48.4440   89.9885   28.8470 C.3       3 GLC5        0.0000 
     48 CA         47.2550   88.5740   29.0170 C.3       6 GLP5        0.0000 
     49 CA         49.3315   93.0835   19.0480 C.3       3 GLC5        0.0000 
     50 CA         48.6980   91.3360   18.5550 C.3       9 GLL5        0.0000 
     51 CA         49.9650   94.8310   19.5410 C.3       6 GLP5        0.0000 
     52 CA         48.2450   84.3800   10.3590 C.3       3 GLC5        0.0000 
     53 CA         46.7260   85.4810   11.1840 C.3       9 GLL5        0.0000 
     54 CA         49.7640   83.2790    9.5340 C.3       6 GLP5        0.0000 
     55 CA         42.4305   86.4990   10.5990 C.3       3 GLC5        0.0000 
     56 CA         43.2150   85.9170    8.9390 C.3       9 GLL5        0.0000 
     57 CA         41.6460   87.0810   12.2590 C.3       6 GLP5        0.0000 
     58 CA         42.5525   87.8845    8.0880 C.3       3 GLC5        0.0000 
     59 CA         41.8900   89.8520    7.2370 C.3       6 GLP5        0.0000 
     60 CA         42.5670   87.9960    6.8265 C.3       3 GLC5        0.0000 
     61 CA         43.2440   86.1400    6.4160 C.3       9 GLL5        0.0000 
     62 CA         41.5505   86.4445    5.5045 C.3       3 GLC5        0.0000 
     63 CA         39.8570   86.7490    4.5930 C.3       6 GLP5        0.0000 
     64 CA         43.2860   85.9615    4.5525 C.3       3 GLC5        0.0000 
     65 CA         43.3280   85.7830    2.6890 C.3       6 GLP5        0.0000 
     66 CA         44.1790   87.6460    5.5600 C.3       3 GLC5        0.0000 
     67 CA         45.1140   89.1520    4.7040 C.3       6 GLP5        0.0000 
     68 CA         49.5610   86.7370    7.4195 C.3       3 GLC5        0.0000 
     69 CA         47.8690   85.7190    7.0940 C.3       9 GLL5        0.0000 
     70 CA         51.2530   87.7550    7.7450 C.3       6 GLP5        0.0000 
     71 CA         49.1715   84.7545    7.7755 C.3       3 GLC5        0.0000 
     72 CA         50.4740   83.7900    8.4570 C.3       6 GLP5        0.0000 
     73 N          46.4215   86.8510    4.3955 N.am      2 SEC2        0.0000 
     74 N          46.1480   85.8520    5.4220 N.am      8 SEL2        0.0000 
     75 N          46.6950   87.8500    3.3690 N.am      5 SEP2        0.0000 
     76 O          46.2330   85.0290    4.4325 O.2       1 ALC1        0.0000 
     77 O          46.1480   85.8520    5.4220 O.2       7 ALL1        0.0000 
     78 O          46.3180   84.2060    3.4430 O.2       4 ALP1        0.0000 
     79 CA         54.2737   92.4100   26.7030 C.3       3 GLC5        0.0000 
     80 CA         52.8040   90.6810   26.9820 C.3       9 GLL5        0.0000 
     81 CA         55.3380   93.9840   25.7900 C.3       6 GLP5        0.0000 
     82 CA         51.1445   91.8990   30.9872 C.3       3 GLC5        0.0000 
     83 CA         48.6062   91.4060   25.3405 C.3       3 GLC5        0.0000 
     84 CA         51.4915   89.9475   22.4243 C.3       3 GLC5        0.0000 
     85 CA         49.4480   89.5060   22.6080 C.3       9 GLL5        0.0000 
     86 CA         53.2250   89.9100   21.5120 C.3       6 GLP5        0.0000 
     87 CA         47.6301   90.5987   22.7309 C.3       3 GLC5        0.0000 
     88 CA         49.8270   90.5480   23.4050 C.3       9 GLL5        0.0000 
     89 CA         45.8640   91.1410   23.2910 C.3       6 GLP5        0.0000 
     90 CA         50.8525   90.0685   20.5418 C.3       3 GLC5        0.0000 
     91 CA         49.1550   90.0860   21.3350 C.3       9 GLL5        0.0000 
     92 CA         52.7230   90.4330   20.3080 C.3       6 GLP5        0.0000 
     93 CA         46.5550   90.8315   18.4088 C.3       3 GLC5        0.0000 
     94 CA         48.6240   89.8200   18.8980 C.3       9 GLL5        0.0000 
     95 CA         44.4490   91.0850   18.0910 C.3       6 GLP5        0.0000 
     96 CA         50.6920   90.5055   19.5173 C.3       3 GLC5        0.0000 
     97 CA         46.4680   89.0828   16.8897 C.3       3 GLC5        0.0000 
     98 CA         48.3570   88.8930   17.9010 C.3       9 GLL5        0.0000 
     99 CA         44.6450   89.0900   16.5610 C.3       6 GLP5        0.0000 
    100 CA         46.2567   88.7463   15.7415 C.3       3 GLC5        0.0000 
    101 CA         47.9610   88.2510   15.6080 C.3       9 GLL5        0.0000 
    102 CA         45.9602   89.1995   13.3102 C.3       3 GLC5        0.0000 
    103 CA         47.7760   88.5540   14.2360 C.3       9 GLL5        0.0000 
    104 CA         44.2940   90.3560   12.8490 C.3       6 GLP5        0.0000 
    105 CA         45.6013   88.9142   12.1645 C.3       3 GLC5        0.0000 
    106 CA         46.0822   88.4002    7.5100 C.3       3 GLC5        0.0000 
    107 CA         46.1170   89.6340    5.7690 C.3       6 GLP5        0.0000 
    108 CA         46.5119   87.6551    6.4680 C.3       3 GLC5        0.0000 
    109 CA         45.4400   85.9340    7.7410 C.3       9 GLL5        0.0000 
@<TRIPOS>BOND
@<TRIPOS>SUBSTRUCTURE
     1 ALC1       76 GROUP        1 X    ALC  0     ROOT ALC X 1
     2 SEC2       73 GROUP        1 X    SEC  0     **** SEC X 2
     3 GLC5        1 GROUP        1 X    GLC  0     **** GLC X 6
     4 ALP1       78 GROUP        1 Y    ALP  0     ROOT ALP Y 8
     5 SEP2       75 GROUP        1 Y    SEP  0     **** SEP Y 9
     6 GLP5        3 GROUP        1 Y    GLP  0     **** GLP Y 13
     7 ALL1       77 GROUP        1 Z    ALL  0     ROOT ALL Z 15
     8 SEL2       74 GROUP        1 Z    SEL  0     **** SEL Z 16
     9 GLL5        2 GROUP        1 Z    GLL  0     **** GLL Z 20
@<TRIPOS>SET

