#    Name: 1ppr_PID_24_ligand
#    Modification time : Mon Mar 24 22:04:13 2014

@<TRIPOS>MOLECULE
1ppr_PID_24_ligand
   96    99     1     0     0
SMALL
NO_CHARGES


@<TRIPOS>ATOM
      1 C1         52.8040   90.6810   26.9820 C.3       1 PID624      0.0000 
      2 C2         53.6150   90.9910   28.2500 C.3       1 PID624      0.0000 
      3 C3         52.7720   91.4120   29.4590 C.3       1 PID624      0.0000 
      4 C4         51.8360   92.5300   28.9960 C.3       1 PID624      0.0000 
      5 C5         50.7600   92.1590   27.9540 C.3       1 PID624      0.0000 
      6 C6         51.3710   91.2470   26.8130 C.3       1 PID624      0.0000 
      7 C7         50.8700   91.4300   25.4570 C.2       1 PID624      0.0000 
      8 C8         50.3090   90.3800   24.7250 C.2       1 PID624      0.0000 
      9 C9         49.8270   90.5480   23.4050 C.2       1 PID624      0.0000 
     10 C10        49.7660   91.7720   22.5810 C.2       1 PID624      0.0000 
     11 C11        49.4480   89.5060   22.6080 C.2       1 PID624      0.0000 
     12 C12        49.1550   90.0860   21.3350 C.2       1 PID624      0.0000 
     13 C13        48.8090   89.3220   20.2160 C.2       1 PID624      0.0000 
     14 C14        48.6240   89.8200   18.8980 C.2       1 PID624      0.0000 
     15 C15        48.3570   88.8930   17.9010 C.2       1 PID624      0.0000 
     16 C16        48.2250   89.2580   16.5360 C.2       1 PID624      0.0000 
     17 C17        47.9610   88.2510   15.6080 C.2       1 PID624      0.0000 
     18 C18        47.7760   88.5540   14.2360 C.2       1 PID624      0.0000 
     19 C19        47.4770   87.5320   13.3070 C.2       1 PID624      0.0000 
     20 C20        47.1480   87.9190   11.9630 C.2       1 PID624      0.0000 
     21 C21        46.6690   87.0260   10.9970 C.2       1 PID624      0.0000 
     22 C22        46.2440   87.5770    9.7690 C.2       1 PID624      0.0000 
     23 C23        45.8510   86.7560    8.7330 C.1       1 PID624      0.0000 
     24 C24        45.4400   85.9340    7.7410 C.2       1 PID624      0.0000 
     25 C25        43.9310   85.4970    7.6700 C.3       1 PID624      0.0000 
     26 C26        43.9050   83.9620    7.5650 C.3       1 PID624      0.0000 
     27 C27        44.8360   83.3020    6.5310 C.3       1 PID624      0.0000 
     28 C28        46.2820   83.8010    6.7460 C.3       1 PID624      0.0000 
     29 C29        46.4490   85.3330    6.7390 C.3       1 PID624      0.0000 
     30 C30        44.7410   81.1440    5.6950 C.2       1 PID624      0.0000 
     31 C31        44.7780   79.6450    5.8860 C.3       1 PID624      0.0000 
     32 CM1        53.6160   90.3910   25.6930 C.3       1 PID624      0.0000 
     33 CM2        50.1890   93.4520   27.3390 C.3       1 PID624      0.0000 
     34 CM3        49.6330   91.4030   28.6770 C.3       1 PID624      0.0000 
     35 CM4        48.6980   91.3360   18.5550 C.3       1 PID624      0.0000 
     36 CM5        46.7260   85.4810   11.1840 C.3       1 PID624      0.0000 
     37 CM6        43.2150   85.9170    8.9390 C.3       1 PID624      0.0000 
     38 CM7        43.2440   86.1400    6.4160 C.3       1 PID624      0.0000 
     39 CM8        47.8690   85.7190    7.0940 C.3       1 PID624      0.0000 
     40 O1         51.5870   89.8450   27.2030 O.3       1 PID624      0.0000 
     41 O2         53.6470   91.8880   30.4950 O.3       1 PID624      0.0000 
     42 O3         50.2460   92.8760   22.9010 O.2       1 PID624      0.0000 
     43 O4         49.3710   91.4750   21.3490 O.3       1 PID624      0.0000 
     44 O5         46.1480   85.8520    5.4220 O.3       1 PID624      0.0000 
     45 O6         44.7890   81.8860    6.7640 O.3       1 PID624      0.0000 
     46 O7         45.0510   81.5990    4.5930 O.2       1 PID624      0.0000 
     47 H          54.3369   91.7938   28.0213 H         1 PID624      0.0000 
     48 H          54.2054   90.0985   28.5199 H         1 PID624      0.0000 
     49 H          52.1889   90.5800   29.7688 H         1 PID624      0.0000 
     50 H          52.4506   93.3621   28.5808 H         1 PID624      0.0000 
     51 H          51.3236   92.9598   29.8877 H         1 PID624      0.0000 
     52 H          50.9430   92.3735   25.0468 H         1 PID624      0.0000 
     53 H          50.2398   89.4375   25.1597 H         1 PID624      0.0000 
     54 H          49.3822   88.6027   22.8120 H         1 PID624      0.0000 
     55 H          48.6704   88.2775   20.3542 H         1 PID624      0.0000 
     56 H          48.2469   87.8873   18.1503 H         1 PID624      0.0000 
     57 H          48.3215   90.2235   16.2558 H         1 PID624      0.0000 
     58 H          47.8976   87.2696   15.9145 H         1 PID624      0.0000 
     59 H          47.8602   89.5238   13.9164 H         1 PID624      0.0000 
     60 H          47.4910   86.5642   13.5667 H         1 PID624      0.0000 
     61 H          47.2783   88.9233   11.7078 H         1 PID624      0.0000 
     62 H          46.2324   88.6012    9.6601 H         1 PID624      0.0000 
     63 H          42.8575   83.6412    7.3501 H         1 PID624      0.0000 
     64 H          44.1382   83.5361    8.5703 H         1 PID624      0.0000 
     65 H          44.5146   83.5620    5.5618 H         1 PID624      0.0000 
     66 H          46.9242   83.3703    5.9586 H         1 PID624      0.0000 
     67 H          46.6509   83.4081    7.7090 H         1 PID624      0.0000 
     68 H          45.6150   79.3499    6.3468 H         1 PID624      0.0000 
     69 H          44.0097   79.3219    6.4385 H         1 PID624      0.0000 
     70 H          44.7366   79.1583    5.0134 H         1 PID624      0.0000 
     71 H          54.1966   91.1642   25.4380 H         1 PID624      0.0000 
     72 H          54.2153   89.5979   25.8021 H         1 PID624      0.0000 
     73 H          53.0195   90.2025   24.9128 H         1 PID624      0.0000 
     74 H          50.8985   93.9936   26.8880 H         1 PID624      0.0000 
     75 H          49.4874   93.2587   26.6531 H         1 PID624      0.0000 
     76 H          49.7684   94.0383   28.0313 H         1 PID624      0.0000 
     77 H          49.9659   90.5653   29.1098 H         1 PID624      0.0000 
     78 H          49.2151   91.9583   29.3960 H         1 PID624      0.0000 
     79 H          48.9014   91.1377   28.0490 H         1 PID624      0.0000 
     80 H          49.5898   91.7257   18.7850 H         1 PID624      0.0000 
     81 H          48.5471   91.5042   17.5809 H         1 PID624      0.0000 
     82 H          48.0102   91.8636   19.0535 H         1 PID624      0.0000 
     83 H          47.6645   85.1550   11.2975 H         1 PID624      0.0000 
     84 H          46.2135   85.1853   11.9902 H         1 PID624      0.0000 
     85 H          46.3407   84.9973   10.3981 H         1 PID624      0.0000 
     86 H          43.6210   85.4973    9.7508 H         1 PID624      0.0000 
     87 H          43.2478   86.9074    9.0735 H         1 PID624      0.0000 
     88 H          42.2501   85.6549    8.9251 H         1 PID624      0.0000 
     89 H          43.2715   87.1391    6.4489 H         1 PID624      0.0000 
     90 H          43.6899   85.8624    5.5650 H         1 PID624      0.0000 
     91 H          42.2824   85.8755    6.3429 H         1 PID624      0.0000 
     92 H          48.5306   85.3322    6.4517 H         1 PID624      0.0000 
     93 H          47.9975   86.7107    7.0855 H         1 PID624      0.0000 
     94 H          48.1241   85.3982    8.0062 H         1 PID624      0.0000 
     95 H          54.3221   92.4551   30.0231 H         1 PID624      0.0000 
     96 H          46.6773   85.2832    4.7926 H         1 PID624      0.0000 
@<TRIPOS>BOND
     1    2    1 1    
     2    6    1 1    
     3   32    1 1    
     4   40    1 1    
     5    3    2 1    
     6   47    2 1    
     7   48    2 1    
     8    4    3 1    
     9   41    3 1    
    10   49    3 1    
    11    5    4 1    
    12   50    4 1    
    13   51    4 1    
    14    6    5 1    
    15   33    5 1    
    16   34    5 1    
    17    7    6 1    
    18   40    6 1    
    19    8    7 2    
    20   52    7 1    
    21    9    8 1    
    22   53    8 1    
    23   10    9 1    
    24   11    9 2    
    25   42   10 2    
    26   43   10 1    
    27   12   11 1    
    28   54   11 1    
    29   13   12 2    
    30   43   12 1    
    31   14   13 1    
    32   55   13 1    
    33   15   14 2    
    34   35   14 1    
    35   16   15 1    
    36   56   15 1    
    37   17   16 2    
    38   57   16 1    
    39   18   17 1    
    40   58   17 1    
    41   19   18 2    
    42   59   18 1    
    43   20   19 1    
    44   60   19 1    
    45   21   20 2    
    46   61   20 1    
    47   22   21 1    
    48   36   21 1    
    49   23   22 2    
    50   62   22 1    
    51   24   23 2    
    52   25   24 1    
    53   29   24 1    
    54   26   25 1    
    55   37   25 1    
    56   38   25 1    
    57   27   26 1    
    58   63   26 1    
    59   64   26 1    
    60   28   27 1    
    61   45   27 1    
    62   65   27 1    
    63   29   28 1    
    64   66   28 1    
    65   67   28 1    
    66   39   29 1    
    67   44   29 1    
    68   31   30 1    
    69   45   30 1    
    70   46   30 2    
    71   68   31 1    
    72   69   31 1    
    73   70   31 1    
    74   71   32 1    
    75   72   32 1    
    76   73   32 1    
    77   74   33 1    
    78   75   33 1    
    79   76   33 1    
    80   77   34 1    
    81   78   34 1    
    82   79   34 1    
    83   80   35 1    
    84   81   35 1    
    85   82   35 1    
    86   83   36 1    
    87   84   36 1    
    88   85   36 1    
    89   86   37 1    
    90   87   37 1    
    91   88   37 1    
    92   89   38 1    
    93   90   38 1    
    94   91   38 1    
    95   92   39 1    
    96   93   39 1    
    97   94   39 1    
    98   95   41 1    
    99   96   44 1    
@<TRIPOS>SUBSTRUCTURE
     1 PID624      1 GROUP   
@<TRIPOS>SET

