#    Name: 4f9i_FAD_1_INTS_M
#    Modification time : Mon Mar 24 19:09:07 2014

@<TRIPOS>MOLECULE
4f9i_FAD_1_INTS_M
  134     0    12     0     0
SMALL
NO_CHARGES


@<TRIPOS>ATOM
      1 NZ         68.0975   14.2780   -7.1815 N.4       3 LYC4        0.0000 
      2 NZ         67.1200   13.8250   -8.7240 N.4      11 LYL4        0.0000 
      3 NZ         69.0750   14.7310   -5.6390 N.4       7 LYP4        0.0000 
      4 N          66.8945   15.1045   -8.9140 N.am      2 SEC2        0.0000 
      5 N          67.1200   13.8250   -8.7240 N.am     10 SEL2        0.0000 
      6 N          66.6690   16.3840   -9.1040 N.am      6 SEP2        0.0000 
      7 NZ         70.7190   12.2900   -7.7170 N.4       3 LYC4        0.0000 
      8 NZ         69.5050   12.9840   -8.1880 N.4      11 LYL4        0.0000 
      9 NZ         71.9330   11.5960   -7.2460 N.4       7 LYP4        0.0000 
     10 NZ         69.2900   13.8575   -6.9135 N.4       3 LYC4        0.0000 
     11 N          70.7190   12.2900   -7.7170 N.am      2 SEC2        0.0000 
     12 N          69.5050   12.9840   -8.1880 N.am     10 SEL2        0.0000 
     13 N          71.9330   11.5960   -7.2460 N.am      6 SEP2        0.0000 
     14 N          69.2900   13.8575   -6.9135 N.am      2 SEC2        0.0000 
     15 N          69.0750   14.7310   -5.6390 N.am      6 SEP2        0.0000 
     16 N          70.7335   14.0040   -8.0680 N.am      2 SEC2        0.0000 
     17 N          71.9620   15.0240   -7.9480 N.am      6 SEP2        0.0000 
     18 O          65.1595    6.9345   -7.2555 O.2       1 ALC1        0.0000 
     19 O          65.2280    8.3390   -7.5150 O.2       9 ALL1        0.0000 
     20 O          65.0910    5.5300   -6.9960 O.2       5 ALP1        0.0000 
     21 CA         65.3700    6.7100   -4.1885 C.3       4 GLC5        0.0000 
     22 CA         65.3480    8.4430   -5.1800 C.3      12 GLL5        0.0000 
     23 CA         65.3920    4.9770   -3.1970 C.3       8 GLP5        0.0000 
     24 CA         63.5740    7.6165   -4.1365 C.3       4 GLC5        0.0000 
     25 CA         61.8000    6.7900   -3.0930 C.3       8 GLP5        0.0000 
     26 O          65.6565    6.4610   -6.1470 O.2       1 ALC1        0.0000 
     27 O          66.2220    7.3920   -5.2980 O.2       9 ALL1        0.0000 
     28 CA         67.6940    9.2400   -3.0225 C.3       4 GLC5        0.0000 
     29 CA         65.9550    9.4200   -4.2520 C.3      12 GLL5        0.0000 
     30 CA         69.4330    9.0600   -1.7930 C.3       8 GLP5        0.0000 
     31 CA         64.8775   12.1285    1.4625 C.3       4 GLC5        0.0000 
     32 CA         63.8830   11.2890   -0.2590 C.3      12 GLL5        0.0000 
     33 CA         65.8720   12.9680    3.1840 C.3       8 GLP5        0.0000 
     34 O          63.0205   12.1435    1.8295 O.2       1 ALC1        0.0000 
     35 O          62.8060   12.1390    0.2050 O.2       9 ALL1        0.0000 
     36 O          63.2350   12.1480    3.4540 O.2       5 ALP1        0.0000 
     37 CA         66.7880    8.9690    1.6860 C.3       4 GLC5        0.0000 
     38 CA         65.7710    9.9170    0.2100 C.3      12 GLL5        0.0000 
     39 CA         67.8050    8.0210    3.1620 C.3       8 GLP5        0.0000 
     40 CA         64.7970    9.9120    2.1490 C.3       4 GLC5        0.0000 
     41 CA         63.8230    9.9070    4.0880 C.3       8 GLP5        0.0000 
     42 CA         65.8215   11.4425    1.6970 C.3       4 GLC5        0.0000 
     43 CA         66.2705   11.5695   -0.1555 C.3       4 GLC5        0.0000 
     44 CA         66.7700   13.2220   -0.5210 C.3       8 GLP5        0.0000 
     45 CA         67.6020    9.4885   -0.7915 C.3       4 GLC5        0.0000 
     46 N          67.1825    9.0565   -1.0685 N.am      2 SEC2        0.0000 
     47 N          65.9440    9.6700   -1.1170 N.am     10 SEL2        0.0000 
     48 N          68.4210    8.4430   -1.0200 N.am      6 SEP2        0.0000 
     49 CA         67.2735    9.6380   -1.9085 C.3       4 GLC5        0.0000 
     50 CA         65.1140   10.2160   -2.0240 C.3      12 GLL5        0.0000 
     51 N          65.8480   -0.0355   -6.8110 N.am      2 SEC2        0.0000 
     52 N          65.6520    0.7250   -7.8310 N.am     10 SEL2        0.0000 
     53 N          66.0440   -0.7960   -5.7910 N.am      6 SEP2        0.0000 
     54 N          65.1105    2.0550   -7.6580 N.am      2 SEC2        0.0000 
     55 N          64.5690    3.3850   -7.4850 N.am      6 SEP2        0.0000 
     56 O          66.1480   -1.7110   -9.3095 O.2       1 ALC1        0.0000 
     57 O          66.6400   -0.4510   -9.6280 O.2       9 ALL1        0.0000 
     58 O          65.6560   -2.9710   -8.9910 O.2       5 ALP1        0.0000 
     59 N          67.7345   -3.0505  -10.6065 N.am      2 SEC2        0.0000 
     60 N          67.6410   -1.6590  -11.4490 N.am     10 SEL2        0.0000 
     61 N          67.8280   -4.4420   -9.7640 N.am      6 SEP2        0.0000 
     62 N          69.3680   -0.2565  -13.4160 N.am      2 SEC2        0.0000 
     63 N          68.4520    0.8110  -12.6440 N.am     10 SEL2        0.0000 
     64 N          70.2840   -1.3240  -14.1880 N.am      6 SEP2        0.0000 
     65 CA         72.5780    3.4490  -16.7345 C.3       4 GLC5        0.0000 
     66 CA         70.7450    3.2270  -16.2610 C.3      12 GLL5        0.0000 
     67 CA         74.4110    3.6710  -17.2080 C.3       8 GLP5        0.0000 
     68 CA         71.1330    5.1295  -17.2205 C.3       4 GLC5        0.0000 
     69 CA         71.5210    7.0320  -18.1800 C.3       8 GLP5        0.0000 
     70 CA         70.8445    6.3855  -16.5370 C.3       4 GLC5        0.0000 
     71 CA         70.1680    5.7390  -14.8940 C.3      12 GLL5        0.0000 
     72 CA         68.5360    5.7360  -15.7645 C.3       4 GLC5        0.0000 
     73 CA         66.9040    5.7330  -16.6350 C.3       8 GLP5        0.0000 
     74 CA         69.1395    3.7525   -9.9230 C.3       4 GLC5        0.0000 
     75 CA         67.6110    4.5330  -10.5950 C.3      12 GLL5        0.0000 
     76 CA         70.6680    2.9720   -9.2510 C.3       8 GLP5        0.0000 
     77 CA         67.1395    4.1895   -8.4720 C.3       4 GLC5        0.0000 
     78 CA         66.6680    3.8460   -6.3490 C.3       8 GLP5        0.0000 
     79 CA         64.8295    4.0465  -10.2315 C.3       4 GLC5        0.0000 
     80 CA         66.2560    5.1620  -10.8570 C.3      12 GLL5        0.0000 
     81 CA         63.4030    2.9310   -9.6060 C.3       8 GLP5        0.0000 
     82 O          65.4695    7.4050  -12.7390 O.2       1 ALC1        0.0000 
     83 O          66.8980    6.8940  -12.3220 O.2       9 ALL1        0.0000 
     84 O          64.0410    7.9160  -13.1560 O.2       5 ALP1        0.0000 
     85 O          66.3595    8.0550  -12.6950 O.2       1 ALC1        0.0000 
     86 O          65.8210    9.2160  -13.0680 O.2       5 ALP1        0.0000 
     87 CA         68.5115    7.2825   -8.1290 C.3       4 GLC5        0.0000 
     88 CA         67.4280    7.3460  -10.0850 C.3      12 GLL5        0.0000 
     89 CA         69.5950    7.2190   -6.1730 C.3       8 GLP5        0.0000 
     90 N          67.5025    5.8335   -7.6820 N.am      2 SEC2        0.0000 
     91 N          67.2130    6.9140   -8.7940 N.am     10 SEL2        0.0000 
     92 N          67.7920    4.7530   -6.5700 N.am      6 SEP2        0.0000 
     93 CA         65.6115    9.5090  -11.1995 C.3       4 GLC5        0.0000 
     94 CA         67.4550    8.8850  -10.1420 C.3      12 GLL5        0.0000 
     95 CA         63.7680   10.1330  -12.2570 C.3       8 GLP5        0.0000 
     96 NZ         71.4465   11.2140   -8.3650 N.4       3 LYC4        0.0000 
     97 NZ         70.9600   10.8320   -9.4840 N.4      11 LYL4        0.0000 
     98 N          71.4465   11.2140   -8.3650 N.am      2 SEC2        0.0000 
     99 N          70.9600   10.8320   -9.4840 N.am     10 SEL2        0.0000 
    100 N          72.0205   10.7595  -10.1330 N.am      2 SEC2        0.0000 
    101 N          73.0810   10.6870  -10.7820 N.am      6 SEP2        0.0000 
    102 N          70.4045   10.6985  -12.4565 N.am      2 SEC2        0.0000 
    103 N          69.2690   10.5410  -11.5510 N.am     10 SEL2        0.0000 
    104 N          71.5400   10.8560  -13.3620 N.am      6 SEP2        0.0000 
    105 N          68.9810   10.1970  -13.0175 N.am      2 SEC2        0.0000 
    106 N          68.6930    9.8530  -14.4840 N.am      6 SEP2        0.0000 
    107 CA         68.5817   10.0892   -6.6785 C.3       4 GLC5        0.0000 
    108 CA         66.5530   11.2570   -7.2520 C.3      12 GLL5        0.0000 
    109 CA         70.6250    9.5400   -6.5490 C.3       8 GLP5        0.0000 
    110 CA         67.2807   12.2752   -5.8800 C.3       4 GLC5        0.0000 
    111 CA         66.5240   10.0200   -6.3640 C.3      12 GLL5        0.0000 
    112 CA         68.0230   13.9120   -4.9520 C.3       8 GLP5        0.0000 
    113 CA         65.6535   11.9580   -1.0008 C.3       4 GLC5        0.0000 
    114 CA         64.0370   11.0550   -1.6150 C.3      12 GLL5        0.0000 
    115 CA         70.8757    1.1315  -13.6427 C.3       4 GLC5        0.0000 
    116 CA         68.8640    2.0280  -13.1890 C.3      12 GLL5        0.0000 
    117 CA         72.5350    0.2350  -13.4860 C.3       8 GLP5        0.0000 
    118 CA         70.1732    2.1415  -12.1502 C.3       4 GLC5        0.0000 
    119 CA         69.5690    2.0280  -14.4100 C.3      12 GLL5        0.0000 
    120 CA         71.1300    2.2550  -10.5010 C.3       8 GLP5        0.0000 
    121 CA         68.1483    3.1205  -15.2348 C.3       4 GLC5        0.0000 
    122 CA         67.0800    4.2130  -16.6700 C.3       8 GLP5        0.0000 
    123 CA         71.4497    1.7332  -14.5475 C.3       4 GLC5        0.0000 
    124 CA         69.9840    3.2360  -14.9570 C.3      12 GLL5        0.0000 
    125 CA         68.7223    3.7222  -16.1395 C.3       4 GLC5        0.0000 
    126 CA         69.6412    2.6718  -17.3665 C.3       4 GLC5        0.0000 
    127 CA         68.9180    2.1120  -19.1240 C.3       8 GLP5        0.0000 
    128 CA         71.6924    3.5248  -14.3201 C.3       4 GLC5        0.0000 
    129 CA         73.1240    4.1200  -13.1680 C.3       8 GLP5        0.0000 
    130 CA         68.2205    4.3273  -15.1863 C.3       4 GLC5        0.0000 
    131 CA         69.7120    4.4360  -14.3090 C.3      12 GLL5        0.0000 
    132 CA         69.9655    3.0497  -11.6600 C.3       4 GLC5        0.0000 
    133 CA         69.0100    4.4470  -13.0960 C.3      12 GLL5        0.0000 
    134 CA         71.2995    4.4436  -13.5084 C.3       4 GLC5        0.0000 
@<TRIPOS>BOND
@<TRIPOS>SUBSTRUCTURE
     1 ALC1       18 GROUP        1 X    ALC  0     ROOT ALC X 1
     2 SEC2        4 GROUP        1 X    SEC  0     **** SEC X 2
     3 LYC4        1 GROUP        1 X    LYC  0     **** LYC X 4
     4 GLC5       21 GROUP        1 X    GLC  0     **** GLC X 6
     5 ALP1       20 GROUP        1 Y    ALP  0     ROOT ALP Y 8
     6 SEP2        6 GROUP        1 Y    SEP  0     **** SEP Y 9
     7 LYP4        3 GROUP        1 Y    LYP  0     **** LYP Y 11
     8 GLP5       23 GROUP        1 Y    GLP  0     **** GLP Y 13
     9 ALL1       19 GROUP        1 Z    ALL  0     ROOT ALL Z 15
    10 SEL2        5 GROUP        1 Z    SEL  0     **** SEL Z 16
    11 LYL4        2 GROUP        1 Z    LYL  0     **** LYL Z 18
    12 GLL5       22 GROUP        1 Z    GLL  0     **** GLL Z 20
@<TRIPOS>SET

