#    Name: 4f9i_FAD_1_ligand
#    Modification time : Mon Mar 24 19:09:07 2014

@<TRIPOS>MOLECULE
4f9i_FAD_1_ligand
   84    89     1     0     0
SMALL
NO_CHARGES


@<TRIPOS>ATOM
      1 PA         68.1430   12.6620   -8.5710 P.3       1 FAD2001     0.0000 
      2 O1A        67.1200   13.8250   -8.7240 O.co2     1 FAD2001     0.0000 
      3 O2A        69.5050   12.9840   -8.1880 O.co2     1 FAD2001     0.0000 
      4 O5B        67.8960   11.6040   -7.5620 O.3       1 FAD2001     0.0000 
      5 C5B        66.5530   11.2570   -7.2520 C.3       1 FAD2001     0.0000 
      6 C4B        66.5240   10.0200   -6.3640 C.3       1 FAD2001     0.0000 
      7 O4B        66.6180   10.3840   -5.0220 O.3       1 FAD2001     0.0000 
      8 C3B        65.2690    9.2090   -6.4440 C.3       1 FAD2001     0.0000 
      9 O3B        65.2280    8.3390   -7.5150 O.3       1 FAD2001     0.0000 
     10 C2B        65.3480    8.4430   -5.1800 C.3       1 FAD2001     0.0000 
     11 O2B        66.2220    7.3920   -5.2980 O.3       1 FAD2001     0.0000 
     12 C1B        65.9550    9.4200   -4.2520 C.3       1 FAD2001     0.0000 
     13 N9A        65.0310   10.1500   -3.4290 N.pl3     1 FAD2001     0.0000 
     14 C8A        63.9540   10.9300   -3.8340 C.2       1 FAD2001     0.0000 
     15 N7A        63.3570   11.4590   -2.7580 N.2       1 FAD2001     0.0000 
     16 C5A        64.0370   11.0550   -1.6150 C.ar      1 FAD2001     0.0000 
     17 C6A        63.8830   11.2890   -0.2590 C.ar      1 FAD2001     0.0000 
     18 N6A        62.8060   12.1390    0.2050 N.pl3     1 FAD2001     0.0000 
     19 N1A        64.7490   10.7220    0.6170 N.ar      1 FAD2001     0.0000 
     20 C2A        65.7710    9.9170    0.2100 C.ar      1 FAD2001     0.0000 
     21 N3A        65.9440    9.6700   -1.1170 N.ar      1 FAD2001     0.0000 
     22 C4A        65.1140   10.2160   -2.0240 C.ar      1 FAD2001     0.0000 
     23 N1         66.7740    2.0050   -9.5380 N.2       1 FAD2001     0.0000 
     24 C2         66.3470    0.7450   -8.9980 C.2       1 FAD2001     0.0000 
     25 O2         65.6520    0.7250   -7.8310 O.2       1 FAD2001     0.0000 
     26 N3         66.6400   -0.4510   -9.6280 N.am      1 FAD2001     0.0000 
     27 C4         67.3240   -0.4730  -10.8210 C.2       1 FAD2001     0.0000 
     28 O4         67.6410   -1.6590  -11.4490 O.2       1 FAD2001     0.0000 
     29 C4X        67.7570    0.8070  -11.4420 C.2       1 FAD2001     0.0000 
     30 N5         68.4520    0.8110  -12.6440 N.2       1 FAD2001     0.0000 
     31 C5X        68.8640    2.0280  -13.1890 C.ar      1 FAD2001     0.0000 
     32 C6         69.5690    2.0280  -14.4100 C.ar      1 FAD2001     0.0000 
     33 C7         69.9840    3.2360  -14.9570 C.ar      1 FAD2001     0.0000 
     34 C7M        70.7450    3.2270  -16.2610 C.3       1 FAD2001     0.0000 
     35 C8         69.7120    4.4360  -14.3090 C.ar      1 FAD2001     0.0000 
     36 C8M        70.1680    5.7390  -14.8940 C.3       1 FAD2001     0.0000 
     37 C9         69.0100    4.4470  -13.0960 C.ar      1 FAD2001     0.0000 
     38 C9A        68.5920    3.2420  -12.5420 C.ar      1 FAD2001     0.0000 
     39 N10        67.8710    3.2540  -11.3050 N.pl3     1 FAD2001     0.0000 
     40 C10        67.4600    2.0350  -10.7400 C.2       1 FAD2001     0.0000 
     41 C1'        67.6110    4.5330  -10.5950 C.3       1 FAD2001     0.0000 
     42 C2'        66.2560    5.1620  -10.8570 C.3       1 FAD2001     0.0000 
     43 O2'        65.6810    4.5900  -11.9720 O.3       1 FAD2001     0.0000 
     44 C3'        66.4400    6.6810  -11.0420 C.3       1 FAD2001     0.0000 
     45 O3'        66.8980    6.8940  -12.3220 O.3       1 FAD2001     0.0000 
     46 C4'        67.4280    7.3460  -10.0850 C.3       1 FAD2001     0.0000 
     47 O4'        67.2130    6.9140   -8.7940 O.3       1 FAD2001     0.0000 
     48 C5'        67.4550    8.8850  -10.1420 C.3       1 FAD2001     0.0000 
     49 O5'        68.6580    9.3550   -9.5400 O.3       1 FAD2001     0.0000 
     50 P          69.4740   10.6660   -9.9950 P.3       1 FAD2001     0.0000 
     51 O1P        70.9600   10.8320   -9.4840 O.co2     1 FAD2001     0.0000 
     52 O2P        69.2690   10.5410  -11.5510 O.co2     1 FAD2001     0.0000 
     53 O3P        68.4100   11.8740   -9.8160 O.3       1 FAD2001     0.0000 
     54 H          65.9697   11.0336   -8.1561 H         1 FAD2001     0.0000 
     55 H          66.0354   12.0652   -6.7169 H         1 FAD2001     0.0000 
     56 H          67.3598    9.3760   -6.6341 H         1 FAD2001     0.0000 
     57 H          64.4364    9.8723   -6.3710 H         1 FAD2001     0.0000 
     58 H          64.3881    8.1980   -4.8461 H         1 FAD2001     0.0000 
     59 H          66.6840    8.9069   -3.6235 H         1 FAD2001     0.0000 
     60 H          63.6984   11.0536   -4.7580 H         1 FAD2001     0.0000 
     61 H          62.7667   12.3006    1.1911 H         1 FAD2001     0.0000 
     62 H          62.1909   12.4938   -0.4991 H         1 FAD2001     0.0000 
     63 H          66.4108    9.4968    0.9066 H         1 FAD2001     0.0000 
     64 H          66.3376   -1.3435   -9.1911 H         1 FAD2001     0.0000 
     65 H          69.7681    1.1443  -14.8804 H         1 FAD2001     0.0000 
     66 H          68.8102    5.3325  -12.6282 H         1 FAD2001     0.0000 
     67 H          68.3990    5.2748  -10.8636 H         1 FAD2001     0.0000 
     68 H          67.7179    4.3772   -9.4960 H         1 FAD2001     0.0000 
     69 H          65.6548    5.0225   -9.9612 H         1 FAD2001     0.0000 
     70 H          65.4657    7.1511  -10.9001 H         1 FAD2001     0.0000 
     71 H          68.4508    7.0137  -10.4182 H         1 FAD2001     0.0000 
     72 H          66.5652    9.2481   -9.6212 H         1 FAD2001     0.0000 
     73 H          67.3801    9.1756  -11.1931 H         1 FAD2001     0.0000 
     74 H          70.9883    4.1512  -16.5554 H         1 FAD2001     0.0000 
     75 H          71.5969    2.7081  -16.1903 H         1 FAD2001     0.0000 
     76 H          70.2114    2.8150  -16.9996 H         1 FAD2001     0.0000 
     77 H          71.1627    5.7749  -14.9906 H         1 FAD2001     0.0000 
     78 H          69.7795    5.8946  -15.8022 H         1 FAD2001     0.0000 
     79 H          69.9007    6.5159  -14.3239 H         1 FAD2001     0.0000 
     80 H          65.1640    7.4285   -7.1064 H         1 FAD2001     0.0000 
     81 H          65.7671    6.7447   -5.9095 H         1 FAD2001     0.0000 
     82 H          66.0425    5.1108  -12.7454 H         1 FAD2001     0.0000 
     83 H          66.4825    7.7585  -12.6049 H         1 FAD2001     0.0000 
     84 H          66.8592    7.7138   -8.3092 H         1 FAD2001     0.0000 
@<TRIPOS>BOND
     1    2    1 ar   
     2    3    1 ar   
     3    4    1 1    
     4   53    1 1    
     5    5    4 1    
     6    6    5 1    
     7   54    5 1    
     8   55    5 1    
     9    7    6 1    
    10    8    6 1    
    11   56    6 1    
    12   12    7 1    
    13    9    8 1    
    14   10    8 1    
    15   57    8 1    
    16   80    9 1    
    17   11   10 1    
    18   12   10 1    
    19   58   10 1    
    20   81   11 1    
    21   13   12 1    
    22   59   12 1    
    23   14   13 1    
    24   22   13 1    
    25   15   14 2    
    26   60   14 1    
    27   16   15 1    
    28   17   16 ar   
    29   22   16 ar   
    30   18   17 1    
    31   19   17 ar   
    32   61   18 1    
    33   62   18 1    
    34   20   19 ar   
    35   21   20 ar   
    36   63   20 1    
    37   22   21 ar   
    38   24   23 1    
    39   40   23 2    
    40   25   24 2    
    41   26   24 am   
    42   27   26 am   
    43   64   26 1    
    44   28   27 2    
    45   29   27 1    
    46   30   29 2    
    47   40   29 1    
    48   31   30 1    
    49   32   31 ar   
    50   38   31 ar   
    51   33   32 ar   
    52   65   32 1    
    53   34   33 1    
    54   35   33 ar   
    55   74   34 1    
    56   75   34 1    
    57   76   34 1    
    58   36   35 1    
    59   37   35 ar   
    60   77   36 1    
    61   78   36 1    
    62   79   36 1    
    63   38   37 ar   
    64   66   37 1    
    65   39   38 1    
    66   40   39 1    
    67   41   39 1    
    68   42   41 1    
    69   67   41 1    
    70   68   41 1    
    71   43   42 1    
    72   44   42 1    
    73   69   42 1    
    74   82   43 1    
    75   45   44 1    
    76   46   44 1    
    77   70   44 1    
    78   83   45 1    
    79   47   46 1    
    80   48   46 1    
    81   71   46 1    
    82   84   47 1    
    83   49   48 1    
    84   72   48 1    
    85   73   48 1    
    86   50   49 1    
    87   51   50 ar   
    88   52   50 ar   
    89   53   50 1    
@<TRIPOS>SUBSTRUCTURE
     1 FAD2001     1 GROUP   
@<TRIPOS>SET

