#    Name: 1you_PFD_2_INTS_M
#    Modification time : Tue Mar 25 11:11:43 2014

@<TRIPOS>MOLECULE
1you_PFD_2_INTS_M
   59     0     9     0     0
SMALL
NO_CHARGES


@<TRIPOS>ATOM
      1 CA         69.7640   53.7405   23.7350 C.3       3 GLC5        0.0000 
      2 CA         69.6600   55.5520   24.9890 C.3       9 GLL5        0.0000 
      3 CA         69.8680   51.9290   22.4810 C.3       6 GLP5        0.0000 
      4 CA         69.9920   56.9580   26.5095 C.3       3 GLC5        0.0000 
      5 CA         70.3240   58.3640   28.0300 C.3       6 GLP5        0.0000 
      6 CA         69.1095   55.1325   22.3425 C.3       3 GLC5        0.0000 
      7 CA         68.5310   55.8010   24.3480 C.3       9 GLL5        0.0000 
      8 CA         69.6880   54.4640   20.3370 C.3       6 GLP5        0.0000 
      9 CA         68.8120   58.2675   25.6065 C.3       3 GLC5        0.0000 
     10 CA         68.2760   57.0770   23.8630 C.3       9 GLL5        0.0000 
     11 CA         69.3480   59.4580   27.3500 C.3       6 GLP5        0.0000 
     12 CA         68.0750   58.4335   21.6930 C.3       3 GLC5        0.0000 
     13 CA         67.0860   57.2790   23.1800 C.3       9 GLL5        0.0000 
     14 CA         69.0640   59.5880   20.2060 C.3       6 GLP5        0.0000 
     15 CA         68.7530   53.3385   23.3335 C.3       3 GLC5        0.0000 
     16 CA         67.6380   54.7480   24.1860 C.3       9 GLL5        0.0000 
     17 CA         65.5110   54.1335   22.1565 C.3       3 GLC5        0.0000 
     18 CA         66.4460   54.9720   23.5100 C.3       9 GLL5        0.0000 
     19 CA         64.5760   53.2950   20.8030 C.3       6 GLP5        0.0000 
     20 CA         65.8550   55.1585   21.4775 C.3       3 GLC5        0.0000 
     21 CA         66.1800   56.2330   23.0120 C.3       9 GLL5        0.0000 
     22 CA         65.5300   54.0840   19.9430 C.3       6 GLP5        0.0000 
     23 CA         64.1775   54.7930   21.8580 C.3       3 GLC5        0.0000 
     24 CA         63.7790   56.2910   22.9130 C.3       9 GLL5        0.0000 
     25 CA         64.7010   57.2195   25.5555 C.3       3 GLC5        0.0000 
     26 CA         63.6450   56.1670   24.3040 C.3       9 GLL5        0.0000 
     27 CA         65.7570   58.2720   26.8070 C.3       6 GLP5        0.0000 
     28 CA         62.8260   54.0745   25.6095 C.3       3 GLC5        0.0000 
     29 CA         62.3500   55.9860   24.8450 C.3       9 GLL5        0.0000 
     30 CA         63.3020   52.1630   26.3740 C.3       6 GLP5        0.0000 
     31 CA         63.5795   57.6910   25.6135 C.3       3 GLC5        0.0000 
     32 CA         64.8090   59.3960   26.3820 C.3       6 GLP5        0.0000 
     33 CA         56.1380   55.2745   24.4855 C.3       3 GLC5        0.0000 
     34 CA         57.3190   55.2390   26.2190 C.3       9 GLL5        0.0000 
     35 CA         54.9570   55.3100   22.7520 C.3       6 GLP5        0.0000 
     36 N          59.1545   53.3435   19.1600 N.am      2 SEC2        0.0000 
     37 N          58.9210   52.9070   20.3970 N.am      8 SEL2        0.0000 
     38 N          59.3880   53.7800   17.9230 N.am      5 SEP2        0.0000 
     39 O          57.5240   55.1190   20.9360 O.2       1 ALC1        0.0000 
     40 O          58.3540   54.6430   21.7840 O.2       7 ALL1        0.0000 
     41 O          56.6940   55.5950   20.0880 O.2       4 ALP1        0.0000 
     42 N          57.1440   57.6810   23.0025 N.am      2 SEC2        0.0000 
     43 N          57.7240   56.3580   23.0270 N.am      8 SEL2        0.0000 
     44 N          56.5640   59.0040   22.9780 N.am      5 SEP2        0.0000 
     45 N          57.4240   57.2775   21.6510 N.am      2 SEC2        0.0000 
     46 N          57.1240   58.1970   20.2750 N.am      5 SEP2        0.0000 
     47 CA         67.0803   57.3555   25.4563 C.3       3 GLC5        0.0000 
     48 CA         66.1950   57.5140   24.9515 C.3       3 GLC5        0.0000 
     49 CA         63.6803   55.6268   26.4917 C.3       3 GLC5        0.0000 
     50 CA         64.3630   55.1770   28.4090 C.3       6 GLP5        0.0000 
     51 CA         62.6098   54.6773   21.5858 C.3       3 GLC5        0.0000 
     52 CA         61.3600   56.0560   22.6620 C.3       9 GLL5        0.0000 
     53 CA         63.2200   53.2130   20.7950 C.3       6 GLP5        0.0000 
     54 CA         61.0433   58.1430   23.5858 C.3       3 GLC5        0.0000 
     55 CA         60.8200   60.2980   23.8080 C.3       6 GLP5        0.0000 
     56 CA         62.3028   57.5177   21.0720 C.3       3 GLC5        0.0000 
     57 CA         62.3210   58.8780   19.5620 C.3       6 GLP5        0.0000 
     58 CA         56.6460   54.8773   23.7155 C.3       3 GLC5        0.0000 
     59 CA         58.9170   54.6570   24.2080 C.3       9 GLL5        0.0000 
@<TRIPOS>BOND
@<TRIPOS>SUBSTRUCTURE
     1 ALC1       39 GROUP        1 X    ALC  0     ROOT ALC X 1
     2 SEC2       36 GROUP        1 X    SEC  0     **** SEC X 2
     3 GLC5        1 GROUP        1 X    GLC  0     **** GLC X 6
     4 ALP1       41 GROUP        1 Y    ALP  0     ROOT ALP Y 8
     5 SEP2       38 GROUP        1 Y    SEP  0     **** SEP Y 9
     6 GLP5        3 GROUP        1 Y    GLP  0     **** GLP Y 13
     7 ALL1       40 GROUP        1 Z    ALL  0     ROOT ALL Z 15
     8 SEL2       37 GROUP        1 Z    SEL  0     **** SEL Z 16
     9 GLL5        2 GROUP        1 Z    GLL  0     **** GLL Z 20
@<TRIPOS>SET

