#    Name: 1you_PFD_2_ligand
#    Modification time : Tue Mar 25 11:11:43 2014

@<TRIPOS>MOLECULE
1you_PFD_2_ligand
   47    49     1     0     0
SMALL
NO_CHARGES


@<TRIPOS>ATOM
      1 F29        69.6600   55.5520   24.9890 F         1 PFD999      0.0000 
      2 C28        68.5310   55.8010   24.3480 C.ar      1 PFD999      0.0000 
      3 C26        68.2760   57.0770   23.8630 C.ar      1 PFD999      0.0000 
      4 C24        67.0860   57.2790   23.1800 C.ar      1 PFD999      0.0000 
      5 C27        67.6380   54.7480   24.1860 C.ar      1 PFD999      0.0000 
      6 C25        66.4460   54.9720   23.5100 C.ar      1 PFD999      0.0000 
      7 C23        66.1800   56.2330   23.0120 C.ar      1 PFD999      0.0000 
      8 O22        65.0100   56.4640   22.3450 O.3       1 PFD999      0.0000 
      9 C20        63.7790   56.2910   22.9130 C.ar      1 PFD999      0.0000 
     10 C16        63.6450   56.1670   24.3040 C.ar      1 PFD999      0.0000 
     11 C12        62.3500   55.9860   24.8450 C.ar      1 PFD999      0.0000 
     12 C17        62.6390   56.2270   22.0910 C.ar      1 PFD999      0.0000 
     13 C13        61.3600   56.0560   22.6620 C.ar      1 PFD999      0.0000 
     14 C6         61.1730   55.9200   24.0650 C.ar      1 PFD999      0.0000 
     15 O2         59.8930   55.6860   24.6740 O.3       1 PFD999      0.0000 
     16 C1         58.9170   54.6570   24.2080 C.3       1 PFD999      0.0000 
     17 C5         57.7530   54.2320   25.1500 C.3       1 PFD999      0.0000 
     18 C11        57.3190   55.2390   26.2190 C.3       1 PFD999      0.0000 
     19 O15        56.7800   54.6190   27.3990 O.3       1 PFD999      0.0000 
     20 C19        57.3230   55.1250   28.6480 C.3       1 PFD999      0.0000 
     21 C21        57.3110   54.0900   29.7730 C.3       1 PFD999      0.0000 
     22 C4         59.5480   53.3100   23.8710 C.2       1 PFD999      0.0000 
     23 O10        60.0880   52.6170   24.7510 O.2       1 PFD999      0.0000 
     24 N9         59.5220   52.7920   22.6080 N.am      1 PFD999      0.0000 
     25 C14        58.9100   53.4500   21.6180 C.2       1 PFD999      0.0000 
     26 O18        58.9210   52.9070   20.3970 O.2       1 PFD999      0.0000 
     27 N7         58.3540   54.6430   21.7840 N.am      1 PFD999      0.0000 
     28 C3         58.3000   55.2570   22.9650 C.2       1 PFD999      0.0000 
     29 O8         57.7240   56.3580   23.0270 O.2       1 PFD999      0.0000 
     30 H          68.9357   57.8322   24.0034 H         1 PFD999      0.0000 
     31 H          66.8666   58.2097   22.7920 H         1 PFD999      0.0000 
     32 H          67.8565   53.8219   24.5596 H         1 PFD999      0.0000 
     33 H          65.7737   54.2092   23.3836 H         1 PFD999      0.0000 
     34 H          64.4530   56.2054   24.9118 H         1 PFD999      0.0000 
     35 H          62.2588   55.8956   25.8852 H         1 PFD999      0.0000 
     36 H          62.7358   56.3046   21.0747 H         1 PFD999      0.0000 
     37 H          60.5305   56.0281   22.0452 H         1 PFD999      0.0000 
     38 H          58.0453   53.2807   25.6482 H         1 PFD999      0.0000 
     39 H          56.8743   53.9781   24.5159 H         1 PFD999      0.0000 
     40 H          56.5795   55.9218   25.7520 H         1 PFD999      0.0000 
     41 H          58.2014   55.8657   26.4634 H         1 PFD999      0.0000 
     42 H          56.7522   56.0083   28.9953 H         1 PFD999      0.0000 
     43 H          58.3683   55.4650   28.5128 H         1 PFD999      0.0000 
     44 H          57.9307   55.1344   20.9356 H         1 PFD999      0.0000 
     45 H          57.8475   53.2796   29.5378 H         1 PFD999      0.0000 
     46 H          57.6928   54.4584   30.6207 H         1 PFD999      0.0000 
     47 H          56.3839   53.7777   29.9805 H         1 PFD999      0.0000 
@<TRIPOS>BOND
     1    2    1 1    
     2    3    2 ar   
     3    5    2 ar   
     4    4    3 ar   
     5   30    3 1    
     6    7    4 ar   
     7   31    4 1    
     8    6    5 ar   
     9   32    5 1    
    10    7    6 ar   
    11   33    6 1    
    12    8    7 1    
    13    9    8 1    
    14   10    9 ar   
    15   12    9 ar   
    16   11   10 ar   
    17   34   10 1    
    18   14   11 ar   
    19   35   11 1    
    20   13   12 ar   
    21   36   12 1    
    22   14   13 ar   
    23   37   13 1    
    24   15   14 1    
    25   16   15 1    
    26   17   16 1    
    27   22   16 1    
    28   28   16 1    
    29   18   17 1    
    30   38   17 1    
    31   39   17 1    
    32   19   18 1    
    33   40   18 1    
    34   41   18 1    
    35   20   19 1    
    36   21   20 1    
    37   42   20 1    
    38   43   20 1    
    39   45   21 1    
    40   46   21 1    
    41   47   21 1    
    42   23   22 2    
    43   24   22 1    
    44   25   24 1    
    45   26   25 2    
    46   27   25 1    
    47   28   27 1    
    48   44   27 1    
    49   29   28 2    
@<TRIPOS>SUBSTRUCTURE
     1 PFD999      1 GROUP   
@<TRIPOS>SET

