#    Name: 3pdq_KC6_2_INTS_M
#    Modification time : Tue Mar 25 06:20:21 2014

@<TRIPOS>MOLECULE
3pdq_KC6_2_INTS_M
   45     0    15     0     0
SMALL
NO_CHARGES


@<TRIPOS>ATOM
      1 NZ        -44.7060  -54.3335   -1.5220 N.4       4 LYC4        0.0000 
      2 NZ        -44.1070  -54.8020   -0.4360 N.4      14 LYL4        0.0000 
      3 NZ        -45.3050  -53.8650   -2.6080 N.4       9 LYP4        0.0000 
      4 N         -44.7060  -54.3335   -1.5220 N.am      2 SEC2        0.0000 
      5 N         -44.1070  -54.8020   -0.4360 N.am     12 SEL2        0.0000 
      6 N         -45.3050  -53.8650   -2.6080 N.am      7 SEP2        0.0000 
      7 CA        -39.6670  -53.2720    2.9730 C.3       5 GLC5        0.0000 
      8 CA        -40.8350  -54.3370    2.0500 C.3      15 GLL5        0.0000 
      9 CA        -38.4990  -52.2070    3.8960 C.3      10 GLP5        0.0000 
     10 N         -40.3295  -54.9000    4.7105 N.am      2 SEC2        0.0000 
     11 N         -40.6370  -55.1500    3.0850 N.am     12 SEL2        0.0000 
     12 N         -40.0220  -54.6500    6.3360 N.am      7 SEP2        0.0000 
     13 N         -39.2975  -54.2790    3.6860 N.am      2 SEC2        0.0000 
     14 N         -37.9580  -53.4080    4.2870 N.am      7 SEP2        0.0000 
     15 CA        -40.4495  -55.8850    6.0915 C.3       5 GLC5        0.0000 
     16 CA        -41.3700  -56.9880    4.5660 C.3      15 GLL5        0.0000 
     17 CA        -39.5290  -54.7820    7.6170 C.3      10 GLP5        0.0000 
     18 CA        -42.6820  -57.3095    7.1165 C.3       5 GLC5        0.0000 
     19 CA        -42.4090  -57.8300    5.0490 C.3      15 GLL5        0.0000 
     20 CA        -42.9550  -56.7890    9.1840 C.3      10 GLP5        0.0000 
     21 CA        -44.0430  -63.1250    5.7700 C.3       5 GLC5        0.0000 
     22 CA        -44.0730  -61.9400    7.3390 C.3      15 GLL5        0.0000 
     23 CA        -44.0130  -64.3100    4.2010 C.3      10 GLP5        0.0000 
     24 CA        -43.6365  -59.7530    9.0645 C.3       5 GLC5        0.0000 
     25 CA        -44.9430  -61.3870    8.5150 C.3      15 GLL5        0.0000 
     26 CA        -42.3300  -58.1190    9.6140 C.3      10 GLP5        0.0000 
     27 OD1       -46.1540  -60.9725    6.1730 O.co2     3 ASC3        0.0000 
     28 OD1       -46.0770  -60.5470    8.0950 O.co2    13 ASL3        0.0000 
     29 OD1       -46.2310  -61.3980    4.2510 O.co2     8 ASP3        0.0000 
     30 OD1       -46.6575  -61.3455    7.0780 O.co2     3 ASC3        0.0000 
     31 OD1       -47.2380  -62.1440    6.0610 O.co2     8 ASP3        0.0000 
     32 O         -46.6575  -61.3455    7.0780 O.2       1 ALC1        0.0000 
     33 O         -46.0770  -60.5470    8.0950 O.2      11 ALL1        0.0000 
     34 O         -47.2380  -62.1440    6.0610 O.2       6 ALP1        0.0000 
     35 N         -40.0545  -55.9110    5.6740 N.am      2 SEC2        0.0000 
     36 N         -40.0870  -57.1720    5.0120 N.am     12 SEL2        0.0000 
     37 N         -38.6360  -56.6995    5.2115 N.am      2 SEC2        0.0000 
     38 N         -37.1850  -56.2270    5.4110 N.am      7 SEP2        0.0000 
     39 CA        -39.9495  -56.6298    6.9497 C.3       5 GLC5        0.0000 
     40 CA        -40.8660  -58.8890    6.5610 C.3      15 GLL5        0.0000 
     41 CA        -41.5126  -58.2818    7.8860 C.3       5 GLC5        0.0000 
     42 CA        -39.8740  -58.0660    6.0040 C.3      15 GLL5        0.0000 
     43 CA        -43.7795  -54.0284    3.0922 C.3       5 GLC5        0.0000 
     44 CA        -42.8430  -56.0620    2.6870 C.3      15 GLL5        0.0000 
     45 CA        -44.8820  -52.6580    4.1120 C.3      10 GLP5        0.0000 
@<TRIPOS>BOND
@<TRIPOS>SUBSTRUCTURE
     1 ALC1       32 GROUP        1 X    ALC  0     ROOT ALC X 1
     2 SEC2        4 GROUP        1 X    SEC  0     **** SEC X 2
     3 ASC3       27 GROUP        1 X    ASC  0     **** ASC X 3
     4 LYC4        1 GROUP        1 X    LYC  0     **** LYC X 4
     5 GLC5        7 GROUP        1 X    GLC  0     **** GLC X 6
     6 ALP1       34 GROUP        1 Y    ALP  0     ROOT ALP Y 8
     7 SEP2        6 GROUP        1 Y    SEP  0     **** SEP Y 9
     8 ASP3       29 GROUP        1 Y    ASP  0     **** ASP Y 10
     9 LYP4        3 GROUP        1 Y    LYP  0     **** LYP Y 11
    10 GLP5        9 GROUP        1 Y    GLP  0     **** GLP Y 13
    11 ALL1       33 GROUP        1 Z    ALL  0     ROOT ALL Z 15
    12 SEL2        5 GROUP        1 Z    SEL  0     **** SEL Z 16
    13 ASL3       28 GROUP        1 Z    ASL  0     **** ASL Z 17
    14 LYL4        2 GROUP        1 Z    LYL  0     **** LYL Z 18
    15 GLL5        8 GROUP        1 Z    GLL  0     **** GLL Z 20
@<TRIPOS>SET

