#    Name: 3pdq_KC6_2_ligand
#    Modification time : Tue Mar 25 06:20:21 2014

@<TRIPOS>MOLECULE
3pdq_KC6_2_ligand
   35    36     1     0     0
SMALL
NO_CHARGES


@<TRIPOS>ATOM
      1 O01       -44.1070  -54.8020   -0.4360 O.co2     1 KC6503      0.0000 
      2 C02       -44.2870  -55.0650    0.7590 C.2       1 KC6503      0.0000 
      3 C03       -43.0180  -55.1790    1.6160 C.ar      1 KC6503      0.0000 
      4 C04       -42.0040  -54.2920    1.3000 C.ar      1 KC6503      0.0000 
      5 C05       -40.8350  -54.3370    2.0500 C.ar      1 KC6503      0.0000 
      6 N06       -40.6370  -55.1500    3.0850 N.ar      1 KC6503      0.0000 
      7 C07       -41.6330  -56.0270    3.4140 C.ar      1 KC6503      0.0000 
      8 C08       -41.3700  -56.9880    4.5660 C.ar      1 KC6503      0.0000 
      9 C09       -42.4090  -57.8300    5.0490 C.ar      1 KC6503      0.0000 
     10 C10       -42.1670  -58.7570    6.0630 C.ar      1 KC6503      0.0000 
     11 C11       -43.2480  -59.6650    6.5920 C.2       1 KC6503      0.0000 
     12 N12       -43.0240  -61.0340    6.8230 N.am      1 KC6503      0.0000 
     13 C13       -44.0730  -61.9400    7.3390 C.3       1 KC6503      0.0000 
     14 C14       -44.9430  -61.3870    8.5150 C.3       1 KC6503      0.0000 
     15 N15       -46.0770  -60.5470    8.0950 N.4       1 KC6503      0.0000 
     16 O16       -44.4000  -59.2170    6.5970 O.2       1 KC6503      0.0000 
     17 C17       -40.8660  -58.8890    6.5610 C.ar      1 KC6503      0.0000 
     18 C18       -39.8740  -58.0660    6.0040 C.ar      1 KC6503      0.0000 
     19 N19       -40.0870  -57.1720    5.0120 N.ar      1 KC6503      0.0000 
     20 C20       -42.8430  -56.0620    2.6870 C.ar      1 KC6503      0.0000 
     21 O21       -45.3700  -55.2420    1.3830 O.co2     1 KC6503      0.0000 
     22 H         -42.1088  -53.6243    0.5401 H         1 KC6503      0.0000 
     23 H         -40.0571  -53.6647    1.7573 H         1 KC6503      0.0000 
     24 H         -43.3481  -57.7455    4.6374 H         1 KC6503      0.0000 
     25 H         -42.1003  -61.4523    6.6342 H         1 KC6503      0.0000 
     26 H         -43.6210  -62.8960    7.6892 H         1 KC6503      0.0000 
     27 H         -44.7736  -62.2265    6.5216 H         1 KC6503      0.0000 
     28 H         -44.2647  -60.8229    9.1849 H         1 KC6503      0.0000 
     29 H         -45.2970  -62.2604    9.0972 H         1 KC6503      0.0000 
     30 H         -40.6474  -59.5475    7.2900 H         1 KC6503      0.0000 
     31 H         -38.8930  -58.1685    6.4046 H         1 KC6503      0.0000 
     32 H         -43.5730  -56.7217    2.9429 H         1 KC6503      0.0000 
     33 H         -45.7743  -59.7446    7.5807 H         1 KC6503      0.0000 
     34 H         -46.7133  -61.0482    7.5085 H         1 KC6503      0.0000 
     35 H         -46.6015  -60.2126    8.8780 H         1 KC6503      0.0000 
@<TRIPOS>BOND
     1    2    1 ar   
     2    3    2 1    
     3   21    2 ar   
     4    4    3 ar   
     5   20    3 ar   
     6    5    4 ar   
     7   22    4 1    
     8    6    5 ar   
     9   23    5 1    
    10    7    6 ar   
    11    8    7 1    
    12   20    7 ar   
    13    9    8 ar   
    14   19    8 ar   
    15   10    9 ar   
    16   24    9 1    
    17   11   10 1    
    18   17   10 ar   
    19   12   11 am   
    20   16   11 2    
    21   13   12 1    
    22   25   12 1    
    23   14   13 1    
    24   26   13 1    
    25   27   13 1    
    26   15   14 1    
    27   28   14 1    
    28   29   14 1    
    29   33   15 1    
    30   34   15 1    
    31   35   15 1    
    32   18   17 ar   
    33   30   17 1    
    34   19   18 ar   
    35   31   18 1    
    36   32   20 1    
@<TRIPOS>SUBSTRUCTURE
     1 KC6503      1 GROUP   
@<TRIPOS>SET

