#    Name: 4I0F_1_CAVITY_N1_ALL.mol2
#    Modification time : Tue Mar 11 03:54:45 2014

@<TRIPOS>MOLECULE
4I0F_1_CAVITY_N1_ALL.mol2
   89     0     6     0     0
SMALL
NO_CHARGES


@<TRIPOS>ATOM
      1 N           5.9124  -14.4323    6.4169 N.2       2 ALA2        0.0000 
      2 CZ          9.6765  -11.9665    6.3744 C.ar      4 PHE5        0.0000 
      3 N           9.3696  -13.3324    5.8356 N.2       2 ALA2        0.0000 
      4 N           8.2943  -13.4981    6.8683 N.2       2 ALA2        0.0000 
      5 CA          9.0627  -14.6982    5.2968 C.3       5 GLY6        0.0000 
      6 N           7.9875  -14.8640    6.3295 N.2       2 ALA2        0.0000 
      7 N           6.9122  -15.0297    7.3621 N.2       2 ALA2        0.0000 
      8 CA          5.8369  -15.1955    8.3948 C.3       5 GLY6        0.0000 
      9 CA          8.7558  -16.0641    4.7581 C.3       5 GLY6        0.0000 
     10 N           7.6806  -16.2298    5.7907 N.2       2 ALA2        0.0000 
     11 CA          6.6053  -16.3956    6.8233 C.3       5 GLY6        0.0000 
     12 CA          5.5301  -16.5614    7.8560 C.3       5 GLY6        0.0000 
     13 CZ         11.7515  -12.3982    6.2869 C.ar      4 PHE5        0.0000 
     14 CZ         10.6763  -12.5640    7.3196 C.ar      4 PHE5        0.0000 
     15 CZ          9.6010  -12.7298    8.3522 C.ar      4 PHE5        0.0000 
     16 CA         11.4447  -13.7641    5.7482 C.3       5 GLY6        0.0000 
     17 DU         10.3694  -13.9299    6.7808 H         6 CUB7        0.0000 
     18 N           9.2941  -14.0956    7.8134 N.2       2 ALA2        0.0000 
     19 N           8.2189  -14.2614    8.8461 N.2       2 ALA2        0.0000 
     20 CZ          7.1436  -14.4271    9.8787 C.ar      4 PHE5        0.0000 
     21 CA         10.0625  -15.2957    6.2420 C.3       5 GLY6        0.0000 
     22 DU          8.9873  -15.4615    7.2747 H         6 CUB7        0.0000 
     23 DU          7.9120  -15.6272    8.3073 H         6 CUB7        0.0000 
     24 CA          6.8368  -15.7930    9.3399 C.3       5 GLY6        0.0000 
     25 N           9.7557  -16.6616    5.7033 N.2       2 ALA2        0.0000 
     26 DU          8.6804  -16.8273    6.7359 H         6 CUB7        0.0000 
     27 DU          7.6052  -16.9931    7.7685 H         6 CUB7        0.0000 
     28 CA          6.5299  -17.1588    8.8012 C.3       5 GLY6        0.0000 
     29 DU          8.3735  -18.1932    6.1971 H         6 CUB7        0.0000 
     30 CZ         11.9830  -11.7956    8.8035 C.ar      4 PHE5        0.0000 
     31 CZ         11.6761  -13.1615    8.2648 C.ar      4 PHE5        0.0000 
     32 CZ         10.6008  -13.3272    9.2974 C.ar      4 PHE5        0.0000 
     33 CZ          9.5256  -13.4930   10.3300 C.ar      4 PHE5        0.0000 
     34 CZ         12.4445  -14.3616    6.6934 C.ar      4 PHE5        0.0000 
     35 DU         11.3692  -14.5273    7.7260 H         6 CUB7        0.0000 
     36 DU         10.2940  -14.6931    8.7586 H         6 CUB7        0.0000 
     37 CZ          9.2187  -14.8588    9.7913 C.ar      4 PHE5        0.0000 
     38 CZ          8.1435  -15.0246   10.8239 C.ar      4 PHE5        0.0000 
     39 N          12.1376  -15.7274    6.1546 N.2       2 ALA2        0.0000 
     40 DU         11.0624  -15.8932    7.1872 H         6 CUB7        0.0000 
     41 DU          9.9871  -16.0589    8.2199 H         6 CUB7        0.0000 
     42 DU          8.9118  -16.2247    9.2525 H         6 CUB7        0.0000 
     43 CA          7.8366  -16.3904   10.2851 C.3       5 GLY6        0.0000 
     44 CA          6.7613  -16.5562   11.3178 C.3       5 GLY6        0.0000 
     45 N          10.7555  -17.2590    6.6485 N.2       2 ALA2        0.0000 
     46 DU          9.6802  -17.4248    7.6811 H         6 CUB7        0.0000 
     47 DU          8.6050  -17.5905    8.7137 H         6 CUB7        0.0000 
     48 N           7.5297  -17.7563    9.7464 N.2       2 ALA2        0.0000 
     49 CA          6.4545  -17.9220   10.7790 C.3       5 GLY6        0.0000 
     50 N          10.4486  -18.6249    6.1097 N.2       2 ALA2        0.0000 
     51 DU          9.3734  -18.7906    7.1423 H         6 CUB7        0.0000 
     52 N           8.2981  -18.9564    8.1750 N.2       2 ALA2        0.0000 
     53 N           7.2228  -19.1221    9.2076 N.2       2 ALA2        0.0000 
     54 OG         12.9828  -12.3931    9.7487 O.2       1 SER1        0.0000 
     55 CA         11.9075  -12.5588   10.7814 C.3       5 GLY6        0.0000 
     56 CZ         12.6759  -13.7589    9.2100 C.ar      4 PHE5        0.0000 
     57 CA         11.6007  -13.9247   10.2426 C.3       5 GLY6        0.0000 
     58 CA         10.5254  -14.0904   11.2752 C.3       5 GLY6        0.0000 
     59 CZ         13.4443  -14.9590    7.6385 C.ar      4 PHE5        0.0000 
     60 N          12.3691  -15.1248    8.6712 N.2       2 ALA2        0.0000 
     61 N          11.2938  -15.2905    9.7038 N.2       2 ALA2        0.0000 
     62 CA         10.2185  -15.4563   10.7365 C.3       5 GLY6        0.0000 
     63 CA          9.1433  -15.6221   11.7691 C.3       5 GLY6        0.0000 
     64 CZ          8.0680  -15.7878   12.8017 C.ar      4 PHE5        0.0000 
     65 N          13.1374  -16.3249    7.0998 N.2       2 ALA2        0.0000 
     66 N          12.0622  -16.4906    8.1324 N.2       2 ALA2        0.0000 
     67 N          10.9869  -16.6564    9.1651 N.2       2 ALA2        0.0000 
     68 N           9.9117  -16.8222   10.1977 N.2       2 ALA2        0.0000 
     69 DU          8.8364  -16.9879   11.2303 H         6 CUB7        0.0000 
     70 N           7.7611  -17.1537   12.2630 N.2       2 ALA2        0.0000 
     71 N          12.8306  -17.6907    6.5610 N.2       2 ALA2        0.0000 
     72 N          11.7553  -17.8565    7.5936 N.2       2 ALA2        0.0000 
     73 N          10.6801  -18.0223    8.6263 N.2       2 ALA2        0.0000 
     74 N           9.6048  -18.1880    9.6589 N.2       2 ALA2        0.0000 
     75 N           8.5295  -18.3538   10.6916 N.2       2 ALA2        0.0000 
     76 DU         11.4485  -19.2224    7.0549 H         6 CUB7        0.0000 
     77 OG         10.3732  -19.3881    8.0875 O.2       1 SER1        0.0000 
     78 OG          9.2979  -19.5539    9.1201 O.2       1 SER1        0.0000 
     79 N           8.2227  -19.7196   10.1528 N.2       2 ALA2        0.0000 
     80 NZ         13.6757  -14.3564   10.1551 N.2       3 LYS4        0.0000 
     81 CA         12.6005  -14.5222   11.1878 C.3       5 GLY6        0.0000 
     82 N          13.3689  -15.7223    9.6164 N.2       2 ALA2        0.0000 
     83 N          11.2184  -16.0538   11.6817 N.2       2 ALA2        0.0000 
     84 CA         10.1431  -16.2195   12.7143 C.3       5 GLY6        0.0000 
     85 N           9.8362  -17.5854   12.1755 N.2       2 ALA2        0.0000 
     86 CA          8.7610  -17.7511   13.2082 C.3       5 GLY6        0.0000 
     87 OG          9.5294  -18.9512   11.6367 O.2       1 SER1        0.0000 
     88 N          10.8361  -18.1828   13.1207 N.2       2 ALA2        0.0000 
     89 N          10.5292  -19.5487   12.5819 N.2       2 ALA2        0.0000 
@<TRIPOS>BOND
@<TRIPOS>SUBSTRUCTURE
     1 SER1       54 GROUP   
     2 ALA2        1 GROUP   
     3 LYS4       80 GROUP   
     4 PHE5        2 GROUP   
     5 GLY6        5 GROUP   
     6 CUB7       17 GROUP   
@<TRIPOS>SET

