#    Name: 4i0f_1BF_1_INTS_M
#    Modification time : Tue Mar 25 02:06:32 2014

@<TRIPOS>MOLECULE
4i0f_1BF_1_INTS_M
   61     0     9     0     0
SMALL
NO_CHARGES


@<TRIPOS>ATOM
      1 CA         11.7760  -10.7805    4.7500 C.3       3 GLC5        0.0000 
      2 CA          9.9610  -11.3380    4.5550 C.3       9 GLL5        0.0000 
      3 CA         13.5910  -10.2230    4.9450 C.3       6 GLP5        0.0000 
      4 CA          9.7185  -10.9965    2.7935 C.3       3 GLC5        0.0000 
      5 CA          9.4760  -10.6550    1.0320 C.3       6 GLP5        0.0000 
      6 CA         10.3850   -9.4050    3.5960 C.3       3 GLC5        0.0000 
      7 CA         10.8090   -7.4720    2.6370 C.3       6 GLP5        0.0000 
      8 CA          9.7460  -10.6260    6.2940 C.3       3 GLC5        0.0000 
      9 CA          9.5310   -9.9140    8.0330 C.3       6 GLP5        0.0000 
     10 CA          8.5290  -11.6290    6.0590 C.3       3 GLC5        0.0000 
     11 CA         10.3020  -12.7740    5.5610 C.3       9 GLL5        0.0000 
     12 CA          6.7560  -10.4840    6.5570 C.3       6 GLP5        0.0000 
     13 CA         13.6530  -12.9670    7.4940 C.3       3 GLC5        0.0000 
     14 CA         12.5080  -13.7890    8.4520 C.3       9 GLL5        0.0000 
     15 CA         14.7980  -12.1450    6.5360 C.3       6 GLP5        0.0000 
     16 CA         13.9870  -14.0955   12.6105 C.3       3 GLC5        0.0000 
     17 CA         12.9480  -14.6400   10.6960 C.3       9 GLL5        0.0000 
     18 CA         15.0260  -13.5510   14.5250 C.3       6 GLP5        0.0000 
     19 CA         13.0330  -12.7640   11.4500 C.3       3 GLC5        0.0000 
     20 CA         13.1180  -10.8880   12.2040 C.3       6 GLP5        0.0000 
     21 CA         13.4520  -16.0975   11.8270 C.3       3 GLC5        0.0000 
     22 CA         13.9560  -17.5550   12.9580 C.3       6 GLP5        0.0000 
     23 CA         10.5265  -11.8795    9.6595 C.3       3 GLC5        0.0000 
     24 CA         10.6760  -13.8810   10.1890 C.3       9 GLL5        0.0000 
     25 CA         10.3770   -9.8780    9.1300 C.3       6 GLP5        0.0000 
     26 CA          8.9015  -12.9975   10.9950 C.3       3 GLC5        0.0000 
     27 CA          7.1270  -12.1140   11.8010 C.3       6 GLP5        0.0000 
     28 CA         11.8970  -12.3845   11.1965 C.3       3 GLC5        0.0000 
     29 O          12.2110  -16.9510    9.9650 O.2       1 ALC1        0.0000 
     30 O          11.5830  -15.9400    9.1050 O.2       7 ALL1        0.0000 
     31 O          12.8390  -17.9620   10.8250 O.2       4 ALP1        0.0000 
     32 CA         12.4045  -19.5495    9.3705 C.3       3 GLC5        0.0000 
     33 CA         10.8320  -18.6080    8.2490 C.3       9 GLL5        0.0000 
     34 CA         13.9770  -20.4910   10.4920 C.3       6 GLP5        0.0000 
     35 N          12.0015  -21.4550    9.1155 N.am      2 SEC2        0.0000 
     36 N          11.7920  -20.7450    7.8910 N.am      8 SEL2        0.0000 
     37 N          12.2110  -22.1650   10.3400 N.am      5 SEP2        0.0000 
     38 CA          9.7420  -21.2195    9.3445 C.3       3 GLC5        0.0000 
     39 CA          9.4280  -19.1070    8.6540 C.3       9 GLL5        0.0000 
     40 CA         10.0560  -23.3320   10.0350 C.3       6 GLP5        0.0000 
     41 CA          8.7610  -18.0695   13.9185 C.3       3 GLC5        0.0000 
     42 CA          9.0380  -17.3900   12.3000 C.3       9 GLL5        0.0000 
     43 CA          8.4840  -18.7490   15.5370 C.3       6 GLP5        0.0000 
     44 CA          9.3610  -16.3465   13.8750 C.3       3 GLC5        0.0000 
     45 CA          9.6840  -15.3030   15.4500 C.3       6 GLP5        0.0000 
     46 CA          6.8220  -17.8000   12.1520 C.3       3 GLC5        0.0000 
     47 CA          8.0440  -16.4370   11.2510 C.3       9 GLL5        0.0000 
     48 CA          5.6000  -19.1630   13.0530 C.3       6 GLP5        0.0000 
     49 CA         12.1565  -12.2557    4.5032 C.3       3 GLC5        0.0000 
     50 CA         13.5250  -11.8030    2.9620 C.3       6 GLP5        0.0000 
     51 CA         10.9984  -13.6342    4.3145 C.3       3 GLC5        0.0000 
     52 CA         11.2940  -14.9190    2.8360 C.3       6 GLP5        0.0000 
     53 CA         10.7461  -14.8343    4.6188 C.3       3 GLC5        0.0000 
     54 CA          9.5710  -13.9400    5.3360 C.3       9 GLL5        0.0000 
     55 CA         11.1604  -14.0481   11.9949 C.3       3 GLC5        0.0000 
     56 CA         10.7680  -13.8470   13.8230 C.3       6 GLP5        0.0000 
     57 CA          7.4607  -18.5775   12.3950 C.3       3 GLC5        0.0000 
     58 CA          6.0700  -16.5195   10.3978 C.3       3 GLC5        0.0000 
     59 CA          4.0250  -16.2820   10.1670 C.3       6 GLP5        0.0000 
     60 CA          5.6872  -16.5290    9.1982 C.3       3 GLC5        0.0000 
     61 CA          7.5530  -16.4480    8.7970 C.3       9 GLL5        0.0000 
@<TRIPOS>BOND
@<TRIPOS>SUBSTRUCTURE
     1 ALC1       29 GROUP        1 X    ALC  0     ROOT ALC X 1
     2 SEC2       35 GROUP        1 X    SEC  0     **** SEC X 2
     3 GLC5        1 GROUP        1 X    GLC  0     **** GLC X 6
     4 ALP1       31 GROUP        1 Y    ALP  0     ROOT ALP Y 8
     5 SEP2       37 GROUP        1 Y    SEP  0     **** SEP Y 9
     6 GLP5        3 GROUP        1 Y    GLP  0     **** GLP Y 13
     7 ALL1       30 GROUP        1 Z    ALL  0     ROOT ALL Z 15
     8 SEL2       36 GROUP        1 Z    SEL  0     **** SEL Z 16
     9 GLL5        2 GROUP        1 Z    GLL  0     **** GLL Z 20
@<TRIPOS>SET

