#    Name: 4i0f_1BF_1_ligand
#    Modification time : Tue Mar 25 02:06:32 2014

@<TRIPOS>MOLECULE
4i0f_1BF_1_ligand
   50    53     1     0     0
SMALL
NO_CHARGES


@<TRIPOS>ATOM
      1 CL1         9.9610  -11.3380    4.5550 Cl        1 1BF504      0.0000 
      2 C2         10.3020  -12.7740    5.5610 C.ar      1 1BF504      0.0000 
      3 C3          9.5710  -13.9400    5.3360 C.ar      1 1BF504      0.0000 
      4 C4          9.7600  -15.0860    6.0900 C.ar      1 1BF504      0.0000 
      5 C7         11.2740  -12.6430    6.5280 C.ar      1 1BF504      0.0000 
      6 C6         11.4970  -13.7740    7.3240 C.ar      1 1BF504      0.0000 
      7 C5         10.7310  -14.9860    7.0900 C.ar      1 1BF504      0.0000 
      8 C11        12.5080  -13.7890    8.4520 C.3       1 1BF504      0.0000 
      9 C10        11.9110  -14.5950    9.5930 C.3       1 1BF504      0.0000 
     10 C28        12.9480  -14.6400   10.6960 C.3       1 1BF504      0.0000 
     11 C29        10.6760  -13.8810   10.1890 C.3       1 1BF504      0.0000 
     12 N9         11.5830  -15.9400    9.1050 N.pl3     1 1BF504      0.0000 
     13 C8         11.0570  -16.1600    7.9690 C.2       1 1BF504      0.0000 
     14 N12        10.8080  -17.3620    7.4480 N.pl3     1 1BF504      0.0000 
     15 C13        10.8320  -18.6080    8.2490 C.3       1 1BF504      0.0000 
     16 C25        11.5300  -19.6260    7.4030 C.2       1 1BF504      0.0000 
     17 O26        11.7920  -20.7450    7.8910 O.co2     1 1BF504      0.0000 
     18 O27        11.7850  -19.4380    6.2100 O.co2     1 1BF504      0.0000 
     19 C14         9.4280  -19.1070    8.6540 C.3       1 1BF504      0.0000 
     20 C15         9.0840  -18.2970    9.9050 C.2       1 1BF504      0.0000 
     21 C16         9.6050  -18.5940   11.1740 C.2       1 1BF504      0.0000 
     22 S17         9.0380  -17.3900   12.3000 S.3       1 1BF504      0.0000 
     23 C18         8.0440  -16.4370   11.2510 C.2       1 1BF504      0.0000 
     24 C19         8.1860  -17.0770   10.0060 C.2       1 1BF504      0.0000 
     25 C20         7.5530  -16.4480    8.7970 C.2       1 1BF504      0.0000 
     26 C21         7.4140  -15.0330    8.6720 C.2       1 1BF504      0.0000 
     27 N22         6.8870  -14.8100    7.4390 N.2       1 1BF504      0.0000 
     28 N23         6.7150  -16.0870    6.8270 N.pl3     1 1BF504      0.0000 
     29 C24         7.1460  -17.1040    7.6620 C.2       1 1BF504      0.0000 
     30 H           8.8586  -13.9450    4.5729 H         1 1BF504      0.0000 
     31 H           9.2451  -15.9230    5.9360 H         1 1BF504      0.0000 
     32 H          11.7935  -11.7999    6.6625 H         1 1BF504      0.0000 
     33 H          12.6988  -12.7813    8.7832 H         1 1BF504      0.0000 
     34 H          13.4194  -14.2571    8.1177 H         1 1BF504      0.0000 
     35 H          11.8280  -16.7101    9.7932 H         1 1BF504      0.0000 
     36 H          10.5797  -17.4956    6.4363 H         1 1BF504      0.0000 
     37 H          11.4180  -18.4513    9.1431 H         1 1BF504      0.0000 
     38 H           9.4764  -20.1391    8.8924 H         1 1BF504      0.0000 
     39 H           8.7388  -18.8868    7.8787 H         1 1BF504      0.0000 
     40 H          10.1323  -19.2220   11.5267 H         1 1BF504      0.0000 
     41 H           7.6376  -15.7677   11.5962 H         1 1BF504      0.0000 
     42 H           7.6509  -14.4148    9.3323 H         1 1BF504      0.0000 
     43 H           6.3449  -16.2030    5.9461 H         1 1BF504      0.0000 
     44 H           7.1546  -18.0127    7.4882 H         1 1BF504      0.0000 
     45 H          13.7959  -15.0737   10.3911 H         1 1BF504      0.0000 
     46 H          13.1869  -13.7242   11.0188 H         1 1BF504      0.0000 
     47 H          12.6241  -15.1552   11.4895 H         1 1BF504      0.0000 
     48 H          10.9079  -12.9783   10.5515 H         1 1BF504      0.0000 
     49 H           9.9587  -13.7469    9.5053 H         1 1BF504      0.0000 
     50 H          10.2714  -14.4033   10.9397 H         1 1BF504      0.0000 
@<TRIPOS>BOND
     1    2    1 1    
     2    3    2 ar   
     3    5    2 ar   
     4    4    3 ar   
     5   30    3 1    
     6    7    4 ar   
     7   31    4 1    
     8    6    5 ar   
     9   32    5 1    
    10    7    6 ar   
    11    8    6 1    
    12   13    7 1    
    13    9    8 1    
    14   33    8 1    
    15   34    8 1    
    16   10    9 1    
    17   11    9 1    
    18   12    9 1    
    19   45   10 1    
    20   46   10 1    
    21   47   10 1    
    22   48   11 1    
    23   49   11 1    
    24   50   11 1    
    25   13   12 1    
    26   35   12 1    
    27   14   13 2    
    28   15   14 1    
    29   36   14 1    
    30   16   15 1    
    31   19   15 1    
    32   37   15 1    
    33   17   16 ar   
    34   18   16 ar   
    35   20   19 1    
    36   38   19 1    
    37   39   19 1    
    38   21   20 2    
    39   24   20 1    
    40   22   21 1    
    41   40   21 1    
    42   23   22 1    
    43   24   23 2    
    44   41   23 1    
    45   25   24 1    
    46   26   25 1    
    47   29   25 2    
    48   27   26 2    
    49   42   26 1    
    50   28   27 1    
    51   29   28 1    
    52   43   28 1    
    53   44   29 1    
@<TRIPOS>SUBSTRUCTURE
     1 1BF504      1 GROUP   
@<TRIPOS>SET

