#    Name: 3vb7_ALA_VAL_LEU_0JU_1_INTS_M
#    Modification time : Tue Mar 25 00:26:49 2014

@<TRIPOS>MOLECULE
3vb7_ALA_VAL_LEU_0JU_1_INTS_M
   72     0     9     0     0
SMALL
NO_CHARGES


@<TRIPOS>ATOM
      1 O          -3.4665  -20.6945   36.9230 O.2       1 ALC1        0.0000 
      2 O          -1.9420  -20.2680   36.4730 O.2       7 ALL1        0.0000 
      3 O          -4.9910  -21.1210   37.3730 O.2       4 ALP1        0.0000 
      4 CA         -1.3665  -18.2695   34.5195 C.3       3 GLC5        0.0000 
      5 CA         -1.9560  -18.8170   36.5680 C.3       9 GLL5        0.0000 
      6 CA         -0.7770  -17.7220   32.4710 C.3       6 GLP5        0.0000 
      7 CA         -1.7500  -19.6430   34.7145 C.3       3 GLC5        0.0000 
      8 CA         -1.5440  -20.4690   32.8610 C.3       6 GLP5        0.0000 
      9 CA         -4.0810  -16.5850   35.7295 C.3       3 GLC5        0.0000 
     10 CA         -3.3890  -18.3080   36.7120 C.3       9 GLL5        0.0000 
     11 CA         -4.7730  -14.8620   34.7470 C.3       6 GLP5        0.0000 
     12 CA         -3.6875  -17.8605   34.6500 C.3       3 GLC5        0.0000 
     13 CA         -3.9860  -17.4130   32.5880 C.3       6 GLP5        0.0000 
     14 CA         -3.7145  -18.5075   38.9075 C.3       3 GLC5        0.0000 
     15 CA         -4.0400  -18.7070   41.1030 C.3       6 GLP5        0.0000 
     16 CA         -5.0150  -18.5465   35.8195 C.3       3 GLC5        0.0000 
     17 CA         -6.6410  -18.7850   34.9270 C.3       6 GLP5        0.0000 
     18 O          -0.2340  -16.9565   36.2560 O.2       1 ALC1        0.0000 
     19 O          -0.3850  -17.2730   37.5740 O.2       7 ALL1        0.0000 
     20 O          -0.0830  -16.6400   34.9380 O.2       4 ALP1        0.0000 
     21 CA         -0.8390  -17.0365   40.3370 C.3       3 GLC5        0.0000 
     22 CA          0.4350  -16.7170   38.6460 C.3       9 GLL5        0.0000 
     23 CA         -2.1130  -17.3560   42.0280 C.3       6 GLP5        0.0000 
     24 N           0.3965  -14.1905   36.4420 N.am      2 SEC2        0.0000 
     25 N           0.4190  -14.5000   37.8080 N.am      8 SEL2        0.0000 
     26 N           0.3740  -13.8810   35.0760 N.am      5 SEP2        0.0000 
     27 O          -0.0440  -15.6080   41.1040 O.2       1 ALC1        0.0000 
     28 O          -0.1780  -14.7460   39.9390 O.2       7 ALL1        0.0000 
     29 O           0.0900  -16.4700   42.2690 O.2       4 ALP1        0.0000 
     30 CA         -1.2540  -13.1330   38.2755 C.3       3 GLC5        0.0000 
     31 CA         -0.3880  -13.3070   40.1030 C.3       9 GLL5        0.0000 
     32 CA         -2.1200  -12.9590   36.4480 C.3       6 GLP5        0.0000 
     33 CA         -1.2875  -11.4165   42.1965 C.3       3 GLC5        0.0000 
     34 CA         -1.2120  -13.1560   41.3760 C.3       9 GLL5        0.0000 
     35 CA         -1.3630   -9.6770   43.0170 C.3       6 GLP5        0.0000 
     36 CA         -2.3895  -13.4190   43.2020 C.3       3 GLC5        0.0000 
     37 CA         -3.5670  -13.6820   45.0280 C.3       6 GLP5        0.0000 
     38 CA         -5.3285  -11.9780   41.1025 C.3       3 GLC5        0.0000 
     39 CA         -3.5830  -12.6810   42.0010 C.3       9 GLL5        0.0000 
     40 CA         -7.0740  -11.2750   40.2040 C.3       6 GLP5        0.0000 
     41 CA         -2.6045  -13.1285   38.0455 C.3       3 GLC5        0.0000 
     42 CA         -3.0890  -13.2980   39.6430 C.3       9 GLL5        0.0000 
     43 CA         -5.1940  -13.0150   39.7095 C.3       3 GLC5        0.0000 
     44 CA         -7.2990  -12.7320   39.7760 C.3       6 GLP5        0.0000 
     45 N           5.2540   -9.3700   40.0570 N.am      2 SEC2        0.0000 
     46 N           3.5880   -9.3380   39.7990 N.am      8 SEL2        0.0000 
     47 N           6.9200   -9.4020   40.3150 N.am      5 SEP2        0.0000 
     48 N           3.6425   -8.0405   39.0490 N.am      2 SEC2        0.0000 
     49 N           3.6970   -6.7430   38.2990 N.am      5 SEP2        0.0000 
     50 CA          2.5095   -9.8395   36.1260 C.3       3 GLC5        0.0000 
     51 CA          2.8800  -11.4690   37.4280 C.3       9 GLL5        0.0000 
     52 CA          2.1390   -8.2100   34.8240 C.3       6 GLP5        0.0000 
     53 CA          0.9740  -11.7880   36.7255 C.3       3 GLC5        0.0000 
     54 CA         -0.9320  -12.1070   36.0230 C.3       6 GLP5        0.0000 
     55 CA          6.0955  -11.6035   38.2290 C.3       3 GLC5        0.0000 
     56 CA          4.3400  -11.8080   37.1890 C.3       9 GLL5        0.0000 
     57 CA          7.8510  -11.3990   39.2690 C.3       6 GLP5        0.0000 
     58 N           2.9075  -10.6170   34.6430 N.am      2 SEC2        0.0000 
     59 N           3.7040  -11.7230   34.9060 N.am      8 SEL2        0.0000 
     60 N           2.1110   -9.5110   34.3800 N.am      5 SEP2        0.0000 
     61 O           5.3135  -13.7510   34.2620 O.2       1 ALC1        0.0000 
     62 O           5.4570  -13.0450   35.4560 O.2       7 ALL1        0.0000 
     63 O           5.1700  -14.4570   33.0680 O.2       4 ALP1        0.0000 
     64 CA         -2.0290  -15.3438   41.6337 C.3       3 GLC5        0.0000 
     65 CA         -2.9133  -11.3875   42.1650 C.3       3 GLC5        0.0000 
     66 CA         -2.6780  -13.5070   41.1030 C.3       9 GLL5        0.0000 
     67 CA         -2.6960   -9.6810   42.7780 C.3       6 GLP5        0.0000 
     68 CA         -3.7672  -13.9645   42.7410 C.3       3 GLC5        0.0000 
     69 CA         -4.4040  -14.8350   43.9300 C.3       6 GLP5        0.0000 
     70 CA          2.0195  -10.1305   38.4760 C.3       3 GLC5        0.0000 
     71 CA          2.6000  -11.3010   38.9140 C.3       9 GLL5        0.0000 
     72 CA          1.2990   -8.8760   38.7810 C.3       6 GLP5        0.0000 
@<TRIPOS>BOND
@<TRIPOS>SUBSTRUCTURE
     1 ALC1        1 GROUP        1 X    ALC  0     ROOT ALC X 1
     2 SEC2       24 GROUP        1 X    SEC  0     **** SEC X 2
     3 GLC5        4 GROUP        1 X    GLC  0     **** GLC X 6
     4 ALP1        3 GROUP        1 Y    ALP  0     ROOT ALP Y 8
     5 SEP2       26 GROUP        1 Y    SEP  0     **** SEP Y 9
     6 GLP5        6 GROUP        1 Y    GLP  0     **** GLP Y 13
     7 ALL1        2 GROUP        1 Z    ALL  0     ROOT ALL Z 15
     8 SEL2       25 GROUP        1 Z    SEL  0     **** SEL Z 16
     9 GLL5        5 GROUP        1 Z    GLL  0     **** GLL Z 20
@<TRIPOS>SET

