#    Name: 3vb7_ALA_VAL_LEU_0JU_1_ligand
#    Modification time : Tue Mar 25 00:26:49 2014

@<TRIPOS>MOLECULE
3vb7_ALA_VAL_LEU_0JU_1_ligand
   63    62     4     0     0
SMALL
NO_CHARGES


@<TRIPOS>ATOM
      1 N          -1.9420  -20.2680   36.4730 N.4       1 ALA2        0.0000
      2 CA         -1.9560  -18.8170   36.5680 C.3       1 ALA2        0.0000
      3 C          -1.1490  -18.3530   37.7520 C.2       1 ALA2        0.0000
      4 O          -1.2210  -18.9440   38.8170 O.2       1 ALA2        0.0000
      5 CB         -3.3890  -18.3080   36.7120 C.3       1 ALA2        0.0000
      6 HA         -1.5373  -18.3741   35.6725 H         1 ALA2        0.0000
      7 H          -1.4032  -20.6830   37.2061 H         1 ALA2        0.0000
      8 H          -2.8631  -20.6530   36.5322 H         1 ALA2        0.0000
      9 H          -1.5490  -20.5798   35.6079 H         1 ALA2        0.0000
     10 HB1        -3.4243  -17.3106   36.7749 H         1 ALA2        0.0000
     11 HB2        -3.9572  -18.5728   35.9329 H         1 ALA2        0.0000
     12 HB3        -3.8307  -18.6693   37.5332 H         1 ALA2        0.0000
     13 N          -0.3850  -17.2730   37.5740 N.am      2 VAL3        0.0000
     14 CA          0.4350  -16.7170   38.6460 C.3       2 VAL3        0.0000
     15 C           0.2220  -15.2310   38.7650 C.2       2 VAL3        0.0000
     16 O           0.4190  -14.5000   37.8080 O.2       2 VAL3        0.0000
     17 CB          1.8790  -16.9650   38.2090 C.3       2 VAL3        0.0000
     18 CG1         2.8550  -16.1370   39.0350 C.3       2 VAL3        0.0000
     19 CG2         2.2490  -18.4470   38.2530 C.3       2 VAL3        0.0000
     20 HNCA       -0.3359  -16.7729   36.6606 H         2 VAL3        0.0000
     21 HA          0.2672  -17.2014   39.5595 H         2 VAL3        0.0000
     22 HB          1.9706  -16.6321   37.1610 H         2 VAL3        0.0000
     23 H           3.8023  -16.2893   38.7532 H         2 VAL3        0.0000
     24 H           2.6771  -15.1568   38.9475 H         2 VAL3        0.0000
     25 H           2.7994  -16.3593   40.0084 H         2 VAL3        0.0000
     26 HG21        3.1938  -18.6026   37.9647 H         2 VAL3        0.0000
     27 HG22        2.1575  -18.8255   39.1741 H         2 VAL3        0.0000
     28 HG23        1.6655  -18.9935   37.6523 H         2 VAL3        0.0000
     29 N          -0.1780  -14.7460   39.9390 N.am      3 LEU4        0.0000
     30 CA         -0.3880  -13.3070   40.1030 C.3       3 LEU4        0.0000
     31 C           0.9270  -12.5760   40.1940 C.2       3 LEU4        0.0000
     32 O           1.5640  -12.5150   41.2380 O.2       3 LEU4        0.0000
     33 CB         -1.2120  -13.1560   41.3760 C.3       3 LEU4        0.0000
     34 CG         -2.6780  -13.5070   41.1030 C.3       3 LEU4        0.0000
     35 CD1        -3.5830  -12.6810   42.0010 C.3       3 LEU4        0.0000
     36 CD2        -3.0890  -13.2980   39.6430 C.3       3 LEU4        0.0000
     37 HNCA       -0.3549  -15.3325   40.7641 H         3 LEU4        0.0000
     38 HA         -0.9667  -12.9278   39.2828 H         3 LEU4        0.0000
     39 HB2        -1.1506  -12.1301   41.7277 H         3 LEU4        0.0000
     40 HB3        -0.8225  -13.8218   42.1408 H         3 LEU4        0.0000
     41 HG         -2.8325  -14.5572   41.3538 H         3 LEU4        0.0000
     42 HD11       -3.4018  -12.8523   42.9694 H         3 LEU4        0.0000
     43 HD12       -3.4617  -11.7001   41.8492 H         3 LEU4        0.0000
     44 HD13       -4.5492  -12.8848   41.8430 H         3 LEU4        0.0000
     45 HD21       -2.9674  -12.3480   39.3553 H         3 LEU4        0.0000
     46 HD22       -2.5488  -13.8642   39.0204 H         3 LEU4        0.0000
     47 HD23       -4.0498  -13.5296   39.4908 H         3 LEU4        0.0000
     48 C           2.5820   -9.8310   39.2230 C.2       4 0JU5        0.0000
     49 NF          3.5880   -9.3380   39.7990 N.2       4 0JU5        0.0000
     50 CA          2.6000  -11.3010   38.9140 C.3       4 0JU5        0.0000
     51 N           1.3370  -12.0200   39.0590 N.4       4 0JU5        0.0000
     52 CB          2.8800  -11.4690   37.4280 C.3       4 0JU5        0.0000
     53 CG          4.3400  -11.8080   37.1890 C.3       4 0JU5        0.0000
     54 CD          4.4750  -12.1890   35.7400 C.2       4 0JU5        0.0000
     55 OE          3.7040  -11.7230   34.9060 O.2       4 0JU5        0.0000
     56 NE          5.4570  -13.0450   35.4560 N.am      4 0JU5        0.0000
     57 H           3.3853  -11.7997   39.4334 H         4 0JU5        0.0000
     58 H           2.6336  -10.5423   36.9086 H         4 0JU5        0.0000
     59 H           2.2530  -12.2686   37.0320 H         4 0JU5        0.0000
     60 H           4.6235  -12.6367   37.8161 H         4 0JU5        0.0000
     61 H           4.9484  -10.9449   37.4015 H         4 0JU5        0.0000
     62 H           6.0129  -13.3493   36.2296 H         4 0JU5        0.0000
     63 H           5.5492  -13.3057   34.4950 H         4 0JU5        0.0000
@<TRIPOS>BOND
     1    2    1 1
     2    7    1 1
     3    8    1 1
     4    9    1 1
     5    3    2 1
     6    5    2 1
     7    6    2 1
     8    4    3 2
     9   10    5 1
    10   11    5 1
    11   12    5 1
    12   14   13 1
    13   20   13 1
    14   15   14 1
    15   17   14 1
    16   21   14 1
    17   16   15 2
    18   18   17 1
    19   19   17 1
    20   22   17 1
    21   23   18 1
    22   24   18 1
    23   25   18 1
    24   26   19 1
    25   27   19 1
    26   28   19 1
    27   30   29 1
    28   37   29 1
    29   31   30 1
    30   33   30 1
    31   38   30 1
    32   32   31 2
    33   34   33 1
    34   39   33 1
    35   40   33 1
    36   35   34 1
    37   36   34 1
    38   41   34 1
    39   42   35 1
    40   43   35 1
    41   44   35 1
    42   45   36 1
    43   46   36 1
    44   47   36 1
    45   49   48 2
    46   50   48 1
    47   51   50 1
    48   52   50 1
    49   57   50 1
    50   53   52 1
    51   58   52 1
    52   59   52 1
    53   54   53 1
    54   60   53 1
    55   61   53 1
    56   55   54 2
    57   56   54 am
    58   62   56 1
    59   63   56 1
    60   13    3 am
    61   29   15 am
    62   51   31 1 
@<TRIPOS>SUBSTRUCTURE
     1 ALA2        1 RESIDUE
     2 VAL3       13 RESIDUE
     3 LEU4       29 RESIDUE
     4 0JU5       48 GROUP
@<TRIPOS>SET

