#    Name: 1olm_VTQ_3_INTS_M
#    Modification time : Mon Mar 24 20:18:33 2014

@<TRIPOS>MOLECULE
1olm_VTQ_3_INTS_M
  113     0     6     0     0
SMALL
NO_CHARGES


@<TRIPOS>ATOM
      1 O         -27.4400  -11.5580   56.7705 O.2       1 ALC1        0.0000 
      2 O         -27.4140  -10.3260   57.0930 O.2       5 ALL1        0.0000 
      3 O         -27.4660  -12.7900   56.4480 O.2       3 ALP1        0.0000 
      4 CA        -29.4075  -11.0735   54.6195 C.3       2 GLC5        0.0000 
      5 CA        -28.1910   -9.5530   54.9620 C.3       6 GLL5        0.0000 
      6 CA        -30.6240  -12.5940   54.2770 C.3       4 GLP5        0.0000 
      7 CA        -29.2410   -8.5820   53.2610 C.3       2 GLC5        0.0000 
      8 CA        -30.2910   -7.6110   51.5600 C.3       4 GLP5        0.0000 
      9 CA        -28.9345   -6.6340   57.1370 C.3       2 GLC5        0.0000 
     10 CA        -27.3100   -7.7250   58.2450 C.3       6 GLL5        0.0000 
     11 CA        -30.5590   -5.5430   56.0290 C.3       4 GLP5        0.0000 
     12 CA        -29.9165   -6.7595   57.7025 C.3       2 GLC5        0.0000 
     13 CA        -28.2440   -6.9070   59.1080 C.3       6 GLL5        0.0000 
     14 CA        -31.5890   -6.6120   56.2970 C.3       4 GLP5        0.0000 
     15 CA        -24.9670   -4.5280   58.4140 C.3       2 GLC5        0.0000 
     16 CA        -26.7790   -4.8930   58.7420 C.3       6 GLL5        0.0000 
     17 CA        -23.1550   -4.1630   58.0860 C.3       4 GLP5        0.0000 
     18 CA        -28.1045   -4.1900   57.7030 C.3       2 GLC5        0.0000 
     19 CA        -29.4300   -3.4870   56.6640 C.3       4 GLP5        0.0000 
     20 CA        -30.9125   -6.7010   58.3785 C.3       2 GLC5        0.0000 
     21 CA        -30.2360   -6.7900   60.4600 C.3       6 GLL5        0.0000 
     22 CA        -30.3545   -9.2705   61.6910 C.3       2 GLC5        0.0000 
     23 CA        -31.4500   -7.4440   61.0710 C.3       6 GLL5        0.0000 
     24 CA        -29.2590  -11.0970   62.3110 C.3       4 GLP5        0.0000 
     25 CA        -33.4590   -7.9160   60.3505 C.3       2 GLC5        0.0000 
     26 CA        -35.4680   -8.3880   59.6300 C.3       4 GLP5        0.0000 
     27 CA        -29.8935   -4.0555   63.2110 C.3       2 GLC5        0.0000 
     28 CA        -30.9660   -4.6860   61.5680 C.3       6 GLL5        0.0000 
     29 CA        -28.8210   -3.4250   64.8540 C.3       4 GLP5        0.0000 
     30 CA        -32.3615   -4.8925   63.1290 C.3       2 GLC5        0.0000 
     31 CA        -33.7570   -5.0990   64.6900 C.3       4 GLP5        0.0000 
     32 CA        -24.1710   -8.3240   56.7905 C.3       2 GLC5        0.0000 
     33 CA        -25.9670   -8.8390   55.8190 C.3       6 GLL5        0.0000 
     34 CA        -22.3750   -7.8090   57.7620 C.3       4 GLP5        0.0000 
     35 CA        -24.1125   -9.7430   55.3870 C.3       2 GLC5        0.0000 
     36 CA        -22.2580  -10.6470   54.9550 C.3       4 GLP5        0.0000 
     37 CA        -27.3395   -6.1610   54.7285 C.3       2 GLC5        0.0000 
     38 CA        -25.8760   -7.6970   54.8040 C.3       6 GLL5        0.0000 
     39 CA        -28.8030   -4.6250   54.6530 C.3       4 GLP5        0.0000 
     40 CA        -23.2605   -5.5080   53.3600 C.3       2 GLC5        0.0000 
     41 CA        -23.5160   -7.4310   52.3790 C.3       6 GLL5        0.0000 
     42 CA        -23.0050   -3.5850   54.3410 C.3       4 GLP5        0.0000 
     43 CA        -21.7260   -6.5745   53.0310 C.3       2 GLC5        0.0000 
     44 CA        -19.9360   -5.7180   53.6830 C.3       4 GLP5        0.0000 
     45 CA        -22.0930   -8.8835   52.7100 C.3       2 GLC5        0.0000 
     46 CA        -20.6700  -10.3360   53.0410 C.3       4 GLP5        0.0000 
     47 CA        -21.9310   -7.2800   51.0615 C.3       2 GLC5        0.0000 
     48 CA        -20.3460   -7.1290   49.7440 C.3       4 GLP5        0.0000 
     49 CA        -27.0820   -5.2120   53.7010 C.3       2 GLC5        0.0000 
     50 CA        -25.3610   -5.7990   52.7490 C.3       6 GLL5        0.0000 
     51 CA        -27.3305   -4.1305   53.1590 C.3       2 GLC5        0.0000 
     52 CA        -25.8580   -3.6360   51.6650 C.3       6 GLL5        0.0000 
     53 CA        -22.9745   -2.4010   52.6250 C.3       2 GLC5        0.0000 
     54 CA        -24.0190   -2.0500   51.1720 C.3       6 GLL5        0.0000 
     55 CA        -21.9300   -2.7520   54.0780 C.3       4 GLP5        0.0000 
     56 CA        -22.9530   -0.5540   50.9935 C.3       2 GLC5        0.0000 
     57 CA        -21.8870    0.9420   50.8150 C.3       4 GLP5        0.0000 
     58 CA        -22.0265   -1.9385   50.5325 C.3       2 GLC5        0.0000 
     59 CA        -20.0340   -1.8270   49.8930 C.3       4 GLP5        0.0000 
     60 CA        -27.5520   -1.7560   48.9805 C.3       2 GLC5        0.0000 
     61 CA        -26.4030   -1.4250   50.6200 C.3       6 GLL5        0.0000 
     62 CA        -28.7010   -2.0870   47.3410 C.3       4 GLP5        0.0000 
     63 CA        -25.5660   -1.2445   53.5000 C.3       2 GLC5        0.0000 
     64 CA        -26.8390   -0.7980   51.9450 C.3       6 GLL5        0.0000 
     65 CA        -24.2930   -1.6910   55.0550 C.3       4 GLP5        0.0000 
     66 CA        -29.1580   -0.4455   50.2555 C.3       2 GLC5        0.0000 
     67 CA        -27.7860    0.3630   51.6230 C.3       6 GLL5        0.0000 
     68 CA        -30.5300   -1.2540   48.8880 C.3       4 GLP5        0.0000 
     69 CA        -28.2505    1.3170   49.6870 C.3       2 GLC5        0.0000 
     70 CA        -28.7150    2.2710   47.7510 C.3       4 GLP5        0.0000 
     71 CA        -30.7040    3.0895   52.4960 C.3       2 GLC5        0.0000 
     72 CA        -29.2260    2.0870   52.7630 C.3       6 GLL5        0.0000 
     73 CA        -32.1820    4.0920   52.2290 C.3       4 GLP5        0.0000 
     74 CA        -26.3585    2.8590   54.3500 C.3       2 GLC5        0.0000 
     75 CA        -27.3720    1.0320   54.0510 C.3       6 GLL5        0.0000 
     76 CA        -25.3450    4.6860   54.6490 C.3       4 GLP5        0.0000 
     77 CA        -25.8325   -0.3295   54.5530 C.3       2 GLC5        0.0000 
     78 CA        -29.1285    0.4925   55.3265 C.3       2 GLC5        0.0000 
     79 CA        -30.8850   -0.0470   56.6020 C.3       4 GLP5        0.0000 
     80 CA        -25.6898  -10.6907   56.6580 C.3       2 GLC5        0.0000 
     81 CA        -24.6960  -12.3620   57.3000 C.3       4 GLP5        0.0000 
     82 CA        -28.8369   -7.1536   55.5861 C.3       2 GLC5        0.0000 
     83 CA        -28.0440   -8.0380   56.9470 C.3       6 GLL5        0.0000 
     84 CA        -29.7540   -5.6000   54.9050 C.3       4 GLP5        0.0000 
     85 CA        -27.0040   -6.8240   60.2193 C.3       2 GLC5        0.0000 
     86 CA        -26.2310   -6.3320   61.7620 C.3       4 GLP5        0.0000 
     87 CA        -26.8088   -5.7792   60.4025 C.3       2 GLC5        0.0000 
     88 CA        -27.9940   -5.5600   59.3440 C.3       6 GLL5        0.0000 
     89 CA        -28.1730   -6.2252   61.1707 C.3       2 GLC5        0.0000 
     90 CA        -29.9940   -5.4470   60.6990 C.3       6 GLL5        0.0000 
     91 CA        -26.9020   -6.4765   51.3305 C.3       2 GLC5        0.0000 
     92 CA        -25.0270   -7.2430   52.4090 C.3       6 GLL5        0.0000 
     93 CA        -28.6100   -6.4320   50.0820 C.3       4 GLP5        0.0000 
     94 CA        -24.2585   -9.2804   51.9200 C.3       2 GLC5        0.0000 
     95 CA        -25.7130   -8.2140   53.3770 C.3       6 GLL5        0.0000 
     96 CA        -24.0740  -10.9810   51.2040 C.3       4 GLP5        0.0000 
     97 CA        -24.0922   -4.4670   53.2488 C.3       2 GLC5        0.0000 
     98 CA        -26.8850   -4.6967   50.4877 C.3       2 GLC5        0.0000 
     99 CA        -24.9980   -4.8990   51.5640 C.3       6 GLL5        0.0000 
    100 CA        -28.3420   -5.1260   49.3610 C.3       4 GLP5        0.0000 
    101 CA        -24.8982   -3.0705   53.0090 C.3       2 GLC5        0.0000 
    102 CA        -24.1800   -3.0450   54.8310 C.3       4 GLP5        0.0000 
    103 CA        -27.1155   -3.5583   50.0127 C.3       2 GLC5        0.0000 
    104 CA        -25.3750   -2.5560   50.7090 C.3       6 GLL5        0.0000 
    105 CA        -25.5790   -1.2443   48.7853 C.3       2 GLC5        0.0000 
    106 CA        -25.2690   -0.4980   46.9060 C.3       4 GLP5        0.0000 
    107 CA        -25.3565    0.3593   51.4817 C.3       2 GLC5        0.0000 
    108 CA        -24.0920    1.8300   51.6810 C.3       4 GLP5        0.0000 
    109 CA        -29.0947   -0.7888   52.3885 C.3       2 GLC5        0.0000 
    110 CA        -30.8770   -1.3600   52.9930 C.3       4 GLP5        0.0000 
    111 CA        -29.4139    0.0239   53.1883 C.3       2 GLC5        0.0000 
    112 CA        -27.8330    1.4800   52.6690 C.3       6 GLL5        0.0000 
    113 CA        -25.8414    1.4034   52.3897 C.3       2 GLC5        0.0000 
@<TRIPOS>BOND
@<TRIPOS>SUBSTRUCTURE
     1 ALC1        1 GROUP        1 X    ALC  0     ROOT ALC X 1
     2 GLC5        4 GROUP        1 X    GLC  0     **** GLC X 6
     3 ALP1        3 GROUP        1 Y    ALP  0     ROOT ALP Y 8
     4 GLP5        6 GROUP        1 Y    GLP  0     **** GLP Y 13
     5 ALL1        2 GROUP        1 Z    ALL  0     ROOT ALL Z 15
     6 GLL5        5 GROUP        1 Z    GLL  0     **** GLL Z 20
@<TRIPOS>SET

