#    Name: 1olm_VTQ_3_ligand
#    Modification time : Mon Mar 24 20:18:33 2014

@<TRIPOS>MOLECULE
1olm_VTQ_3_ligand
   82    82     1     0     0
SMALL
NO_CHARGES


@<TRIPOS>ATOM
      1 O3        -27.4140  -10.3260   57.0930 O.3       1 VTQ1398     0.0000 
      2 C9        -27.4000   -9.2000   56.2130 C.3       1 VTQ1398     0.0000 
      3 C14       -28.1910   -9.5530   54.9620 C.3       1 VTQ1398     0.0000 
      4 C11       -28.0440   -8.0380   56.9470 C.3       1 VTQ1398     0.0000 
      5 C10       -27.3100   -7.7250   58.2450 C.3       1 VTQ1398     0.0000 
      6 C3        -28.2440   -6.9070   59.1080 C.2       1 VTQ1398     0.0000 
      7 C2        -27.9940   -5.5600   59.3440 C.2       1 VTQ1398     0.0000 
      8 C8        -26.7790   -4.8930   58.7420 C.3       1 VTQ1398     0.0000 
      9 C4        -29.3590   -7.5170   59.6640 C.2       1 VTQ1398     0.0000 
     10 O1        -29.5640   -8.7110   59.4440 O.2       1 VTQ1398     0.0000 
     11 C5        -30.2360   -6.7900   60.4600 C.2       1 VTQ1398     0.0000 
     12 C12       -31.4500   -7.4440   61.0710 C.3       1 VTQ1398     0.0000 
     13 C6        -29.9940   -5.4470   60.6990 C.2       1 VTQ1398     0.0000 
     14 C13       -30.9660   -4.6860   61.5680 C.3       1 VTQ1398     0.0000 
     15 C7        -28.8700   -4.8280   60.1420 C.2       1 VTQ1398     0.0000 
     16 O2        -28.6350   -3.6340   60.3450 O.2       1 VTQ1398     0.0000 
     17 C15       -25.9670   -8.8390   55.8190 C.3       1 VTQ1398     0.0000 
     18 C16       -25.8760   -7.6970   54.8040 C.3       1 VTQ1398     0.0000 
     19 C17       -25.7130   -8.2140   53.3770 C.3       1 VTQ1398     0.0000 
     20 C18       -25.0270   -7.2430   52.4090 C.3       1 VTQ1398     0.0000 
     21 C19       -23.5160   -7.4310   52.3790 C.3       1 VTQ1398     0.0000 
     22 C20       -25.3610   -5.7990   52.7490 C.3       1 VTQ1398     0.0000 
     23 C21       -24.9980   -4.8990   51.5640 C.3       1 VTQ1398     0.0000 
     24 C22       -25.8580   -3.6360   51.6650 C.3       1 VTQ1398     0.0000 
     25 C23       -25.3750   -2.5560   50.7090 C.3       1 VTQ1398     0.0000 
     26 C1        -24.0190   -2.0500   51.1720 C.3       1 VTQ1398     0.0000 
     27 C24       -26.4030   -1.4250   50.6200 C.3       1 VTQ1398     0.0000 
     28 C25       -26.8390   -0.7980   51.9450 C.3       1 VTQ1398     0.0000 
     29 C26       -27.7860    0.3630   51.6230 C.3       1 VTQ1398     0.0000 
     30 C27       -27.8330    1.4800   52.6690 C.3       1 VTQ1398     0.0000 
     31 C28       -29.2260    2.0870   52.7630 C.3       1 VTQ1398     0.0000 
     32 C29       -27.3720    1.0320   54.0510 C.3       1 VTQ1398     0.0000 
     33 H         -29.0841   -8.2843   57.1740 H         1 VTQ1398     0.0000 
     34 H         -28.0320   -7.1530   56.3062 H         1 VTQ1398     0.0000 
     35 H         -26.4217   -7.1569   58.0260 H         1 VTQ1398     0.0000 
     36 H         -27.0599   -8.6450   58.7458 H         1 VTQ1398     0.0000 
     37 H         -25.4766   -9.7303   55.3981 H         1 VTQ1398     0.0000 
     38 H         -25.4075   -8.5571   56.7243 H         1 VTQ1398     0.0000 
     39 H         -25.0225   -7.0620   55.0565 H         1 VTQ1398     0.0000 
     40 H         -26.7840   -7.0911   54.8658 H         1 VTQ1398     0.0000 
     41 H         -26.7107   -8.4709   52.9725 H         1 VTQ1398     0.0000 
     42 H         -25.1343   -9.1572   53.4013 H         1 VTQ1398     0.0000 
     43 H         -25.4106   -7.4443   51.4013 H         1 VTQ1398     0.0000 
     44 H         -24.7936   -5.4892   53.6183 H         1 VTQ1398     0.0000 
     45 H         -26.4211   -5.7089   52.9528 H         1 VTQ1398     0.0000 
     46 H         -25.2168   -5.4100   50.6450 H         1 VTQ1398     0.0000 
     47 H         -23.9593   -4.6318   51.6212 H         1 VTQ1398     0.0000 
     48 H         -25.8173   -3.2590   52.6889 H         1 VTQ1398     0.0000 
     49 H         -26.8934   -3.8912   51.4310 H         1 VTQ1398     0.0000 
     50 H         -25.2623   -2.9994   49.7263 H         1 VTQ1398     0.0000 
     51 H         -27.3056   -1.8073   50.0936 H         1 VTQ1398     0.0000 
     52 H         -25.9928   -0.6240   49.9657 H         1 VTQ1398     0.0000 
     53 H         -25.9771   -0.4228   52.4669 H         1 VTQ1398     0.0000 
     54 H         -27.3586   -1.5303   52.5364 H         1 VTQ1398     0.0000 
     55 H         -28.8086   -0.0403   51.4867 H         1 VTQ1398     0.0000 
     56 H         -27.4931    0.8002   50.6482 H         1 VTQ1398     0.0000 
     57 H         -27.1528    2.2820   52.3351 H         1 VTQ1398     0.0000 
     58 H         -28.2110   -8.7957   54.3092 H         1 VTQ1398     0.0000 
     59 H         -27.8003  -10.3405   54.4854 H         1 VTQ1398     0.0000 
     60 H         -29.1410   -9.7812   55.1753 H         1 VTQ1398     0.0000 
     61 H         -25.9297   -5.3249   59.0454 H         1 VTQ1398     0.0000 
     62 H         -26.7888   -4.9354   57.7429 H         1 VTQ1398     0.0000 
     63 H         -26.7227   -3.9269   58.9938 H         1 VTQ1398     0.0000 
     64 H         -31.1998   -8.2005   61.6752 H         1 VTQ1398     0.0000 
     65 H         -31.9850   -6.7983   61.6159 H         1 VTQ1398     0.0000 
     66 H         -32.0620   -7.8163   60.3733 H         1 VTQ1398     0.0000 
     67 H         -31.0294   -5.0781   62.4857 H         1 VTQ1398     0.0000 
     68 H         -30.6969   -3.7290   61.6761 H         1 VTQ1398     0.0000 
     69 H         -31.8891   -4.6892   61.1835 H         1 VTQ1398     0.0000 
     70 H         -23.0754   -6.7973   51.7432 H         1 VTQ1398     0.0000 
     71 H         -23.1048   -7.2778   53.2776 H         1 VTQ1398     0.0000 
     72 H         -23.2623   -8.3555   52.0943 H         1 VTQ1398     0.0000 
     73 H         -23.3372   -2.7813   51.1934 H         1 VTQ1398     0.0000 
     74 H         -23.6636   -1.3355   50.5693 H         1 VTQ1398     0.0000 
     75 H         -24.0619   -1.6622   52.0928 H         1 VTQ1398     0.0000 
     76 H         -29.2678    2.8169   53.4452 H         1 VTQ1398     0.0000 
     77 H         -29.5183    2.4825   51.8923 H         1 VTQ1398     0.0000 
     78 H         -29.9114    1.4058   53.0203 H         1 VTQ1398     0.0000 
     79 H         -26.4286    0.7006   54.0385 H         1 VTQ1398     0.0000 
     80 H         -27.4118    1.7780   54.7157 H         1 VTQ1398     0.0000 
     81 H         -27.9386    0.2898   54.4090 H         1 VTQ1398     0.0000 
     82 H         -27.4165  -11.1246   56.4912 H         1 VTQ1398     0.0000 
@<TRIPOS>BOND
     1    2    1 1    
     2   82    1 1    
     3    3    2 1    
     4    4    2 1    
     5   17    2 1    
     6   58    3 1    
     7   59    3 1    
     8   60    3 1    
     9    5    4 1    
    10   33    4 1    
    11   34    4 1    
    12    6    5 1    
    13   35    5 1    
    14   36    5 1    
    15    7    6 2    
    16    9    6 1    
    17    8    7 1    
    18   15    7 1    
    19   61    8 1    
    20   62    8 1    
    21   63    8 1    
    22   10    9 2    
    23   11    9 1    
    24   12   11 1    
    25   13   11 2    
    26   64   12 1    
    27   65   12 1    
    28   66   12 1    
    29   14   13 1    
    30   15   13 1    
    31   67   14 1    
    32   68   14 1    
    33   69   14 1    
    34   16   15 2    
    35   18   17 1    
    36   37   17 1    
    37   38   17 1    
    38   19   18 1    
    39   39   18 1    
    40   40   18 1    
    41   20   19 1    
    42   41   19 1    
    43   42   19 1    
    44   21   20 1    
    45   22   20 1    
    46   43   20 1    
    47   70   21 1    
    48   71   21 1    
    49   72   21 1    
    50   23   22 1    
    51   44   22 1    
    52   45   22 1    
    53   24   23 1    
    54   46   23 1    
    55   47   23 1    
    56   25   24 1    
    57   48   24 1    
    58   49   24 1    
    59   26   25 1    
    60   27   25 1    
    61   50   25 1    
    62   73   26 1    
    63   74   26 1    
    64   75   26 1    
    65   28   27 1    
    66   51   27 1    
    67   52   27 1    
    68   29   28 1    
    69   53   28 1    
    70   54   28 1    
    71   30   29 1    
    72   55   29 1    
    73   56   29 1    
    74   31   30 1    
    75   32   30 1    
    76   57   30 1    
    77   76   31 1    
    78   77   31 1    
    79   78   31 1    
    80   79   32 1    
    81   80   32 1    
    82   81   32 1    
@<TRIPOS>SUBSTRUCTURE
     1 VTQ1398     1 GROUP   
@<TRIPOS>SET

