#    Name: 1wxy_FRK_1_INTS_M
#    Modification time : Mon Apr  7 15:02:44 2014

@<TRIPOS>MOLECULE
1wxy_FRK_1_INTS_M
   52     0     6     0     0
SMALL
NO_CHARGES


@<TRIPOS>ATOM
      1 CA         64.0855   70.3795   50.4175 C.3       2 GLC5        0.0000 
      2 CA         62.9290   68.6420   49.7480 C.3       6 GLL5        0.0000 
      3 CA         65.2420   72.1170   51.0870 C.3       4 GLP5        0.0000 
      4 CA         63.0000   68.1780   51.8635 C.3       2 GLC5        0.0000 
      5 CA         63.0710   67.7140   53.9790 C.3       4 GLP5        0.0000 
      6 CA         69.2025   68.6245   47.6545 C.3       2 GLC5        0.0000 
      7 CA         67.9050   68.4220   49.0180 C.3       6 GLL5        0.0000 
      8 CA         70.5000   68.8270   46.2910 C.3       4 GLP5        0.0000 
      9 CA         66.8590   70.8605   50.4315 C.3       2 GLC5        0.0000 
     10 CA         68.4760   69.6040   49.7760 C.3       6 GLL5        0.0000 
     11 CA         69.9785   68.9730   51.1135 C.3       2 GLC5        0.0000 
     12 CA         71.4810   68.3420   52.4510 C.3       4 GLP5        0.0000 
     13 CA         67.3905   71.3575   47.4275 C.3       2 GLC5        0.0000 
     14 CA         68.9620   70.7120   48.8390 C.3       6 GLL5        0.0000 
     15 CA         65.8190   72.0030   46.0160 C.3       4 GLP5        0.0000 
     16 CA         67.5580   73.3870   49.8280 C.3       2 GLC5        0.0000 
     17 CA         68.4370   72.0910   49.1920 C.3       6 GLL5        0.0000 
     18 CA         66.6790   74.6830   50.4640 C.3       4 GLP5        0.0000 
     19 CA         67.2415   72.7480   47.8480 C.3       2 GLC5        0.0000 
     20 CA         66.0460   73.4050   46.5040 C.3       4 GLP5        0.0000 
     21 CA         58.7745   71.1840   45.8865 C.3       2 GLC5        0.0000 
     22 CA         58.8190   70.6960   48.0100 C.3       6 GLL5        0.0000 
     23 CA         58.7300   71.6720   43.7630 C.3       4 GLP5        0.0000 
     24 O          58.3145   64.4935   43.8415 O.2       1 ALC1        0.0000 
     25 O          57.6760   64.2630   45.3660 O.2       5 ALL1        0.0000 
     26 O          58.9530   64.7240   42.3170 O.2       3 ALP1        0.0000 
     27 O          57.2935   64.4250   44.0645 O.2       1 ALC1        0.0000 
     28 O          56.9110   64.5870   42.7630 O.2       3 ALP1        0.0000 
     29 CA         62.0445   70.0968   49.4947 C.3       2 GLC5        0.0000 
     30 CA         61.4970   68.1770   48.8370 C.3       6 GLL5        0.0000 
     31 CA         61.8760   71.7840   49.6970 C.3       4 GLP5        0.0000 
     32 CA         61.7740   66.9228   50.3778 C.3       2 GLC5        0.0000 
     33 CA         61.3350   65.4360   51.4630 C.3       4 GLP5        0.0000 
     34 CA         61.0052   70.6173   49.0558 C.3       2 GLC5        0.0000 
     35 CA         60.2650   68.9510   48.8830 C.3       6 GLL5        0.0000 
     36 CA         60.5737   67.1370   50.4265 C.3       2 GLC5        0.0000 
     37 CA         70.1600   69.7005   48.2678 C.3       2 GLC5        0.0000 
     38 CA         71.6010   69.2430   47.2280 C.3       4 GLP5        0.0000 
     39 CA         60.4230   63.0888   48.4415 C.3       2 GLC5        0.0000 
     40 CA         59.5330   64.2970   46.8150 C.3       6 GLL5        0.0000 
     41 CA         60.8450   61.5240   49.7120 C.3       4 GLP5        0.0000 
     42 CA         61.0805   65.6500   49.5395 C.3       2 GLC5        0.0000 
     43 CA         60.4690   65.0100   47.5270 C.3       6 GLL5        0.0000 
     44 CA         56.8785   65.9940   46.4315 C.3       2 GLC5        0.0000 
     45 CA         58.7340   64.9600   45.8960 C.3       6 GLL5        0.0000 
     46 CA         54.9010   66.3580   47.1190 C.3       4 GLP5        0.0000 
     47 CA         58.6932   64.2924   48.2088 C.3       2 GLC5        0.0000 
     48 CA         58.0190   63.7780   49.8840 C.3       4 GLP5        0.0000 
     49 CA         60.1165   71.1760   49.1127 C.3       2 GLC5        0.0000 
     50 CA         57.8950   70.4400   49.0470 C.3       6 GLL5        0.0000 
     51 CA         60.3295   70.4408   49.8212 C.3       2 GLC5        0.0000 
     52 CA         59.3600   68.7250   49.8970 C.3       6 GLL5        0.0000 
@<TRIPOS>BOND
@<TRIPOS>SUBSTRUCTURE
     1 ALC1       24 GROUP        1 X    ALC  0     ROOT ALC X 1
     2 GLC5        1 GROUP        1 X    GLC  0     **** GLC X 6
     3 ALP1       26 GROUP        1 Y    ALP  0     ROOT ALP Y 8
     4 GLP5        3 GROUP        1 Y    GLP  0     **** GLP Y 13
     5 ALL1       25 GROUP        1 Z    ALL  0     ROOT ALL Z 15
     6 GLL5        2 GROUP        1 Z    GLL  0     **** GLL Z 20
@<TRIPOS>SET

