#    Name: 1wxy_FRK_1_ligand
#    Modification time : Mon Apr  7 15:02:44 2014

@<TRIPOS>MOLECULE
1wxy_FRK_1_ligand
   49    51     1     0     0
SMALL
NO_CHARGES


@<TRIPOS>ATOM
      1 C1         63.7850   67.2320   49.1040 C.2       1 FRK401      0.0000 
      2 S2         62.9290   68.6420   49.7480 S.3       1 FRK401      0.0000 
      3 C3         61.4970   68.1770   48.8370 C.2       1 FRK401      0.0000 
      4 C4         61.6810   67.0620   48.1140 C.2       1 FRK401      0.0000 
      5 N5         63.0510   66.5330   48.2440 N.2       1 FRK401      0.0000 
      6 C6         60.2650   68.9510   48.8830 C.ar      1 FRK401      0.0000 
      7 N7         65.0580   66.9710   49.2100 N.am      1 FRK401      0.0000 
      8 C8         65.7830   67.5150   50.1720 C.2       1 FRK401      0.0000 
      9 C9         67.2940   67.3680   49.9130 C.3       1 FRK401      0.0000 
     10 O10        65.3070   67.9990   51.1830 O.2       1 FRK401      0.0000 
     11 C11        67.9050   68.4220   49.0180 C.3       1 FRK401      0.0000 
     12 C12        68.4760   69.6040   49.7760 C.3       1 FRK401      0.0000 
     13 C15        68.9620   70.7120   48.8390 C.3       1 FRK401      0.0000 
     14 C18        68.4370   72.0910   49.1920 C.3       1 FRK401      0.0000 
     15 C21        60.6850   66.3740   47.2960 C.ar      1 FRK401      0.0000 
     16 C22        60.4690   65.0100   47.5270 C.ar      1 FRK401      0.0000 
     17 C23        59.5330   64.2970   46.8150 C.ar      1 FRK401      0.0000 
     18 C24        58.7340   64.9600   45.8960 C.ar      1 FRK401      0.0000 
     19 C25        58.9780   66.3000   45.5920 C.ar      1 FRK401      0.0000 
     20 C26        59.9640   67.0100   46.2980 C.ar      1 FRK401      0.0000 
     21 C31        60.0040   69.9500   47.9460 C.ar      1 FRK401      0.0000 
     22 C32        58.8190   70.6960   48.0100 C.ar      1 FRK401      0.0000 
     23 C33        57.8950   70.4400   49.0470 C.ar      1 FRK401      0.0000 
     24 C34        58.2060   69.4700   49.9940 C.ar      1 FRK401      0.0000 
     25 C35        59.3600   68.7250   49.8970 C.ar      1 FRK401      0.0000 
     26 O40        57.6760   64.2630   45.3660 O.3       1 FRK401      0.0000 
     27 O41        56.6290   71.0210   49.1440 O.3       1 FRK401      0.0000 
     28 H          65.5247   66.3157   48.5203 H         1 FRK401      0.0000 
     29 H          67.4743   66.3650   49.4743 H         1 FRK401      0.0000 
     30 H          67.8153   67.3715   50.8924 H         1 FRK401      0.0000 
     31 H          67.1391   68.7849   48.3111 H         1 FRK401      0.0000 
     32 H          68.7056   67.9630   48.4127 H         1 FRK401      0.0000 
     33 H          69.3162   69.2692   50.3945 H         1 FRK401      0.0000 
     34 H          67.7094   70.0146   50.4426 H         1 FRK401      0.0000 
     35 H          68.6593   70.4613   47.8082 H         1 FRK401      0.0000 
     36 H          70.0649   70.7289   48.8536 H         1 FRK401      0.0000 
     37 H          61.0363   64.5335   48.2580 H         1 FRK401      0.0000 
     38 H          59.4233   63.2872   46.9583 H         1 FRK401      0.0000 
     39 H          58.4416   66.7691   44.8563 H         1 FRK401      0.0000 
     40 H          60.1423   67.9925   46.0695 H         1 FRK401      0.0000 
     41 H          60.6859   70.1440   47.1989 H         1 FRK401      0.0000 
     42 H          58.6219   71.4164   47.3180 H         1 FRK401      0.0000 
     43 H          57.5531   69.3094   50.7852 H         1 FRK401      0.0000 
     44 H          59.5512   67.9823   50.5979 H         1 FRK401      0.0000 
     45 H          68.7108   72.3681   50.1130 H         1 FRK401      0.0000 
     46 H          68.7765   72.7900   48.5626 H         1 FRK401      0.0000 
     47 H          67.4382   72.1276   49.1596 H         1 FRK401      0.0000 
     48 H          57.6166   64.5665   44.4150 H         1 FRK401      0.0000 
     49 H          56.0172   70.2687   49.3886 H         1 FRK401      0.0000 
@<TRIPOS>BOND
     1    2    1 1    
     2    5    1 2    
     3    7    1 1    
     4    3    2 1    
     5    4    3 2    
     6    6    3 1    
     7    5    4 1    
     8   15    4 1    
     9   21    6 ar   
    10   25    6 ar   
    11    8    7 am   
    12   28    7 1    
    13    9    8 1    
    14   10    8 2    
    15   11    9 1    
    16   29    9 1    
    17   30    9 1    
    18   12   11 1    
    19   31   11 1    
    20   32   11 1    
    21   13   12 1    
    22   33   12 1    
    23   34   12 1    
    24   14   13 1    
    25   35   13 1    
    26   36   13 1    
    27   45   14 1    
    28   46   14 1    
    29   47   14 1    
    30   16   15 ar   
    31   20   15 ar   
    32   17   16 ar   
    33   37   16 1    
    34   18   17 ar   
    35   38   17 1    
    36   19   18 ar   
    37   26   18 1    
    38   20   19 ar   
    39   39   19 1    
    40   40   20 1    
    41   22   21 ar   
    42   41   21 1    
    43   23   22 ar   
    44   42   22 1    
    45   24   23 ar   
    46   27   23 1    
    47   25   24 ar   
    48   43   24 1    
    49   44   25 1    
    50   48   26 1    
    51   49   27 1    
@<TRIPOS>SUBSTRUCTURE
     1 FRK401      1 GROUP   
@<TRIPOS>SET

