#    Name: 4dbc_3QP_1_INTS_M
#    Modification time : Mon Apr  7 22:28:04 2014

@<TRIPOS>MOLECULE
4dbc_3QP_1_INTS_M
   69     0    12     0     0
SMALL
NO_CHARGES


@<TRIPOS>ATOM
      1 CA        -35.9090   26.7580   -1.1195 C.3       4 GLC5        0.0000 
      2 CA        -37.4140   26.9180   -2.5280 C.3      12 GLL5        0.0000 
      3 CA        -34.4040   26.5980    0.2890 C.3       8 GLP5        0.0000 
      4 CA        -37.1025   24.8540   -1.7450 C.3       4 GLC5        0.0000 
      5 CA        -36.7910   22.7900   -0.9620 C.3       8 GLP5        0.0000 
      6 N         -34.3775   25.6035   -2.6285 N.am      2 SEC2        0.0000 
      7 N         -35.3440   25.0510   -3.3760 N.am     10 SEL2        0.0000 
      8 N         -33.4110   26.1560   -1.8810 N.am      6 SEP2        0.0000 
      9 O         -35.2270   23.7910   -2.9995 O.2       1 ALC1        0.0000 
     10 O         -35.3440   25.0510   -3.3760 O.2       9 ALL1        0.0000 
     11 O         -35.1100   22.5310   -2.6230 O.2       5 ALP1        0.0000 
     12 CA        -36.6285   26.2310   -8.2055 C.3       4 GLC5        0.0000 
     13 CA        -37.2180   24.4680   -7.9780 C.3      12 GLL5        0.0000 
     14 CA        -36.0390   27.9940   -8.4330 C.3       8 GLP5        0.0000 
     15 NZ        -37.6435   20.9095  -11.1000 N.4       3 LYC4        0.0000 
     16 NZ        -37.2580   21.4040   -9.7410 N.4      11 LYL4        0.0000 
     17 NZ        -38.1350   21.3830  -13.3680 N.4       7 LYP4        0.0000 
     18 N         -37.6435   20.9095  -11.1000 N.am      2 SEC2        0.0000 
     19 N         -37.2580   21.4040   -9.7410 N.am     10 SEL2        0.0000 
     20 N         -38.0290   20.4150  -12.4590 N.am      6 SEP2        0.0000 
     21 N         -40.7220   22.4790   -9.4800 N.am      2 SEC2        0.0000 
     22 N         -39.6220   21.7860   -9.0690 N.am     10 SEL2        0.0000 
     23 N         -41.8220   23.1720   -9.8910 N.am      6 SEP2        0.0000 
     24 N         -40.2580   21.1215   -8.1820 N.am      2 SEC2        0.0000 
     25 N         -40.8940   20.4570   -7.2950 N.am      6 SEP2        0.0000 
     26 N         -39.2640   20.2770   -9.2240 N.am      2 SEC2        0.0000 
     27 N         -38.9060   18.7680   -9.3790 N.am      6 SEP2        0.0000 
     28 NZ        -38.3715   23.0655  -11.7085 N.4       3 LYC4        0.0000 
     29 NZ        -38.5000   23.4790  -10.4060 N.4      11 LYL4        0.0000 
     30 N         -39.4870   24.5260  -10.3765 N.am      2 SEC2        0.0000 
     31 N         -38.5000   23.4790  -10.4060 N.am     10 SEL2        0.0000 
     32 N         -40.4740   25.5730  -10.3470 N.am      6 SEP2        0.0000 
     33 N         -38.0960   24.7860  -10.6005 N.am      2 SEC2        0.0000 
     34 N         -37.6920   26.0930  -10.7950 N.am      6 SEP2        0.0000 
     35 N         -38.3715   23.0655  -11.7085 N.am      2 SEC2        0.0000 
     36 N         -38.2430   22.6520  -13.0110 N.am      6 SEP2        0.0000 
     37 CA        -31.7790   21.5590   -4.7450 C.3       4 GLC5        0.0000 
     38 CA        -32.8260   23.1550   -5.7280 C.3      12 GLL5        0.0000 
     39 CA        -30.7320   19.9630   -3.7620 C.3       8 GLP5        0.0000 
     40 CA        -30.8735   21.8335   -7.4670 C.3       4 GLC5        0.0000 
     41 CA        -32.5640   22.8960   -7.2040 C.3      12 GLL5        0.0000 
     42 CA        -29.1830   20.7710   -7.7300 C.3       8 GLP5        0.0000 
     43 N         -32.4980   26.2680   -6.9505 N.am      2 SEC2        0.0000 
     44 N         -31.8790   25.2080   -7.6580 N.am     10 SEL2        0.0000 
     45 N         -33.1170   27.3280   -6.2430 N.am      6 SEP2        0.0000 
     46 NZ        -30.9435   25.2415   -3.3330 N.4       3 LYC4        0.0000 
     47 NZ        -31.8390   24.9270   -4.3310 N.4      11 LYL4        0.0000 
     48 NZ        -28.9260   24.8130   -2.2060 N.4       7 LYP4        0.0000 
     49 N         -32.6250   25.5415   -3.1060 N.am      2 SEC2        0.0000 
     50 N         -31.8390   24.9270   -4.3310 N.am     10 SEL2        0.0000 
     51 N         -30.9435   25.2415   -3.3330 N.am      2 SEC2        0.0000 
     52 N         -30.0480   25.5560   -2.3350 N.am      6 SEP2        0.0000 
     53 NZ        -29.4860   23.6515   -4.1715 N.4       3 LYC4        0.0000 
     54 NZ        -30.4600   23.2470   -5.1280 N.4      11 LYL4        0.0000 
     55 N         -30.1005   21.9290   -4.8740 N.am      2 SEC2        0.0000 
     56 N         -30.4600   23.2470   -5.1280 N.am     10 SEL2        0.0000 
     57 N         -29.7410   20.6110   -4.6200 N.am      6 SEP2        0.0000 
     58 N         -29.4860   23.6515   -4.1715 N.am      2 SEC2        0.0000 
     59 N         -28.5120   24.0560   -3.2150 N.am      6 SEP2        0.0000 
     60 CA        -35.8838   28.1002   -3.3998 C.3       4 GLC5        0.0000 
     61 CA        -37.3370   26.3270   -3.8930 C.3      12 GLL5        0.0000 
     62 CA        -34.3920   29.5780   -3.5890 C.3       8 GLP5        0.0000 
     63 CA        -38.2379   24.5771   -3.4571 C.3       4 GLC5        0.0000 
     64 CA        -39.6190   23.1260   -3.1630 C.3       8 GLP5        0.0000 
     65 CA        -39.4075   27.8633   -6.4920 C.3       4 GLC5        0.0000 
     66 CA        -38.3330   26.6430   -4.8560 C.3      12 GLL5        0.0000 
     67 CA        -40.5160   29.3800   -7.4870 C.3       8 GLP5        0.0000 
     68 CA        -38.9590   24.7363   -4.3300 C.3       4 GLC5        0.0000 
     69 CA        -38.2650   26.0500   -6.1380 C.3      12 GLL5        0.0000 
@<TRIPOS>BOND
@<TRIPOS>SUBSTRUCTURE
     1 ALC1        9 GROUP        1 X    ALC  0     ROOT ALC X 1
     2 SEC2        6 GROUP        1 X    SEC  0     **** SEC X 2
     3 LYC4       15 GROUP        1 X    LYC  0     **** LYC X 4
     4 GLC5        1 GROUP        1 X    GLC  0     **** GLC X 6
     5 ALP1       11 GROUP        1 Y    ALP  0     ROOT ALP Y 8
     6 SEP2        8 GROUP        1 Y    SEP  0     **** SEP Y 9
     7 LYP4       17 GROUP        1 Y    LYP  0     **** LYP Y 11
     8 GLP5        3 GROUP        1 Y    GLP  0     **** GLP Y 13
     9 ALL1       10 GROUP        1 Z    ALL  0     ROOT ALL Z 15
    10 SEL2        7 GROUP        1 Z    SEL  0     **** SEL Z 16
    11 LYL4       16 GROUP        1 Z    LYL  0     **** LYL Z 18
    12 GLL5        2 GROUP        1 Z    GLL  0     **** GLL Z 20
@<TRIPOS>SET

