#    Name: 4dbc_3QP_1_ligand
#    Modification time : Mon Apr  7 22:28:04 2014

@<TRIPOS>MOLECULE
4dbc_3QP_1_ligand
   36    36     1     0     0
SMALL
NO_CHARGES


@<TRIPOS>ATOM
      1 C01       -37.4140   26.9180   -2.5280 C.3       1 3QP506      0.0000 
      2 C02       -37.3370   26.3270   -3.8930 C.ar      1 3QP506      0.0000 
      3 C03       -36.3380   25.4340   -4.2920 C.ar      1 3QP506      0.0000 
      4 O04       -35.3440   25.0510   -3.3760 O.3       1 3QP506      0.0000 
      5 C05       -36.2390   24.8830   -5.5960 C.ar      1 3QP506      0.0000 
      6 C06       -37.2600   25.1560   -6.5740 C.ar      1 3QP506      0.0000 
      7 C07       -37.2180   24.4680   -7.9780 C.3       1 3QP506      0.0000 
      8 O08       -37.7610   23.0750   -8.0250 O.3       1 3QP506      0.0000 
      9 P09       -38.3370   22.3830   -9.3720 P.3       1 3QP506      0.0000 
     10 O10       -37.2580   21.4040   -9.7410 O.co2     1 3QP506      0.0000 
     11 O11       -39.6220   21.7860   -9.0690 O.co2     1 3QP506      0.0000 
     12 O12       -38.5000   23.4790  -10.4060 O.co2     1 3QP506      0.0000 
     13 C13       -38.2650   26.0500   -6.1380 C.ar      1 3QP506      0.0000 
     14 C14       -38.3330   26.6430   -4.8560 C.ar      1 3QP506      0.0000 
     15 C15       -35.1310   23.9320   -5.9970 C.2       1 3QP506      0.0000 
     16 N16       -33.9260   24.0630   -5.4250 N.2       1 3QP506      0.0000 
     17 C17       -32.8260   23.1550   -5.7280 C.3       1 3QP506      0.0000 
     18 C18       -32.5640   22.8960   -7.2040 C.3       1 3QP506      0.0000 
     19 C19       -32.5390   24.1680   -8.0200 C.2       1 3QP506      0.0000 
     20 O20       -32.9470   24.1340   -9.2450 O.co2     1 3QP506      0.0000 
     21 O21       -31.8790   25.2080   -7.6580 O.co2     1 3QP506      0.0000 
     22 C22       -31.6710   23.7840   -5.0590 C.2       1 3QP506      0.0000 
     23 O23       -31.8390   24.9270   -4.3310 O.co2     1 3QP506      0.0000 
     24 O24       -30.4600   23.2470   -5.1280 O.co2     1 3QP506      0.0000 
     25 H         -36.1637   24.4769   -8.3200 H         1 3QP506      0.0000 
     26 H         -37.7757   25.1175   -8.6821 H         1 3QP506      0.0000 
     27 H         -39.0298   26.2958   -6.8283 H         1 3QP506      0.0000 
     28 H         -39.0814   27.2856   -4.6240 H         1 3QP506      0.0000 
     29 H         -35.3749   23.2376   -6.6906 H         1 3QP506      0.0000 
     30 H         -33.0110   22.1995   -5.2241 H         1 3QP506      0.0000 
     31 H         -33.3449   22.2286   -7.5936 H         1 3QP506      0.0000 
     32 H         -31.6019   22.3762   -7.3101 H         1 3QP506      0.0000 
     33 H         -36.5980   27.4525   -2.3082 H         1 3QP506      0.0000 
     34 H         -38.1995   27.5293   -2.4317 H         1 3QP506      0.0000 
     35 H         -37.5021   26.2143   -1.8230 H         1 3QP506      0.0000 
     36 H         -35.5978   24.1270   -3.0902 H         1 3QP506      0.0000 
@<TRIPOS>BOND
     1    2    1 1    
     2   33    1 1    
     3   34    1 1    
     4   35    1 1    
     5    3    2 ar   
     6   14    2 ar   
     7    4    3 1    
     8    5    3 ar   
     9   36    4 1    
    10    6    5 ar   
    11   15    5 1    
    12    7    6 1    
    13   13    6 ar   
    14    8    7 1    
    15   25    7 1    
    16   26    7 1    
    17    9    8 1    
    18   10    9 ar   
    19   11    9 ar   
    20   12    9 ar   
    21   14   13 ar   
    22   27   13 1    
    23   28   14 1    
    24   16   15 2    
    25   29   15 1    
    26   17   16 1    
    27   18   17 1    
    28   22   17 1    
    29   30   17 1    
    30   19   18 1    
    31   31   18 1    
    32   32   18 1    
    33   20   19 ar   
    34   21   19 ar   
    35   23   22 ar   
    36   24   22 ar   
@<TRIPOS>SUBSTRUCTURE
     1 3QP506      1 GROUP   
@<TRIPOS>SET

