#    Name: 3t19_5MA_1_INTS_M
#    Modification time : Mon Mar 24 19:01:01 2014

@<TRIPOS>MOLECULE
3t19_5MA_1_INTS_M
   92     0     3     0     0
SMALL
NO_CHARGES


@<TRIPOS>ATOM
      1 CA         11.1765   12.4145   12.4280 C.3       1 GLC5        0.0000 
      2 CA         10.8630   12.6530   14.0860 C.3       3 GLL5        0.0000 
      3 CA         11.4900   12.1760   10.7700 C.3       2 GLP5        0.0000 
      4 CA         14.1420   13.0310   13.8370 C.3       1 GLC5        0.0000 
      5 CA         13.0790   12.2250   15.5890 C.3       3 GLL5        0.0000 
      6 CA         15.2050   13.8370   12.0850 C.3       2 GLP5        0.0000 
      7 CA         13.4080   13.8755   16.0135 C.3       1 GLC5        0.0000 
      8 CA         13.7370   15.5260   16.4380 C.3       2 GLP5        0.0000 
      9 CA         13.4845   11.9960   17.5065 C.3       1 GLC5        0.0000 
     10 CA         13.8900   11.7670   19.4240 C.3       2 GLP5        0.0000 
     11 CA         14.5020   10.8180   15.6770 C.3       1 GLC5        0.0000 
     12 CA         15.9250    9.4110   15.7650 C.3       2 GLP5        0.0000 
     13 CA         13.3910   10.9660   14.1450 C.3       1 GLC5        0.0000 
     14 CA         13.7030    9.7070   12.7010 C.3       2 GLP5        0.0000 
     15 CA          8.4930   14.5675   14.4200 C.3       1 GLC5        0.0000 
     16 CA          9.4630   12.6800   13.8960 C.3       3 GLL5        0.0000 
     17 CA          7.5230   16.4550   14.9440 C.3       2 GLP5        0.0000 
     18 CA         10.1425   13.1000   12.2340 C.3       1 GLC5        0.0000 
     19 CA         10.8220   13.5200   10.5720 C.3       2 GLP5        0.0000 
     20 CA         11.0705   18.1520   20.0560 C.3       1 GLC5        0.0000 
     21 CA         10.6900   16.4660   19.9800 C.3       3 GLL5        0.0000 
     22 CA         11.4510   19.8380   20.1320 C.3       2 GLP5        0.0000 
     23 CA         12.3310   16.9405   18.9260 C.3       1 GLC5        0.0000 
     24 CA         13.9720   17.4150   17.8720 C.3       2 GLP5        0.0000 
     25 CA         12.1320   14.9125   20.6680 C.3       1 GLC5        0.0000 
     26 CA         13.5740   13.3590   21.3560 C.3       2 GLP5        0.0000 
     27 CA         10.1575   17.0425   21.7895 C.3       1 GLC5        0.0000 
     28 CA          9.6250   17.6190   23.5990 C.3       2 GLP5        0.0000 
     29 CA          9.8665    9.3625   18.0050 C.3       1 GLC5        0.0000 
     30 CA         10.1380   10.3050   19.7970 C.3       3 GLL5        0.0000 
     31 CA          9.5950    8.4200   16.2130 C.3       2 GLP5        0.0000 
     32 CA         10.8910    9.0795   20.7150 C.3       1 GLC5        0.0000 
     33 CA         11.6440    7.8540   21.6330 C.3       2 GLP5        0.0000 
     34 CA          8.6940    9.1750   19.8190 C.3       1 GLC5        0.0000 
     35 CA          7.2500    8.0450   19.8410 C.3       2 GLP5        0.0000 
     36 CA         10.0310   14.3735   16.4345 C.3       1 GLC5        0.0000 
     37 CA         10.5510   12.2230   16.4720 C.3       3 GLL5        0.0000 
     38 CA          9.5110   16.5240   16.3970 C.3       2 GLP5        0.0000 
     39 CA         12.2205   11.9950   17.9480 C.3       1 GLC5        0.0000 
     40 CA         13.0020   14.6610   18.7065 C.3       1 GLC5        0.0000 
     41 CA         10.9250   14.0770   18.8440 C.3       3 GLL5        0.0000 
     42 CA         15.0790   15.2450   18.5690 C.3       2 GLP5        0.0000 
     43 CA          6.8795   14.5305   14.5440 C.3       1 GLC5        0.0000 
     44 CA          6.2360   12.6060   14.1440 C.3       3 GLL5        0.0000 
     45 CA          4.7050   12.9530   14.7525 C.3       1 GLC5        0.0000 
     46 CA          3.1740   13.3000   15.3610 C.3       2 GLP5        0.0000 
     47 CA          4.4780   11.9400   14.0120 C.3       1 GLC5        0.0000 
     48 CA          6.2490   11.0760   13.8690 C.3       3 GLL5        0.0000 
     49 CA          2.7070   12.8040   14.1550 C.3       2 GLP5        0.0000 
     50 CA          5.7335    5.7695   16.7325 C.3       1 GLC5        0.0000 
     51 CA          5.7460    7.2680   15.6980 C.3       3 GLL5        0.0000 
     52 CA          5.7210    4.2710   17.7670 C.3       2 GLP5        0.0000 
     53 CA          4.9785    6.6045   17.5200 C.3       1 GLC5        0.0000 
     54 CA          5.3980    8.3070   16.6000 C.3       3 GLL5        0.0000 
     55 CA          4.5590    4.9020   18.4400 C.3       2 GLP5        0.0000 
     56 CA          3.2995    8.5665   17.1540 C.3       1 GLC5        0.0000 
     57 CA          1.2010    8.8260   17.7080 C.3       2 GLP5        0.0000 
     58 CA          5.0735   10.6875   17.9520 C.3       1 GLC5        0.0000 
     59 CA          5.5220    9.6450   16.1100 C.3       3 GLL5        0.0000 
     60 CA          4.6250   11.7300   19.7940 C.3       2 GLP5        0.0000 
     61 CA         11.3640   11.5850   22.7130 C.3       1 GLC5        0.0000 
     62 CA          9.2650   11.8870   22.2500 C.3       3 GLL5        0.0000 
     63 CA         13.4630   11.2830   23.1760 C.3       2 GLP5        0.0000 
     64 CA          7.9585   10.3290   22.2120 C.3       1 GLC5        0.0000 
     65 CA          6.6520    8.7710   22.1740 C.3       2 GLP5        0.0000 
     66 CA          8.5230   12.3625   23.7250 C.3       1 GLC5        0.0000 
     67 CA          7.7810   12.8380   25.2000 C.3       2 GLP5        0.0000 
     68 CA          7.8165   12.4870   21.5860 C.3       1 GLC5        0.0000 
     69 CA          6.3680   13.0870   20.9220 C.3       2 GLP5        0.0000 
     70 CA         10.5550   10.8450   14.2812 C.3       1 GLC5        0.0000 
     71 CA         11.3870   12.3610   15.3650 C.3       3 GLL5        0.0000 
     72 CA          9.9850    9.1830   13.8370 C.3       2 GLP5        0.0000 
     73 CA         12.4140   11.1070   13.7133 C.3       1 GLC5        0.0000 
     74 CA          9.5215   10.8918   14.1427 C.3       1 GLC5        0.0000 
     75 CA          8.1920   14.0368   16.4663 C.3       1 GLC5        0.0000 
     76 CA          9.1410   12.2940   16.2680 C.3       3 GLL5        0.0000 
     77 CA          7.4870   15.6660   17.2980 C.3       2 GLP5        0.0000 
     78 CA          9.7205   10.3392   16.2915 C.3       1 GLC5        0.0000 
     79 CA         10.1379   15.6831   17.9093 C.3       1 GLC5        0.0000 
     80 CA         12.3742   12.5805   19.1260 C.3       1 GLC5        0.0000 
     81 CA         11.9593   11.8386   19.9514 C.3       1 GLC5        0.0000 
     82 CA          9.8560   12.6620   21.1000 C.3       3 GLL5        0.0000 
     83 CA          8.1973   13.1453   20.8788 C.3       1 GLC5        0.0000 
     84 CA         10.2640   12.0120   19.9180 C.3       3 GLL5        0.0000 
     85 CA          6.0898   12.3455   11.8827 C.3       1 GLC5        0.0000 
     86 CA          5.9370   12.8500    9.7590 C.3       2 GLP5        0.0000 
     87 CA          8.0478    9.8428   14.0723 C.3       1 GLC5        0.0000 
     88 CA          4.0835    8.8635   14.7790 C.3       1 GLC5        0.0000 
     89 CA          5.9720    9.9290   14.7460 C.3       3 GLL5        0.0000 
     90 CA          2.4200    7.9400   14.1300 C.3       2 GLP5        0.0000 
     91 CA          3.9960    7.8637   15.1395 C.3       1 GLC5        0.0000 
     92 CA          7.5710    8.5681   16.1713 C.3       1 GLC5        0.0000 
@<TRIPOS>BOND
@<TRIPOS>SUBSTRUCTURE
     1 GLC5        1 GROUP        1 X    GLC  0     ROOT GLC X 6
     2 GLP5        3 GROUP        1 Y    GLP  0     ROOT GLP Y 13
     3 GLL5        2 GROUP        1 Z    GLL  0     ROOT GLL Z 20
@<TRIPOS>SET

