#    Name: 3t19_5MA_1_ligand
#    Modification time : Mon Mar 24 19:01:01 2014

@<TRIPOS>MOLECULE
3t19_5MA_1_ligand
   46    50     1     0     0
SMALL
NO_CHARGES


@<TRIPOS>ATOM
      1 C          11.3870   12.3610   15.3650 C.ar      1 5MA561      0.0000 
      2 N           7.3070   12.5430   15.1800 N.pl3     1 5MA561      0.0000 
      3 O          11.1930   11.9960   17.6970 O.3       1 5MA561      0.0000 
      4 C1         10.8630   12.6530   14.0860 C.ar      1 5MA561      0.0000 
      5 CL1        13.0790   12.2250   15.5890 Cl        1 5MA561      0.0000 
      6 C2          9.4630   12.6800   13.8960 C.ar      1 5MA561      0.0000 
      7 CL2        10.6900   16.4660   19.9800 Cl        1 5MA561      0.0000 
      8 C3          8.6530   12.5210   15.0010 C.ar      1 5MA561      0.0000 
      9 CL3        10.1380   10.3050   19.7970 Cl        1 5MA561      0.0000 
     10 C4          9.1410   12.2940   16.2680 C.ar      1 5MA561      0.0000 
     11 C5         10.5510   12.2230   16.4720 C.ar      1 5MA561      0.0000 
     12 C6         10.9250   14.0770   18.8440 C.ar      1 5MA561      0.0000 
     13 C7         10.7920   12.7110   18.8120 C.ar      1 5MA561      0.0000 
     14 C8         10.2640   12.0120   19.9180 C.ar      1 5MA561      0.0000 
     15 C9          9.8560   12.6620   21.1000 C.ar      1 5MA561      0.0000 
     16 C10         9.9930   14.0700   21.1620 C.ar      1 5MA561      0.0000 
     17 C11        10.5190   14.7490   20.0180 C.ar      1 5MA561      0.0000 
     18 N12         6.9790   12.3500   16.5090 N.2       1 5MA561      0.0000 
     19 N13         8.1080   12.1730   17.1640 N.2       1 5MA561      0.0000 
     20 C14         6.2360   12.6060   14.1440 C.3       1 5MA561      0.0000 
     21 C15         6.2490   11.0760   13.8690 C.2       1 5MA561      0.0000 
     22 N16         6.6750   10.6380   12.6720 N.pl3     1 5MA561      0.0000 
     23 N17         6.6550    9.2840   12.7590 N.2       1 5MA561      0.0000 
     24 C18         6.2670    8.7940   13.9660 C.ar      1 5MA561      0.0000 
     25 C19         5.9720    9.9290   14.7460 C.ar      1 5MA561      0.0000 
     26 N20         6.1700    7.4620   14.3640 N.ar      1 5MA561      0.0000 
     27 C21         5.7460    7.2680   15.6980 C.ar      1 5MA561      0.0000 
     28 C22         5.3980    8.3070   16.6000 C.ar      1 5MA561      0.0000 
     29 C23         5.5220    9.6450   16.1100 C.ar      1 5MA561      0.0000 
     30 C24         9.2650   11.8870   22.2500 C.3       1 5MA561      0.0000 
     31 N26        10.1720   11.2490   23.2260 N.4       1 5MA561      0.0000 
     32 H          11.4893   12.8426   13.3067 H         1 5MA561      0.0000 
     33 H           9.0800   12.8134   12.9670 H         1 5MA561      0.0000 
     34 H          11.2987   14.6012   18.0634 H         1 5MA561      0.0000 
     35 H           9.7299   14.5842   21.9839 H         1 5MA561      0.0000 
     36 H           6.5575   13.0975   13.3003 H         1 5MA561      0.0000 
     37 H           5.3293   12.8614   14.5556 H         1 5MA561      0.0000 
     38 H           6.9347   11.1555   11.9246 H         1 5MA561      0.0000 
     39 H           5.6825    6.2759   16.0528 H         1 5MA561      0.0000 
     40 H           5.0848    8.1206   17.5225 H         1 5MA561      0.0000 
     41 H           5.2934   10.4350   16.7182 H         1 5MA561      0.0000 
     42 H           8.5734   11.0996   21.8192 H         1 5MA561      0.0000 
     43 H           8.5527   12.5738   22.8021 H         1 5MA561      0.0000 
     44 H          10.7768   10.5824   22.7903 H         1 5MA561      0.0000 
     45 H          10.7560   11.9194   23.6837 H         1 5MA561      0.0000 
     46 H           9.6673   10.7640   23.9401 H         1 5MA561      0.0000 
@<TRIPOS>BOND
     1    4    1 ar   
     2    5    1 1    
     3   11    1 ar   
     4    8    2 1    
     5   18    2 1    
     6   20    2 1    
     7   11    3 1    
     8   13    3 1    
     9    6    4 ar   
    10   32    4 1    
    11    8    6 ar   
    12   33    6 1    
    13   17    7 1    
    14   10    8 ar   
    15   14    9 1    
    16   11   10 ar   
    17   19   10 1    
    18   13   12 ar   
    19   17   12 ar   
    20   34   12 1    
    21   14   13 ar   
    22   15   14 ar   
    23   16   15 ar   
    24   30   15 1    
    25   17   16 ar   
    26   35   16 1    
    27   19   18 2    
    28   21   20 1    
    29   36   20 1    
    30   37   20 1    
    31   22   21 1    
    32   25   21 2    
    33   23   22 1    
    34   38   22 1    
    35   24   23 2    
    36   25   24 ar   
    37   26   24 ar   
    38   29   25 ar   
    39   27   26 ar   
    40   28   27 ar   
    41   39   27 1    
    42   29   28 ar   
    43   40   28 1    
    44   41   29 1    
    45   31   30 1    
    46   42   30 1    
    47   43   30 1    
    48   44   31 1    
    49   45   31 1    
    50   46   31 1    
@<TRIPOS>SUBSTRUCTURE
     1 5MA561      1 GROUP   
@<TRIPOS>SET

