#    Name: 3l1b_635_1_INTS_M
#    Modification time : Mon Mar 24 20:47:31 2014

@<TRIPOS>MOLECULE
3l1b_635_1_INTS_M
  104     0     3     0     0
SMALL
NO_CHARGES


@<TRIPOS>ATOM
      1 CA          0.3295   -4.9670   10.2590 C.3       1 GLC5        0.0000 
      2 CA         -0.1560   -3.1250   10.3480 C.3       3 GLL5        0.0000 
      3 CA          0.8150   -6.8090   10.1700 C.3       2 GLP5        0.0000 
      4 CA          0.0925   -3.3105   12.2050 C.3       1 GLC5        0.0000 
      5 CA          0.3410   -3.4960   14.0620 C.3       2 GLP5        0.0000 
      6 CA          0.4575   -1.4180   11.5480 C.3       1 GLC5        0.0000 
      7 CA          1.0710    0.2890   12.7480 C.3       2 GLP5        0.0000 
      8 CA         -4.1110   -2.9905   -1.4090 C.3       1 GLC5        0.0000 
      9 CA         -3.4710   -3.6290    0.0470 C.3       3 GLL5        0.0000 
     10 CA         -4.7510   -2.3520   -2.8650 C.3       2 GLP5        0.0000 
     11 CA         -2.0840   -3.7220   -0.9835 C.3       1 GLC5        0.0000 
     12 CA         -0.6970   -3.8150   -2.0140 C.3       2 GLP5        0.0000 
     13 CA         -5.6495   -3.8955   -0.0540 C.3       1 GLC5        0.0000 
     14 CA         -7.8280   -4.1620   -0.1550 C.3       2 GLP5        0.0000 
     15 CA         -3.7560   -4.8100   -1.5120 C.3       1 GLC5        0.0000 
     16 CA         -4.0410   -5.9910   -3.0710 C.3       2 GLP5        0.0000 
     17 CA         -3.7870   -5.3495    0.6480 C.3       1 GLC5        0.0000 
     18 CA         -4.1030   -7.0700    1.2490 C.3       2 GLP5        0.0000 
     19 CA          0.9305   -4.3175    9.0750 C.3       1 GLC5        0.0000 
     20 CA          0.1700   -2.3610    9.0680 C.3       3 GLL5        0.0000 
     21 CA          1.6910   -6.2740    9.0820 C.3       2 GLP5        0.0000 
     22 CA          1.6545   -1.1775    7.2705 C.3       1 GLC5        0.0000 
     23 CA          1.0290   -1.1250    9.3130 C.3       3 GLL5        0.0000 
     24 CA          2.2800   -1.2300    5.2280 C.3       2 GLP5        0.0000 
     25 CA          1.0500   -0.4180   11.0305 C.3       1 GLC5        0.0000 
     26 CA         -3.4580   -0.3660    9.6195 C.3       1 GLC5        0.0000 
     27 CA         -2.8150   -0.3670    7.5640 C.3       3 GLL5        0.0000 
     28 CA         -4.1010   -0.3650   11.6750 C.3       2 GLP5        0.0000 
     29 CA         -6.9145   -1.0560    7.8645 C.3       1 GLC5        0.0000 
     30 CA         -5.2450   -0.2770    7.1540 C.3       3 GLL5        0.0000 
     31 CA         -8.5840   -1.8350    8.5750 C.3       2 GLP5        0.0000 
     32 CA         -4.8810   -3.0165    5.8495 C.3       1 GLC5        0.0000 
     33 CA         -4.3040   -1.1920    4.9610 C.3       3 GLL5        0.0000 
     34 CA         -5.4580   -4.8410    6.7380 C.3       2 GLP5        0.0000 
     35 CA         -3.3975   -3.6970    5.0900 C.3       1 GLC5        0.0000 
     36 CA         -3.1040   -2.4060    3.4240 C.3       3 GLL5        0.0000 
     37 CA         -3.6910   -4.9880    6.7560 C.3       2 GLP5        0.0000 
     38 CA         -4.2930    0.0995    2.0340 C.3       1 GLC5        0.0000 
     39 CA         -5.2360   -1.6960    2.5530 C.3       3 GLL5        0.0000 
     40 CA         -3.3500    1.8950    1.5150 C.3       2 GLP5        0.0000 
     41 CA         -6.1220   -2.8935    6.0115 C.3       1 GLC5        0.0000 
     42 CA         -6.7860   -0.9460    5.2850 C.3       3 GLL5        0.0000 
     43 CA         -7.8740   -1.8775    6.4700 C.3       1 GLC5        0.0000 
     44 CA         -8.9620   -2.8090    7.6550 C.3       2 GLP5        0.0000 
     45 CA         -8.3190   -0.0340    5.7770 C.3       1 GLC5        0.0000 
     46 CA         -9.8520    0.8780    6.2690 C.3       2 GLP5        0.0000 
     47 CA         -3.5070    1.4065    4.2190 C.3       1 GLC5        0.0000 
     48 CA         -5.3380    1.0970    5.0590 C.3       3 GLL5        0.0000 
     49 CA         -1.6760    1.7160    3.3790 C.3       2 GLP5        0.0000 
     50 CA         -5.2815    3.0145    5.5670 C.3       1 GLC5        0.0000 
     51 CA         -5.2250    4.9320    6.0750 C.3       2 GLP5        0.0000 
     52 CA         -6.3355    1.1250    3.1700 C.3       1 GLC5        0.0000 
     53 CA         -7.3330    1.1530    1.2810 C.3       2 GLP5        0.0000 
     54 CA         -4.0560    3.6095    7.3945 C.3       1 GLC5        0.0000 
     55 CA         -2.8870    2.2870    8.7140 C.3       3 GLL5        0.0000 
     56 CA          2.2275    3.8675    7.4720 C.3       1 GLC5        0.0000 
     57 CA          1.3500    4.9120    9.1930 C.3       3 GLL5        0.0000 
     58 CA          3.1050    2.8230    5.7510 C.3       2 GLP5        0.0000 
     59 CA         -0.3170    5.7725    8.3985 C.3       1 GLC5        0.0000 
     60 CA         -1.9840    6.6330    7.6040 C.3       2 GLP5        0.0000 
     61 CA          1.3390    7.6010   11.0050 C.3       1 GLC5        0.0000 
     62 CA          2.2400    5.8610   10.0160 C.3       3 GLL5        0.0000 
     63 CA          0.4380    9.3410   11.9940 C.3       2 GLP5        0.0000 
     64 CA          2.2965    8.3295   11.8705 C.3       1 GLC5        0.0000 
     65 CA          4.1550    7.3180   11.7470 C.3       3 GLL5        0.0000 
     66 CA          2.7835    8.3010   14.0285 C.3       1 GLC5        0.0000 
     67 CA          4.6360    8.0240   13.0070 C.3       3 GLL5        0.0000 
     68 CA          0.9310    8.5780   15.0500 C.3       2 GLP5        0.0000 
     69 CA          3.6175    9.5305   13.9710 C.3       1 GLC5        0.0000 
     70 CA          2.5990   11.0370   14.9350 C.3       2 GLP5        0.0000 
     71 CA          2.8720    4.2685   13.1775 C.3       1 GLC5        0.0000 
     72 CA          4.7670    5.1750   12.8810 C.3       3 GLL5        0.0000 
     73 CA          0.9770    3.3620   13.4740 C.3       2 GLP5        0.0000 
     74 CA         -1.6945   -3.8170    9.1180 C.3       1 GLC5        0.0000 
     75 CA         -3.3960   -4.8910    8.5280 C.3       2 GLP5        0.0000 
     76 CA         -3.2633   -3.2548    6.4695 C.3       1 GLC5        0.0000 
     77 CA         -3.0960   -1.5780    5.5290 C.3       3 GLL5        0.0000 
     78 CA         -2.6880    0.1655    4.3120 C.3       1 GLC5        0.0000 
     79 CA         -1.7380   -4.1215    3.3607 C.3       1 GLC5        0.0000 
     80 CA         -0.5310   -5.5020    3.8910 C.3       2 GLP5        0.0000 
     81 CA         -6.2097   -0.4338    1.6157 C.3       1 GLC5        0.0000 
     82 CA         -4.9370   -2.3450    1.3480 C.3       3 GLL5        0.0000 
     83 CA         -2.8991   -1.3264    1.1939 C.3       1 GLC5        0.0000 
     84 CA         -1.5280    0.1820    1.3990 C.3       2 GLP5        0.0000 
     85 CA         -1.3470   -3.3290    0.9412 C.3       1 GLC5        0.0000 
     86 CA         -3.7360   -3.0200    1.2120 C.3       3 GLL5        0.0000 
     87 CA          0.5670   -3.6100    0.1580 C.3       2 GLP5        0.0000 
     88 CA         -2.3878   -1.1960    2.1396 C.3       1 GLC5        0.0000 
     89 CA         -2.7860   -3.0760    2.2370 C.3       3 GLL5        0.0000 
     90 CA         -7.0868    1.2284    6.4346 C.3       1 GLC5        0.0000 
     91 CA         -8.8430    2.0640    7.1490 C.3       2 GLP5        0.0000 
     92 CA         -3.4935    1.0785   10.5223 C.3       1 GLC5        0.0000 
     93 CA         -0.1033    3.4225   11.7892 C.3       1 GLC5        0.0000 
     94 CA         -1.7460    3.3960   10.5080 C.3       3 GLL5        0.0000 
     95 CA         -2.9050    4.7335    9.7724 C.3       1 GLC5        0.0000 
     96 CA         -3.4940    6.5080    9.6060 C.3       2 GLP5        0.0000 
     97 CA          0.3933    2.0995    7.0025 C.3       1 GLC5        0.0000 
     98 CA         -0.6300    3.0930    8.3750 C.3       3 GLL5        0.0000 
     99 CA          1.9850    1.4270    5.8760 C.3       2 GLP5        0.0000 
    100 CA         -1.5901    4.7621    8.0322 C.3       1 GLC5        0.0000 
    101 CA         -1.7670    2.4510    7.8830 C.3       3 GLL5        0.0000 
    102 CA          1.8510    4.4223   11.9708 C.3       1 GLC5        0.0000 
    103 CA          4.0628    5.3065   15.0778 C.3       1 GLC5        0.0000 
    104 CA          3.1420    5.0270   16.6720 C.3       2 GLP5        0.0000 
@<TRIPOS>BOND
@<TRIPOS>SUBSTRUCTURE
     1 GLC5        1 GROUP        1 X    GLC  0     ROOT GLC X 6
     2 GLP5        3 GROUP        1 Y    GLP  0     ROOT GLP Y 13
     3 GLL5        2 GROUP        1 Z    GLL  0     ROOT GLL Z 20
@<TRIPOS>SET

