#    Name: 3l1b_635_1_ligand
#    Modification time : Mon Mar 24 20:47:31 2014

@<TRIPOS>MOLECULE
3l1b_635_1_ligand
   80    84     1     0     0
SMALL
NO_CHARGES


@<TRIPOS>ATOM
      1 C1         -0.1560   -3.1250   10.3480 C.3       1 6351        0.0000 
      2 F1         -3.4710   -3.6290    0.0470 F         1 6351        0.0000 
      3 N1         -4.0040    0.3300    7.6470 N.am      1 6351        0.0000 
      4 O1         -1.0610   -1.8500    8.5270 O.3       1 6351        0.0000 
      5 C2          0.1700   -2.3610    9.0680 C.3       1 6351        0.0000 
      6 N2         -2.3800   -2.2840    4.5760 N.pl3     1 6351        0.0000 
      7 O2         -0.5140   -2.6500    6.4450 O.2       1 6351        0.0000 
      8 C3          1.0290   -1.1250    9.3130 C.3       1 6351        0.0000 
      9 N3          3.6870    5.9230   12.1080 N.4       1 6351        0.0000 
     10 O3         -5.1510    2.2380    8.3170 O.2       1 6351        0.0000 
     11 C4         -1.2650   -2.0660    7.2040 C.2       1 6351        0.0000 
     12 O4          0.5260    4.1930   10.1220 O.3       1 6351        0.0000 
     13 C5         -2.5750   -1.4650    6.8370 C.2       1 6351        0.0000 
     14 O5          5.6620    7.2800   13.6690 O.3       1 6351        0.0000 
     15 C6         -2.8150   -0.3670    7.5640 C.2       1 6351        0.0000 
     16 C7         -5.2450   -0.2770    7.1540 C.3       1 6351        0.0000 
     17 C8         -5.4010   -0.3460    5.6090 C.3       1 6351        0.0000 
     18 C9         -4.3040   -1.1920    4.9610 C.2       1 6351        0.0000 
     19 C10        -3.0960   -1.5780    5.5290 C.2       1 6351        0.0000 
     20 C11        -3.1040   -2.4060    3.4240 C.ar      1 6351        0.0000 
     21 C12        -4.3140   -1.7380    3.6230 C.ar      1 6351        0.0000 
     22 C13        -5.2360   -1.6960    2.5530 C.ar      1 6351        0.0000 
     23 C14        -4.9370   -2.3450    1.3480 C.ar      1 6351        0.0000 
     24 C15        -3.7360   -3.0200    1.2120 C.ar      1 6351        0.0000 
     25 C16        -2.7860   -3.0760    2.2370 C.ar      1 6351        0.0000 
     26 C17        -6.7860   -0.9460    5.2850 C.3       1 6351        0.0000 
     27 C18        -5.3380    1.0970    5.0590 C.3       1 6351        0.0000 
     28 C19        -4.0970    1.6140    8.2150 C.2       1 6351        0.0000 
     29 C20        -2.8870    2.2870    8.7140 C.ar      1 6351        0.0000 
     30 C21        -2.8850    2.7570   10.0250 C.ar      1 6351        0.0000 
     31 C22        -1.7460    3.3960   10.5080 C.ar      1 6351        0.0000 
     32 C23        -0.6210    3.5700    9.7010 C.ar      1 6351        0.0000 
     33 C24        -0.6300    3.0930    8.3750 C.ar      1 6351        0.0000 
     34 C25        -1.7670    2.4510    7.8830 C.ar      1 6351        0.0000 
     35 C26         1.3500    4.9120    9.1930 C.3       1 6351        0.0000 
     36 C27         2.2400    5.8610   10.0160 C.3       1 6351        0.0000 
     37 C28         3.2100    5.1040   10.9190 C.3       1 6351        0.0000 
     38 C29         4.1550    7.3180   11.7470 C.3       1 6351        0.0000 
     39 C30         4.6360    8.0240   13.0070 C.3       1 6351        0.0000 
     40 C31         5.2000    5.9970   14.0860 C.3       1 6351        0.0000 
     41 C32         4.7670    5.1750   12.8810 C.3       1 6351        0.0000 
     42 H           0.6538   -2.9950    8.3734 H         1 6351        0.0000 
     43 H          -1.4885   -2.6383    4.7175 H         1 6351        0.0000 
     44 H           2.8236    6.0307   12.8025 H         1 6351        0.0000 
     45 H          -1.9962    0.0310    8.1582 H         1 6351        0.0000 
     46 H          -6.1320    0.2725    7.5484 H         1 6351        0.0000 
     47 H          -5.3509   -1.3180    7.5405 H         1 6351        0.0000 
     48 H          -6.1180   -1.1916    2.6633 H         1 6351        0.0000 
     49 H          -5.6097   -2.3159    0.5745 H         1 6351        0.0000 
     50 H          -1.9217   -3.5705    2.1276 H         1 6351        0.0000 
     51 H          -3.7034    2.6353   10.6207 H         1 6351        0.0000 
     52 H          -1.7323    3.7480   11.4809 H         1 6351        0.0000 
     53 H           0.1926    3.2193    7.7835 H         1 6351        0.0000 
     54 H          -1.7885    2.1002    6.9224 H         1 6351        0.0000 
     55 H           0.7632    5.5159    8.5110 H         1 6351        0.0000 
     56 H           2.0000    4.2525    8.6303 H         1 6351        0.0000 
     57 H           1.6000    6.5021   10.6287 H         1 6351        0.0000 
     58 H           2.8056    6.4977    9.3300 H         1 6351        0.0000 
     59 H           2.7181    4.1902   11.2843 H         1 6351        0.0000 
     60 H           4.0808    4.7908   10.3239 H         1 6351        0.0000 
     61 H           3.3342    7.8769   11.3133 H         1 6351        0.0000 
     62 H           4.9707    7.2562   11.0364 H         1 6351        0.0000 
     63 H           4.9906    9.0282   12.7150 H         1 6351        0.0000 
     64 H           3.7604    8.1749   13.6627 H         1 6351        0.0000 
     65 H           4.3396    6.0766   14.7655 H         1 6351        0.0000 
     66 H           5.9842    5.4347   14.6125 H         1 6351        0.0000 
     67 H           5.6211    5.0057   12.2331 H         1 6351        0.0000 
     68 H           4.3735    4.2209   13.2167 H         1 6351        0.0000 
     69 H           0.6651   -3.5079   10.7713 H         1 6351        0.0000 
     70 H          -0.5909   -2.5376   11.0306 H         1 6351        0.0000 
     71 H          -0.7802   -3.8873   10.1768 H         1 6351        0.0000 
     72 H           1.9074   -1.3598    9.7292 H         1 6351        0.0000 
     73 H           1.2284   -0.6369    8.4633 H         1 6351        0.0000 
     74 H           0.5788   -0.4753    9.9255 H         1 6351        0.0000 
     75 H          -6.9408   -1.0119    4.2993 H         1 6351        0.0000 
     76 H          -6.8886   -1.8673    5.6601 H         1 6351        0.0000 
     77 H          -7.5282   -0.3918    5.6619 H         1 6351        0.0000 
     78 H          -4.4687    1.5402    5.2777 H         1 6351        0.0000 
     79 H          -5.4365    1.1199    4.0641 H         1 6351        0.0000 
     80 H          -6.0634    1.6712    5.4386 H         1 6351        0.0000 
@<TRIPOS>BOND
     1    5    1 1    
     2   69    1 1    
     3   70    1 1    
     4   71    1 1    
     5   24    2 1    
     6   15    3 1    
     7   16    3 1    
     8   28    3 am   
     9    5    4 1    
    10   11    4 1    
    11    8    5 1    
    12   42    5 1    
    13   19    6 1    
    14   20    6 1    
    15   43    6 1    
    16   11    7 2    
    17   72    8 1    
    18   73    8 1    
    19   74    8 1    
    20   37    9 1    
    21   38    9 1    
    22   41    9 1    
    23   44    9 1    
    24   28   10 2    
    25   13   11 1    
    26   32   12 1    
    27   35   12 1    
    28   15   13 2    
    29   19   13 1    
    30   39   14 1    
    31   40   14 1    
    32   45   15 1    
    33   17   16 1    
    34   46   16 1    
    35   47   16 1    
    36   18   17 1    
    37   26   17 1    
    38   27   17 1    
    39   19   18 2    
    40   21   18 1    
    41   21   20 ar   
    42   25   20 ar   
    43   22   21 ar   
    44   23   22 ar   
    45   48   22 1    
    46   24   23 ar   
    47   49   23 1    
    48   25   24 ar   
    49   50   25 1    
    50   75   26 1    
    51   76   26 1    
    52   77   26 1    
    53   78   27 1    
    54   79   27 1    
    55   80   27 1    
    56   29   28 1    
    57   30   29 ar   
    58   34   29 ar   
    59   31   30 ar   
    60   51   30 1    
    61   32   31 ar   
    62   52   31 1    
    63   33   32 ar   
    64   34   33 ar   
    65   53   33 1    
    66   54   34 1    
    67   36   35 1    
    68   55   35 1    
    69   56   35 1    
    70   37   36 1    
    71   57   36 1    
    72   58   36 1    
    73   59   37 1    
    74   60   37 1    
    75   39   38 1    
    76   61   38 1    
    77   62   38 1    
    78   63   39 1    
    79   64   39 1    
    80   41   40 1    
    81   65   40 1    
    82   66   40 1    
    83   67   41 1    
    84   68   41 1    
@<TRIPOS>SUBSTRUCTURE
     1 6351        1 GROUP   
@<TRIPOS>SET

