#    Name: 1w1w_ATG_4_INTS_M
#    Modification time : Tue Mar 25 08:29:37 2014

@<TRIPOS>MOLECULE
1w1w_ATG_4_INTS_M
   75     0    15     0     0
SMALL
NO_CHARGES


@<TRIPOS>ATOM
      1 N         -82.8870   -8.4895   40.2750 N.am      2 SEC2        0.0000 
      2 N         -83.5540   -7.3420   40.1410 N.am     12 SEL2        0.0000 
      3 N         -82.2200   -9.6370   40.4090 N.am      7 SEP2        0.0000 
      4 N         -82.8610   -7.3850   38.8965 N.am      2 SEC2        0.0000 
      5 N         -82.1680   -7.4280   37.6520 N.am      7 SEP2        0.0000 
      6 Zn        -86.7260   -8.5245   39.6150 Zn        4 ZIC7        0.0000 
      7 Zn        -85.8690   -8.0390   39.5270 Zn       14 ZIL7        0.0000 
      8 Zn        -87.5830   -9.0100   39.7030 Zn        9 ZIP7        0.0000 
      9 N         -84.8495   -8.9165   38.5755 N.am      2 SEC2        0.0000 
     10 N         -85.8690   -8.0390   39.5270 N.am     12 SEL2        0.0000 
     11 N         -83.8300   -9.7940   37.6240 N.am      7 SEP2        0.0000 
     12 N         -86.4880   -7.4595   38.1245 N.am      2 SEC2        0.0000 
     13 N         -87.1070   -6.8800   36.7220 N.am      7 SEP2        0.0000 
     14 CA        -83.8925   -5.7755   41.9880 C.3       5 GLC5        0.0000 
     15 CA        -85.6700   -5.6910   40.8250 C.3      15 GLL5        0.0000 
     16 CA        -82.1150   -5.8600   43.1510 C.3      10 GLP5        0.0000 
     17 CA        -86.7595   -5.3170   42.3210 C.3       5 GLC5        0.0000 
     18 CA        -87.8490   -4.9430   43.8170 C.3      10 GLP5        0.0000 
     19 CA        -85.6695   -3.8340   41.4455 C.3       5 GLC5        0.0000 
     20 CA        -85.6690   -1.9770   42.0660 C.3      10 GLP5        0.0000 
     21 NZ        -86.4150   -7.0065   43.9305 N.4       3 LYC4        0.0000 
     22 NZ        -86.2770   -8.3670   43.8770 N.4      13 LYL4        0.0000 
     23 NZ        -86.5530   -5.6460   43.9840 N.4       8 LYP4        0.0000 
     24 N         -86.1220   -9.2810   45.0650 N.am      2 SEC2        0.0000 
     25 N         -86.2770   -8.3670   43.8770 N.am     12 SEL2        0.0000 
     26 N         -85.9670  -10.1950   46.2530 N.am      7 SEP2        0.0000 
     27 N         -87.4020   -8.9555   44.6100 N.am      2 SEC2        0.0000 
     28 N         -88.5270   -9.5440   45.3430 N.am      7 SEP2        0.0000 
     29 N         -86.4150   -7.0065   43.9305 N.am      2 SEC2        0.0000 
     30 N         -86.5530   -5.6460   43.9840 N.am      7 SEP2        0.0000 
     31 Zn        -87.4480   -9.0615   40.7170 Zn        4 ZIC7        0.0000 
     32 Zn        -87.3130   -9.1130   41.7310 Zn       14 ZIL7        0.0000 
     33 N         -88.6185   -9.6035   42.2985 N.am      2 SEC2        0.0000 
     34 N         -87.3130   -9.1130   41.7310 N.am     12 SEL2        0.0000 
     35 N         -89.9240  -10.0940   42.8660 N.am      7 SEP2        0.0000 
     36 N         -83.7100   -8.2330   42.6130 N.am      2 SEC2        0.0000 
     37 N         -84.9350   -8.2320   41.8440 N.am     12 SEL2        0.0000 
     38 N         -82.4850   -8.2340   43.3820 N.am      7 SEP2        0.0000 
     39 N         -88.9745  -12.4310   43.2480 N.am      2 SEC2        0.0000 
     40 N         -87.6800  -12.0700   43.2330 N.am     12 SEL2        0.0000 
     41 N         -90.2690  -12.7920   43.2630 N.am      7 SEP2        0.0000 
     42 N         -85.8220  -10.3175   44.6355 N.am      2 SEC2        0.0000 
     43 N         -85.6770  -10.4400   43.0180 N.am     12 SEL2        0.0000 
     44 CA        -83.7620  -12.0045   41.6165 C.3       5 GLC5        0.0000 
     45 CA        -84.2400  -13.4230   42.8280 C.3      15 GLL5        0.0000 
     46 CA        -83.2840  -10.5860   40.4050 C.3      10 GLP5        0.0000 
     47 CA        -83.2620  -11.4880   43.3895 C.3       5 GLC5        0.0000 
     48 CA        -82.2840   -9.5530   43.9510 C.3      10 GLP5        0.0000 
     49 N         -85.6540  -14.7840   44.6410 N.am      2 SEC2        0.0000 
     50 N         -84.1760  -15.0460   44.5910 N.am     12 SEL2        0.0000 
     51 N         -87.1320  -14.5220   44.6910 N.am      7 SEP2        0.0000 
     52 O         -80.0960  -12.5080   43.5115 O.2       1 ALC1        0.0000 
     53 O         -81.0400  -13.8760   43.8680 O.2      11 ALL1        0.0000 
     54 O         -79.1520  -11.1400   43.1550 O.2       6 ALP1        0.0000 
     55 O         -80.5485  -13.0445   42.6745 O.2       1 ALC1        0.0000 
     56 O         -80.0570  -12.2130   41.4810 O.2       6 ALP1        0.0000 
     57 CA        -81.0330  -17.8160   44.1805 C.3       5 GLC5        0.0000 
     58 CA        -82.0250  -16.0260   44.3060 C.3      15 GLL5        0.0000 
     59 CA        -80.0410  -19.6060   44.0550 C.3      10 GLP5        0.0000 
     60 CA        -84.6145  -15.9680   46.4170 C.3       5 GLC5        0.0000 
     61 CA        -83.3990  -16.1250   44.9930 C.3      15 GLL5        0.0000 
     62 CA        -85.8300  -15.8110   47.8410 C.3      10 GLP5        0.0000 
     63 CA        -86.9440  -18.9985   45.2410 C.3       5 GLC5        0.0000 
     64 CA        -84.9110  -19.4700   44.7730 C.3      15 GLL5        0.0000 
     65 CA        -88.9770  -18.5270   45.7090 C.3      10 GLP5        0.0000 
     66 CA        -86.9055  -20.0620   46.2045 C.3       5 GLC5        0.0000 
     67 CA        -85.1290  -20.6810   45.5030 C.3      15 GLL5        0.0000 
     68 CA        -88.6820  -19.4430   46.9060 C.3      10 GLP5        0.0000 
     69 CA        -85.0960  -18.4250   47.9365 C.3       5 GLC5        0.0000 
     70 CA        -83.9030  -19.7680   47.3470 C.3      15 GLL5        0.0000 
     71 CA        -86.2890  -17.0820   48.5260 C.3      10 GLP5        0.0000 
     72 CA        -85.0055  -17.1385   46.6660 C.3       5 GLC5        0.0000 
     73 CA        -84.1810  -18.4660   45.4910 C.3      15 GLL5        0.0000 
     74 CA        -80.3548  -14.4185   44.7447 C.3       5 GLC5        0.0000 
     75 CA        -78.6400  -13.4600   45.5840 C.3      10 GLP5        0.0000 
@<TRIPOS>BOND
@<TRIPOS>SUBSTRUCTURE
     1 ALC1       52 GROUP        1 X    ALC  0     ROOT ALC X 1
     2 SEC2        1 GROUP        1 X    SEC  0     **** SEC X 2
     3 LYC4       21 GROUP        1 X    LYC  0     **** LYC X 4
     4 ZIC7        6 GROUP        1 X    ZIC  0     **** ZIC X 5
     5 GLC5       14 GROUP        1 X    GLC  0     **** GLC X 6
     6 ALP1       54 GROUP        1 Y    ALP  0     ROOT ALP Y 8
     7 SEP2        3 GROUP        1 Y    SEP  0     **** SEP Y 9
     8 LYP4       23 GROUP        1 Y    LYP  0     **** LYP Y 11
     9 ZIP7        8 GROUP        1 Y    ZIP  0     **** ZIP Y 12
    10 GLP5       16 GROUP        1 Y    GLP  0     **** GLP Y 13
    11 ALL1       53 GROUP        1 Z    ALL  0     ROOT ALL Z 15
    12 SEL2        2 GROUP        1 Z    SEL  0     **** SEL Z 16
    13 LYL4       22 GROUP        1 Z    LYL  0     **** LYL Z 18
    14 ZIL7        7 GROUP        1 Z    ZIL  0     **** ZIL Z 19
    15 GLL5       15 GROUP        1 Z    GLL  0     **** GLL Z 20
@<TRIPOS>SET

