#    Name: 1w1w_ATG_4_ligand
#    Modification time : Tue Mar 25 08:29:37 2014

@<TRIPOS>MOLECULE
1w1w_ATG_4_ligand
   43    45     1     0     0
SMALL
NO_CHARGES


@<TRIPOS>ATOM
      1 PG        -84.9810   -7.3370   40.5130 P.3       1 ATG2224     0.0000 
      2 O1G       -83.5540   -7.3420   40.1410 O.co2     1 ATG2224     0.0000 
      3 O2G       -85.8690   -8.0390   39.5270 O.co2     1 ATG2224     0.0000 
      4 S3G       -85.6700   -5.6910   40.8250 S.3       1 ATG2224     0.0000 
      5 PB        -86.0900   -9.0290   42.5690 P.3       1 ATG2224     0.0000 
      6 O1B       -86.2770   -8.3670   43.8770 O.co2     1 ATG2224     0.0000 
      7 O2B       -87.3130   -9.1130   41.7310 O.co2     1 ATG2224     0.0000 
      8 O3B       -84.9350   -8.2320   41.8440 O.3       1 ATG2224     0.0000 
      9 PA        -86.3510  -11.8950   42.6020 P.3       1 ATG2224     0.0000 
     10 O1A       -87.6800  -12.0700   43.2330 O.co2     1 ATG2224     0.0000 
     11 O2A       -86.1680  -11.9980   41.1280 O.co2     1 ATG2224     0.0000 
     12 O3A       -85.6770  -10.4400   43.0180 O.3       1 ATG2224     0.0000 
     13 O5'       -85.3230  -12.7880   43.4430 O.3       1 ATG2224     0.0000 
     14 C5'       -84.2400  -13.4230   42.8280 C.3       1 ATG2224     0.0000 
     15 C4'       -83.4260  -14.0700   43.9470 C.3       1 ATG2224     0.0000 
     16 O4'       -84.1760  -15.0460   44.5910 O.3       1 ATG2224     0.0000 
     17 C3'       -82.1140  -14.7280   43.5050 C.3       1 ATG2224     0.0000 
     18 O3'       -81.0400  -13.8760   43.8680 O.3       1 ATG2224     0.0000 
     19 C2'       -82.0250  -16.0260   44.3060 C.3       1 ATG2224     0.0000 
     20 O2'       -80.9260  -16.0740   45.2380 O.3       1 ATG2224     0.0000 
     21 C1'       -83.3990  -16.1250   44.9930 C.3       1 ATG2224     0.0000 
     22 N9        -84.0770  -17.3970   44.6490 N.pl3     1 ATG2224     0.0000 
     23 C8        -84.7300  -17.8330   43.5070 C.2       1 ATG2224     0.0000 
     24 N7        -85.2580  -19.0530   43.5090 N.2       1 ATG2224     0.0000 
     25 C5        -84.9110  -19.4700   44.7730 C.ar      1 ATG2224     0.0000 
     26 C6        -85.1290  -20.6810   45.5030 C.ar      1 ATG2224     0.0000 
     27 N6        -85.8950  -21.7750   44.9350 N.pl3     1 ATG2224     0.0000 
     28 N1        -84.6070  -20.8100   46.7620 N.ar      1 ATG2224     0.0000 
     29 C2        -83.9030  -19.7680   47.3470 C.ar      1 ATG2224     0.0000 
     30 N3        -83.6660  -18.5510   46.7880 N.ar      1 ATG2224     0.0000 
     31 C4        -84.1810  -18.4660   45.4910 C.ar      1 ATG2224     0.0000 
     32 H         -83.5859  -12.7305   42.3046 H         1 ATG2224     0.0000 
     33 H         -84.5449  -14.2121   42.1456 H         1 ATG2224     0.0000 
     34 H         -83.1548  -13.2760   44.6649 H         1 ATG2224     0.0000 
     35 H         -82.1665  -14.9478   42.4862 H         1 ATG2224     0.0000 
     36 H         -81.9884  -16.8407   43.5829 H         1 ATG2224     0.0000 
     37 H         -83.2162  -16.1015   46.0660 H         1 ATG2224     0.0000 
     38 H         -84.7903  -17.2085   42.6923 H         1 ATG2224     0.0000 
     39 H         -86.0196  -22.5757   45.5210 H         1 ATG2224     0.0000 
     40 H         -86.2349  -21.6377   44.0046 H         1 ATG2224     0.0000 
     41 H         -83.5129  -19.9492   48.3332 H         1 ATG2224     0.0000 
     42 H         -80.8179  -13.3703   43.0344 H         1 ATG2224     0.0000 
     43 H         -80.5616  -15.1430   45.2564 H         1 ATG2224     0.0000 
@<TRIPOS>BOND
     1    2    1 ar   
     2    3    1 ar   
     3    4    1 1    
     4    8    1 1    
     5    6    5 ar   
     6    7    5 ar   
     7    8    5 1    
     8   12    5 1    
     9   10    9 ar   
    10   11    9 ar   
    11   12    9 1    
    12   13    9 1    
    13   14   13 1    
    14   15   14 1    
    15   32   14 1    
    16   33   14 1    
    17   16   15 1    
    18   17   15 1    
    19   34   15 1    
    20   21   16 1    
    21   18   17 1    
    22   19   17 1    
    23   35   17 1    
    24   42   18 1    
    25   20   19 1    
    26   21   19 1    
    27   36   19 1    
    28   43   20 1    
    29   22   21 1    
    30   37   21 1    
    31   23   22 1    
    32   31   22 1    
    33   24   23 2    
    34   38   23 1    
    35   25   24 1    
    36   26   25 ar   
    37   31   25 ar   
    38   27   26 1    
    39   28   26 ar   
    40   39   27 1    
    41   40   27 1    
    42   29   28 ar   
    43   30   29 ar   
    44   41   29 1    
    45   31   30 ar   
@<TRIPOS>SUBSTRUCTURE
     1 ATG2224     1 GROUP   
@<TRIPOS>SET

