#    Name: 2uuo_LK3_1_INTS_M
#    Modification time : Tue Mar 25 00:17:51 2014

@<TRIPOS>MOLECULE
2uuo_LK3_1_INTS_M
   49     0     9     0     0
SMALL
NO_CHARGES


@<TRIPOS>ATOM
      1 NZ        -25.8795    6.9010   20.6040 N.4       2 LYC4        0.0000 
      2 NZ        -25.3130    6.0400   18.9430 N.4       8 LYL4        0.0000 
      3 NZ        -26.4460    7.7620   22.2650 N.4       5 LYP4        0.0000 
      4 NZ        -25.7710    6.6645   21.6825 N.4       2 LYC4        0.0000 
      5 NZ        -25.0960    5.5670   21.1000 N.4       8 LYL4        0.0000 
      6 N         -25.7710    6.6645   21.6825 N.am      1 SEC2        0.0000 
      7 N         -25.0960    5.5670   21.1000 N.am      7 SEL2        0.0000 
      8 N         -26.4460    7.7620   22.2650 N.am      4 SEP2        0.0000 
      9 CA        -28.3490    3.5980   20.3105 C.3       3 GLC5        0.0000 
     10 CA        -26.4690    2.6900   20.5120 C.3       9 GLL5        0.0000 
     11 CA        -30.2290    4.5060   20.1090 C.3       6 GLP5        0.0000 
     12 CA        -26.5380    3.3615   22.1710 C.3       3 GLC5        0.0000 
     13 CA        -26.6070    4.0330   23.8300 C.3       6 GLP5        0.0000 
     14 CA        -25.4270    1.5950   21.7865 C.3       3 GLC5        0.0000 
     15 CA        -24.3850    0.5000   23.0610 C.3       6 GLP5        0.0000 
     16 N         -28.4215   -0.1640   19.3885 N.am      1 SEC2        0.0000 
     17 N         -27.4070    0.8430   19.3680 N.am      7 SEL2        0.0000 
     18 N         -29.4360   -1.1710   19.4090 N.am      4 SEP2        0.0000 
     19 N         -28.4170    1.4580   22.6785 N.am      1 SEC2        0.0000 
     20 N         -28.2410    1.3710   21.3610 N.am      7 SEL2        0.0000 
     21 N         -28.5930    1.5450   23.9960 N.am      4 SEP2        0.0000 
     22 N         -28.7000    0.2845   21.9505 N.am      1 SEC2        0.0000 
     23 N         -29.1590   -0.8020   22.5400 N.am      4 SEP2        0.0000 
     24 CA        -16.4955   -3.1460   22.3345 C.3       3 GLC5        0.0000 
     25 CA        -16.6440   -1.1910   21.5730 C.3       9 GLL5        0.0000 
     26 CA        -16.3470   -5.1010   23.0960 C.3       6 GLP5        0.0000 
     27 CA        -15.5960    1.1760   20.2685 C.3       3 GLC5        0.0000 
     28 CA        -15.2800   -0.4910   21.5280 C.3       9 GLL5        0.0000 
     29 CA        -15.9120    2.8430   19.0090 C.3       6 GLP5        0.0000 
     30 CA        -12.0865    1.1050   20.6190 C.3       3 GLC5        0.0000 
     31 CA        -12.8900   -0.7390   20.9050 C.3       9 GLL5        0.0000 
     32 CA        -11.2830    2.9490   20.3330 C.3       6 GLP5        0.0000 
     33 CA        -10.2840   -1.0005   19.5730 C.3       3 GLC5        0.0000 
     34 CA        -11.8540   -1.6240   20.2470 C.3       9 GLL5        0.0000 
     35 CA         -8.7140   -0.3770   18.8990 C.3       6 GLP5        0.0000 
     36 CA        -11.8520   -2.4670   18.7740 C.3       3 GLC5        0.0000 
     37 CA        -11.8500   -3.3100   17.3010 C.3       6 GLP5        0.0000 
     38 CA        -10.9505   -3.4025   20.6620 C.3       3 GLC5        0.0000 
     39 CA        -10.0470   -5.1810   21.0770 C.3       6 GLP5        0.0000 
     40 CA        -24.0617    2.1832   20.9075 C.3       3 GLC5        0.0000 
     41 CA        -24.4920    3.8770   19.4700 C.3       9 GLL5        0.0000 
     42 CA        -23.0720    1.0090   22.4520 C.3       6 GLP5        0.0000 
     43 CA        -17.4565    1.9115   19.6445 C.3       3 GLC5        0.0000 
     44 CA        -19.4210    1.4740   20.0170 C.3       9 GLL5        0.0000 
     45 CA        -21.5414    1.5590   21.3805 C.3       3 GLC5        0.0000 
     46 CA        -16.8783    1.3020   19.0025 C.3       3 GLC5        0.0000 
     47 CA        -17.8160   -0.3320   19.6900 C.3       9 GLL5        0.0000 
     48 CA        -17.5087    2.0548   18.6070 C.3       3 GLC5        0.0000 
     49 CA        -18.7130    0.8620   17.7800 C.3       9 GLL5        0.0000 
@<TRIPOS>BOND
@<TRIPOS>SUBSTRUCTURE
     1 SEC2        6 GROUP        1 X    SEC  0     ROOT SEC X 2
     2 LYC4        1 GROUP        1 X    LYC  0     **** LYC X 4
     3 GLC5        9 GROUP        1 X    GLC  0     **** GLC X 6
     4 SEP2        8 GROUP        1 Y    SEP  0     ROOT SEP Y 9
     5 LYP4        3 GROUP        1 Y    LYP  0     **** LYP Y 11
     6 GLP5       11 GROUP        1 Y    GLP  0     **** GLP Y 13
     7 SEL2        7 GROUP        1 Z    SEL  0     ROOT SEL Z 16
     8 LYL4        2 GROUP        1 Z    LYL  0     **** LYL Z 18
     9 GLL5       10 GROUP        1 Z    GLL  0     **** GLL Z 20
@<TRIPOS>SET

