#    Name: 2uuo_LK3_1_ligand
#    Modification time : Tue Mar 25 00:17:51 2014

@<TRIPOS>MOLECULE
2uuo_LK3_1_ligand
   52    53     1     0     0
SMALL
NO_CHARGES


@<TRIPOS>ATOM
      1 O28       -22.2820    5.7350   19.3580 O.2       1 LK31441     0.0000 
      2 S11       -22.2230    4.6440   18.3960 S.o2      1 LK31441     0.0000 
      3 O27       -21.8220    5.1950   17.0650 O.2       1 LK31441     0.0000 
      4 N         -23.6920    3.9820   18.2340 N.pl3     1 LK31441     0.0000 
      5 CA        -24.4920    3.8770   19.4700 C.3       1 LK31441     0.0000 
      6 C         -25.0090    5.2660   19.8740 C.2       1 LK31441     0.0000 
      7 OXT       -25.3130    6.0400   18.9430 O.co2     1 LK31441     0.0000 
      8 O         -25.0960    5.5670   21.1000 O.co2     1 LK31441     0.0000 
      9 CB        -25.6110    2.8380   19.2560 C.3       1 LK31441     0.0000 
     10 CG        -26.4690    2.6900   20.5120 C.3       1 LK31441     0.0000 
     11 CD        -27.4470    1.5390   20.4050 C.2       1 LK31441     0.0000 
     12 OE2       -27.4070    0.8430   19.3680 O.co2     1 LK31441     0.0000 
     13 OE1       -28.2410    1.3710   21.3610 O.co2     1 LK31441     0.0000 
     14 C12       -21.1420    3.4350   18.9580 C.ar      1 LK31441     0.0000 
     15 C17       -21.0220    3.2250   20.3280 C.ar      1 LK31441     0.0000 
     16 C16       -20.1790    2.2630   20.8740 C.ar      1 LK31441     0.0000 
     17 C15       -19.4210    1.4740   20.0170 C.ar      1 LK31441     0.0000 
     18 C21       -18.5810    0.4860   20.5430 C.ar      1 LK31441     0.0000 
     19 C20       -17.8160   -0.3320   19.6900 C.ar      1 LK31441     0.0000 
     20 C19       -17.8730   -0.1460   18.3020 C.ar      1 LK31441     0.0000 
     21 C18       -18.7130    0.8620   17.7800 C.ar      1 LK31441     0.0000 
     22 C14       -19.4980    1.6710   18.6300 C.ar      1 LK31441     0.0000 
     23 C13       -20.3560    2.6430   18.1010 C.ar      1 LK31441     0.0000 
     24 O22       -17.0540   -1.3520   20.2100 O.3       1 LK31441     0.0000 
     25 C23       -16.6440   -1.1910   21.5730 C.3       1 LK31441     0.0000 
     26 C24       -15.2800   -0.4910   21.5280 C.3       1 LK31441     0.0000 
     27 C25       -14.2550   -1.4170   20.8690 C.3       1 LK31441     0.0000 
     28 C26       -12.8900   -0.7390   20.9050 C.3       1 LK31441     0.0000 
     29 C30       -11.8540   -1.6240   20.2470 C.3       1 LK31441     0.0000 
     30 H         -23.9594    3.7006   17.3708 H         1 LK31441     0.0000 
     31 H         -23.8472    3.5092   20.2721 H         1 LK31441     0.0000 
     32 H         -25.1596    1.8791   19.0104 H         1 LK31441     0.0000 
     33 H         -26.2364    3.1592   18.4257 H         1 LK31441     0.0000 
     34 H         -27.0201    3.6230   20.6772 H         1 LK31441     0.0000 
     35 H         -25.8112    2.5310   21.3744 H         1 LK31441     0.0000 
     36 H         -21.5925    3.8184   20.9776 H         1 LK31441     0.0000 
     37 H         -20.1185    2.1392   21.8844 H         1 LK31441     0.0000 
     38 H         -18.5194    0.3535   21.5606 H         1 LK31441     0.0000 
     39 H         -17.3202   -0.7252   17.6767 H         1 LK31441     0.0000 
     40 H         -18.7536    1.0094   16.7621 H         1 LK31441     0.0000 
     41 H         -20.4137    2.7802   17.0866 H         1 LK31441     0.0000 
     42 H         -16.5162   -2.1394   22.0745 H         1 LK31441     0.0000 
     43 H         -17.3233   -0.5630   22.1311 H         1 LK31441     0.0000 
     44 H         -14.9622   -0.2621   22.5364 H         1 LK31441     0.0000 
     45 H         -15.3647    0.4203   20.9514 H         1 LK31441     0.0000 
     46 H         -14.5427   -1.5972   19.8439 H         1 LK31441     0.0000 
     47 H         -14.2112   -2.3480   21.4144 H         1 LK31441     0.0000 
     48 H         -12.6096   -0.5549   21.9394 H         1 LK31441     0.0000 
     49 H         -12.9483    0.2100   20.3773 H         1 LK31441     0.0000 
     50 H         -10.9459   -1.2055   20.2598 H         1 LK31441     0.0000 
     51 H         -11.7755   -2.5087   20.7065 H         1 LK31441     0.0000 
     52 H         -12.0777   -1.8095   19.2902 H         1 LK31441     0.0000 
@<TRIPOS>BOND
     1    2    1 2    
     2    3    2 2    
     3    4    2 1    
     4   14    2 1    
     5    5    4 1    
     6   30    4 1    
     7    6    5 1    
     8    9    5 1    
     9   31    5 1    
    10    7    6 ar   
    11    8    6 ar   
    12   10    9 1    
    13   32    9 1    
    14   33    9 1    
    15   11   10 1    
    16   34   10 1    
    17   35   10 1    
    18   12   11 ar   
    19   13   11 ar   
    20   15   14 ar   
    21   23   14 ar   
    22   16   15 ar   
    23   36   15 1    
    24   17   16 ar   
    25   37   16 1    
    26   18   17 ar   
    27   22   17 ar   
    28   19   18 ar   
    29   38   18 1    
    30   20   19 ar   
    31   24   19 1    
    32   21   20 ar   
    33   39   20 1    
    34   22   21 ar   
    35   40   21 1    
    36   23   22 ar   
    37   41   23 1    
    38   25   24 1    
    39   26   25 1    
    40   42   25 1    
    41   43   25 1    
    42   27   26 1    
    43   44   26 1    
    44   45   26 1    
    45   28   27 1    
    46   46   27 1    
    47   47   27 1    
    48   29   28 1    
    49   48   28 1    
    50   49   28 1    
    51   50   29 1    
    52   51   29 1    
    53   52   29 1    
@<TRIPOS>SUBSTRUCTURE
     1 LK31441     1 GROUP   
@<TRIPOS>SET

