#    Name: 3hwr_NDP_2_INTS_M
#    Modification time : Tue Mar 25 15:13:24 2014

@<TRIPOS>MOLECULE
3hwr_NDP_2_INTS_M
   78     0     9     0     0
SMALL
NO_CHARGES


@<TRIPOS>ATOM
      1 N         102.8165   82.9350  -40.7900 N.am      2 SEC2        0.0000 
      2 N         102.1950   82.5910  -39.3620 N.am      8 SEL2        0.0000 
      3 N         103.4380   83.2790  -42.2180 N.am      5 SEP2        0.0000 
      4 CA        102.7435   87.8890  -37.4670 C.3       3 GLC5        0.0000 
      5 CA        103.4450   85.9420  -37.8630 C.3       9 GLL5        0.0000 
      6 CA        102.0420   89.8360  -37.0710 C.3       6 GLP5        0.0000 
      7 CA        105.7565   87.5115  -37.8570 C.3       3 GLC5        0.0000 
      8 CA        104.8730   85.6840  -37.3640 C.3       9 GLL5        0.0000 
      9 CA        106.6400   89.3390  -38.3500 C.3       6 GLP5        0.0000 
     10 N         107.2365   84.7960  -33.2745 N.am      2 SEC2        0.0000 
     11 N         106.0650   84.4490  -34.1320 N.am      8 SEL2        0.0000 
     12 N         108.4080   85.1430  -32.4170 N.am      5 SEP2        0.0000 
     13 CA        106.3710   87.8920  -36.9605 C.3       3 GLC5        0.0000 
     14 CA        106.1020   86.4450  -35.5710 C.3       9 GLL5        0.0000 
     15 CA        108.5805   91.5030  -33.7225 C.3       3 GLC5        0.0000 
     16 CA        108.4810   89.7910  -32.9380 C.3       9 GLL5        0.0000 
     17 CA        108.6800   93.2150  -34.5070 C.3       6 GLP5        0.0000 
     18 CA        110.8525   89.8180  -35.7890 C.3       3 GLC5        0.0000 
     19 CA        109.8140   88.6990  -34.6110 C.3       9 GLL5        0.0000 
     20 CA        111.8910   90.9370  -36.9670 C.3       6 GLP5        0.0000 
     21 CA        109.6775   86.6855  -33.9060 C.3       3 GLC5        0.0000 
     22 CA        109.5410   84.6720  -33.2010 C.3       6 GLP5        0.0000 
     23 CA        107.0840   88.7285  -36.3565 C.3       3 GLC5        0.0000 
     24 CA        107.5280   88.1180  -34.3630 C.3       9 GLL5        0.0000 
     25 CA        108.5345   86.3950  -33.7820 C.3       3 GLC5        0.0000 
     26 N         101.5720   85.1130  -42.6000 N.am      2 SEC2        0.0000 
     27 N         101.1400   85.1030  -41.2830 N.am      8 SEL2        0.0000 
     28 N         102.0040   85.1230  -43.9170 N.am      5 SEP2        0.0000 
     29 CA         99.0365   86.5985  -37.9230 C.3       3 GLC5        0.0000 
     30 CA         99.3360   87.2070  -40.0330 C.3       9 GLL5        0.0000 
     31 CA         98.7370   85.9900  -35.8130 C.3       6 GLP5        0.0000 
     32 CA         97.9335   88.1355  -37.3440 C.3       3 GLC5        0.0000 
     33 CA         97.0770   87.7710  -39.0870 C.3       9 GLL5        0.0000 
     34 CA         98.7900   88.5000  -35.6010 C.3       6 GLP5        0.0000 
     35 N          95.4005   89.8810  -39.3855 N.am      2 SEC2        0.0000 
     36 N          96.3980   88.9010  -38.5570 N.am      8 SEL2        0.0000 
     37 N          94.4030   90.8610  -40.2140 N.am      5 SEP2        0.0000 
     38 O          95.7755   88.5700  -37.2915 O.2       1 ALC1        0.0000 
     39 O          96.3980   88.9010  -38.5570 O.2       7 ALL1        0.0000 
     40 O          95.1530   88.2390  -36.0260 O.2       4 ALP1        0.0000 
     41 O          94.6745   86.4175  -37.9600 O.2       1 ALC1        0.0000 
     42 O          94.8860   86.6060  -39.2950 O.2       7 ALL1        0.0000 
     43 O          94.4630   86.2290  -36.6250 O.2       4 ALP1        0.0000 
     44 CA         97.7945   86.9345  -42.3910 C.3       3 GLC5        0.0000 
     45 CA         96.1850   87.5540  -41.2520 C.3       9 GLL5        0.0000 
     46 CA         99.4040   86.3150  -43.5300 C.3       6 GLP5        0.0000 
     47 CA         96.3430   89.6740  -41.0410 C.3       3 GLC5        0.0000 
     48 CA         96.5010   91.7940  -40.8300 C.3       6 GLP5        0.0000 
     49 N          97.2970   81.8915  -46.1035 N.am      2 SEC2        0.0000 
     50 N          96.6140   82.7050  -45.1640 N.am      8 SEL2        0.0000 
     51 N          97.9800   81.0780  -47.0430 N.am      5 SEP2        0.0000 
     52 O          98.3105   81.6150  -43.8035 O.2       1 ALC1        0.0000 
     53 O          97.6550   82.8550  -43.0670 O.2       7 ALL1        0.0000 
     54 O          98.9660   80.3750  -44.5400 O.2       4 ALP1        0.0000 
     55 CA         95.3310   88.6370  -44.6525 C.3       3 GLC5        0.0000 
     56 CA         94.9210   87.2240  -43.2890 C.3       9 GLL5        0.0000 
     57 CA         95.7410   90.0500  -46.0160 C.3       6 GLP5        0.0000 
     58 N         107.2290   83.9710  -32.2525 N.am      2 SEC2        0.0000 
     59 N         106.0500   82.7990  -32.0880 N.am      8 SEL2        0.0000 
     60 CA        104.7130   85.0310  -39.2597 C.3       3 GLC5        0.0000 
     61 CA        105.2670   84.2490  -40.9060 C.3       6 GLP5        0.0000 
     62 CA        107.4327   84.7873  -34.8375 C.3       3 GLC5        0.0000 
     63 CA        109.1450   83.7360  -34.3590 C.3       6 GLP5        0.0000 
     64 CA        105.8075   89.5800  -34.8805 C.3       3 GLC5        0.0000 
     65 CA        104.1610   90.5840  -35.9170 C.3       6 GLP5        0.0000 
     66 CA         99.0667   86.9940  -41.8098 C.3       3 GLC5        0.0000 
     67 CA         97.0505   89.8745  -40.2233 C.3       3 GLC5        0.0000 
     68 CA         98.1230   88.1390  -40.1460 C.3       9 GLL5        0.0000 
     69 CA         94.3233   88.2678  -40.2785 C.3       3 GLC5        0.0000 
     70 CA         92.4730   89.3340  -39.9900 C.3       6 GLP5        0.0000 
     71 CA         97.7975   85.6745  -43.3132 C.3       3 GLC5        0.0000 
     72 CA         96.3720   85.4490  -42.5630 C.3       9 GLL5        0.0000 
     73 CA         95.7613   87.4195  -45.6082 C.3       3 GLC5        0.0000 
     74 CA         95.2030   85.2030  -44.7730 C.3       9 GLL5        0.0000 
     75 CA         96.6210   88.9670  -46.6000 C.3       6 GLP5        0.0000 
     76 CA         96.1686   85.7245  -46.0449 C.3       3 GLC5        0.0000 
     77 CA         94.6000   86.5410  -44.4600 C.3       9 GLL5        0.0000 
     78 CA         97.2340   85.7230  -47.7590 C.3       6 GLP5        0.0000 
@<TRIPOS>BOND
@<TRIPOS>SUBSTRUCTURE
     1 ALC1       38 GROUP        1 X    ALC  0     ROOT ALC X 1
     2 SEC2        1 GROUP        1 X    SEC  0     **** SEC X 2
     3 GLC5        4 GROUP        1 X    GLC  0     **** GLC X 6
     4 ALP1       40 GROUP        1 Y    ALP  0     ROOT ALP Y 8
     5 SEP2        3 GROUP        1 Y    SEP  0     **** SEP Y 9
     6 GLP5        6 GROUP        1 Y    GLP  0     **** GLP Y 13
     7 ALL1       39 GROUP        1 Z    ALL  0     ROOT ALL Z 15
     8 SEL2        2 GROUP        1 Z    SEL  0     **** SEL Z 16
     9 GLL5        5 GROUP        1 Z    GLL  0     **** GLL Z 20
@<TRIPOS>SET

