#    Name: 3hwr_NDP_2_ligand
#    Modification time : Tue Mar 25 15:13:24 2014

@<TRIPOS>MOLECULE
3hwr_NDP_2_ligand
   74    78     1     0     0
SMALL
NO_CHARGES


@<TRIPOS>ATOM
      1 PA        101.9280   83.8040  -38.5310 P.3       1 NDP300      0.0000 
      2 O1A       101.9310   83.4820  -37.0890 O.co2     1 NDP300      0.0000 
      3 O2A       102.1950   82.5910  -39.3620 O.co2     1 NDP300      0.0000 
      4 O5B       103.0090   84.9900  -38.8240 O.3       1 NDP300      0.0000 
      5 C5B       103.4450   85.9420  -37.8630 C.3       1 NDP300      0.0000 
      6 C4B       104.8730   85.6840  -37.3640 C.3       1 NDP300      0.0000 
      7 O4B       105.3520   86.8440  -36.6920 O.3       1 NDP300      0.0000 
      8 C3B       104.9910   84.5350  -36.3630 C.3       1 NDP300      0.0000 
      9 O3B       105.9760   83.6180  -36.7780 O.3       1 NDP300      0.0000 
     10 C2B       105.3390   85.2320  -35.0610 C.3       1 NDP300      0.0000 
     11 O2B       106.0650   84.4490  -34.1320 O.3       1 NDP300      0.0000 
     12 C1B       106.1020   86.4450  -35.5710 C.3       1 NDP300      0.0000 
     13 N9A       106.3160   87.5080  -34.5540 N.pl3     1 NDP300      0.0000 
     14 C8A       105.4430   88.0340  -33.6320 C.2       1 NDP300      0.0000 
     15 N7A       106.0990   88.9640  -32.8910 N.2       1 NDP300      0.0000 
     16 C5A       107.3800   89.0340  -33.3250 C.ar      1 NDP300      0.0000 
     17 C6A       108.4810   89.7910  -32.9380 C.ar      1 NDP300      0.0000 
     18 N6A       108.3370   90.8340  -32.1240 N.pl3     1 NDP300      0.0000 
     19 N1A       109.6870   89.6120  -33.5890 N.ar      1 NDP300      0.0000 
     20 C2A       109.8140   88.6990  -34.6110 C.ar      1 NDP300      0.0000 
     21 N3A       108.7250   87.9540  -34.9930 N.ar      1 NDP300      0.0000 
     22 C4A       107.5280   88.1180  -34.3630 C.ar      1 NDP300      0.0000 
     23 O3        100.5050   84.4550  -38.9090 O.3       1 NDP300      0.0000 
     24 PN        100.0250   84.6560  -40.4200 P.3       1 NDP300      0.0000 
     25 O1N       101.1400   85.1030  -41.2830 O.co2     1 NDP300      0.0000 
     26 O2N        99.2900   83.4180  -40.7720 O.co2     1 NDP300      0.0000 
     27 O5D        98.9800   85.8700  -40.2970 O.3       1 NDP300      0.0000 
     28 C5D        99.3360   87.2070  -40.0330 C.3       1 NDP300      0.0000 
     29 C4D        98.1230   88.1390  -40.1460 C.3       1 NDP300      0.0000 
     30 O4D        97.5100   88.0630  -41.4380 O.3       1 NDP300      0.0000 
     31 C3D        97.0770   87.7710  -39.0870 C.3       1 NDP300      0.0000 
     32 O3D        96.3980   88.9010  -38.5570 O.3       1 NDP300      0.0000 
     33 C2D        96.1620   86.8490  -39.8820 C.3       1 NDP300      0.0000 
     34 O2D        94.8860   86.6060  -39.2950 O.3       1 NDP300      0.0000 
     35 C1D        96.1850   87.5540  -41.2520 C.3       1 NDP300      0.0000 
     36 N1N        95.7630   86.6680  -42.3630 N.pl3     1 NDP300      0.0000 
     37 C2N        96.3720   85.4490  -42.5630 C.2       1 NDP300      0.0000 
     38 C3N        96.0100   84.6190  -43.6300 C.2       1 NDP300      0.0000 
     39 C7N        96.7810   83.3530  -43.9270 C.2       1 NDP300      0.0000 
     40 O7N        96.6140   82.7050  -45.1640 O.2       1 NDP300      0.0000 
     41 N7N        97.6550   82.8550  -43.0670 N.am      1 NDP300      0.0000 
     42 C4N        95.2030   85.2030  -44.7730 C.3       1 NDP300      0.0000 
     43 C5N        94.6000   86.5410  -44.4600 C.2       1 NDP300      0.0000 
     44 C6N        94.9210   87.2240  -43.2890 C.2       1 NDP300      0.0000 
     45 P2B       105.3490   83.2330  -33.3600 P.3       1 NDP300      0.0000 
     46 O1X       106.0500   82.7990  -32.0880 O.co2     1 NDP300      0.0000 
     47 O2X       103.9910   83.7660  -32.9360 O.co2     1 NDP300      0.0000 
     48 O3X       105.2730   82.1070  -34.3650 O.co2     1 NDP300      0.0000 
     49 H         102.7841   85.9546  -36.9705 H         1 NDP300      0.0000 
     50 H         103.4229   86.9748  -38.2709 H         1 NDP300      0.0000 
     51 H         105.5038   85.4589  -38.2122 H         1 NDP300      0.0000 
     52 H         104.0154   84.1055  -36.2598 H         1 NDP300      0.0000 
     53 H         104.3997   85.6174  -34.6587 H         1 NDP300      0.0000 
     54 H         107.0789   86.0580  -35.9122 H         1 NDP300      0.0000 
     55 H         104.5212   87.7792  -33.5351 H         1 NDP300      0.0000 
     56 H         109.1678   91.3527  -31.9222 H         1 NDP300      0.0000 
     57 H         107.4110   91.0050  -31.7875 H         1 NDP300      0.0000 
     58 H         110.7202   88.5760  -35.0856 H         1 NDP300      0.0000 
     59 H         100.1005   87.5812  -40.7370 H         1 NDP300      0.0000 
     60 H          99.7509   87.3348  -39.0173 H         1 NDP300      0.0000 
     61 H          98.4543   89.1503  -39.9330 H         1 NDP300      0.0000 
     62 H          97.5728   87.1707  -38.3514 H         1 NDP300      0.0000 
     63 H          96.7486   85.9225  -40.0288 H         1 NDP300      0.0000 
     64 H          95.4823   88.3957  -41.1733 H         1 NDP300      0.0000 
     65 H          97.1173   85.1301  -41.9130 H         1 NDP300      0.0000 
     66 H          98.1124   82.0100  -43.3440 H         1 NDP300      0.0000 
     67 H          97.7788   83.3688  -42.2181 H         1 NDP300      0.0000 
     68 H          94.4006   84.4925  -45.0417 H         1 NDP300      0.0000 
     69 H          95.8556   85.2929  -45.6601 H         1 NDP300      0.0000 
     70 H          93.9474   86.9190  -45.1471 H         1 NDP300      0.0000 
     71 H          94.5127   88.1627  -43.1265 H         1 NDP300      0.0000 
     72 H         105.9805   82.9072  -36.0746 H         1 NDP300      0.0000 
     73 H          96.0373   88.5961  -37.6756 H         1 NDP300      0.0000 
     74 H          95.0603   86.5481  -38.3120 H         1 NDP300      0.0000 
@<TRIPOS>BOND
     1    2    1 ar   
     2    3    1 ar   
     3    4    1 1    
     4   23    1 1    
     5    5    4 1    
     6    6    5 1    
     7   49    5 1    
     8   50    5 1    
     9    7    6 1    
    10    8    6 1    
    11   51    6 1    
    12   12    7 1    
    13    9    8 1    
    14   10    8 1    
    15   52    8 1    
    16   72    9 1    
    17   11   10 1    
    18   12   10 1    
    19   53   10 1    
    20   45   11 1    
    21   13   12 1    
    22   54   12 1    
    23   14   13 1    
    24   22   13 1    
    25   15   14 2    
    26   55   14 1    
    27   16   15 1    
    28   17   16 ar   
    29   22   16 ar   
    30   18   17 1    
    31   19   17 ar   
    32   56   18 1    
    33   57   18 1    
    34   20   19 ar   
    35   21   20 ar   
    36   58   20 1    
    37   22   21 ar   
    38   24   23 1    
    39   25   24 ar   
    40   26   24 ar   
    41   27   24 1    
    42   28   27 1    
    43   29   28 1    
    44   59   28 1    
    45   60   28 1    
    46   30   29 1    
    47   31   29 1    
    48   61   29 1    
    49   35   30 1    
    50   32   31 1    
    51   33   31 1    
    52   62   31 1    
    53   73   32 1    
    54   34   33 1    
    55   35   33 1    
    56   63   33 1    
    57   74   34 1    
    58   36   35 1    
    59   64   35 1    
    60   37   36 1    
    61   44   36 1    
    62   38   37 2    
    63   65   37 1    
    64   39   38 1    
    65   42   38 1    
    66   40   39 2    
    67   41   39 am   
    68   66   41 1    
    69   67   41 1    
    70   43   42 1    
    71   68   42 1    
    72   69   42 1    
    73   44   43 2    
    74   70   43 1    
    75   71   44 1    
    76   46   45 ar   
    77   47   45 ar   
    78   48   45 ar   
@<TRIPOS>SUBSTRUCTURE
     1 NDP300      1 GROUP   
@<TRIPOS>SET

