#    Name: 2byc_FMN_2_INTS_M
#    Modification time : Mon Mar 24 21:57:22 2014

@<TRIPOS>MOLECULE
2byc_FMN_2_INTS_M
   60     0     9     0     0
SMALL
NO_CHARGES


@<TRIPOS>ATOM
      1 O           7.8800   26.9510  -11.4785 O.2       1 ALC1        0.0000 
      2 O           8.5420   28.1620  -11.4360 O.2       7 ALL1        0.0000 
      3 O           7.2180   25.7400  -11.5210 O.2       4 ALP1        0.0000 
      4 N           5.9375   28.0340  -11.6465 N.am      2 SEC2        0.0000 
      5 N           6.6460   29.4310  -11.1680 N.am      8 SEL2        0.0000 
      6 N           5.2290   26.6370  -12.1250 N.am      5 SEP2        0.0000 
      7 N           5.7295   30.5595  -11.0050 N.am      2 SEC2        0.0000 
      8 N           4.8130   31.6880  -10.8420 N.am      5 SEP2        0.0000 
      9 N           6.4095   31.7120  -10.9305 N.am      2 SEC2        0.0000 
     10 N           8.0060   31.7360  -11.0190 N.am      8 SEL2        0.0000 
     11 CA          8.3955   31.8560   -9.3215 C.3       3 GLC5        0.0000 
     12 CA          8.7690   32.8690  -10.9890 C.3       9 GLL5        0.0000 
     13 CA          8.0220   30.8430   -7.6540 C.3       6 GLP5        0.0000 
     14 CA          6.7505   34.4980  -12.3450 C.3       3 GLC5        0.0000 
     15 CA          8.1080   34.0350  -10.7600 C.3       9 GLL5        0.0000 
     16 CA          5.3930   34.9610  -13.9300 C.3       6 GLP5        0.0000 
     17 CA          6.1180   36.2370  -11.2515 C.3       3 GLC5        0.0000 
     18 CA          8.0630   36.4860  -10.5510 C.3       9 GLL5        0.0000 
     19 CA          4.1730   35.9880  -11.9520 C.3       6 GLP5        0.0000 
     20 CA          7.9350   38.1340  -10.7055 C.3       3 GLC5        0.0000 
     21 CA          7.8070   39.7820  -10.8600 C.3       6 GLP5        0.0000 
     22 CA          9.2625   37.6575   -9.0560 C.3       3 GLC5        0.0000 
     23 CA         10.4620   38.8290   -7.5610 C.3       6 GLP5        0.0000 
     24 CA          9.8765   38.1355  -11.2920 C.3       3 GLC5        0.0000 
     25 CA         11.0000   36.4940  -10.6770 C.3       9 GLL5        0.0000 
     26 CA          8.7530   39.7770  -11.9070 C.3       6 GLP5        0.0000 
     27 CA         12.6045   35.7025   -9.4985 C.3       3 GLC5        0.0000 
     28 CA         14.2090   34.9110   -8.3200 C.3       6 GLP5        0.0000 
     29 CA         12.5390   37.7355  -11.2540 C.3       3 GLC5        0.0000 
     30 CA         14.0780   38.9770  -11.8310 C.3       6 GLP5        0.0000 
     31 CA         11.2200   37.2275   -8.9430 C.3       3 GLC5        0.0000 
     32 CA         11.4400   37.9610   -7.2090 C.3       6 GLP5        0.0000 
     33 CA         11.1800   34.3955  -12.8620 C.3       3 GLC5        0.0000 
     34 CA         10.8830   34.0450  -11.1060 C.3       9 GLL5        0.0000 
     35 CA         11.4770   34.7460  -14.6180 C.3       6 GLP5        0.0000 
     36 CA         12.5460   34.4780   -9.7130 C.3       3 GLC5        0.0000 
     37 CA          9.8110   31.8880   -9.2785 C.3       3 GLC5        0.0000 
     38 CA         10.1370   32.8400  -11.1390 C.3       9 GLL5        0.0000 
     39 CA          9.4850   30.9360   -7.4180 C.3       6 GLP5        0.0000 
     40 CA         11.8410   33.1235  -13.2025 C.3       3 GLC5        0.0000 
     41 CA         12.2050   31.5010  -11.7870 C.3       9 GLL5        0.0000 
     42 O          13.7510   33.1335  -10.1035 O.2       1 ALC1        0.0000 
     43 O          13.1860   32.0000   -9.6370 O.2       7 ALL1        0.0000 
     44 O          14.3160   34.2670  -10.5700 O.2       4 ALP1        0.0000 
     45 CA         14.7655   29.5490   -9.0610 C.3       3 GLC5        0.0000 
     46 CA         14.4170   30.4030  -11.0080 C.3       9 GLL5        0.0000 
     47 CA         15.1140   28.6950   -7.1140 C.3       6 GLP5        0.0000 
     48 O          14.7105   32.8145  -11.1810 O.2       1 ALC1        0.0000 
     49 O          15.1050   31.3620  -11.7920 O.2       7 ALL1        0.0000 
     50 CA          9.3515   34.1395   -8.8690 C.3       3 GLC5        0.0000 
     51 CA         10.2130   35.2140  -10.8790 C.3       9 GLL5        0.0000 
     52 CA          9.3570   33.3600   -6.9260 C.3       6 GLP5        0.0000 
     53 CA         10.6099   35.9804  -12.4959 C.3       3 GLC5        0.0000 
     54 CA          8.8500   35.2130  -10.7300 C.3       9 GLL5        0.0000 
     55 CA         10.9540   36.1070  -14.2510 C.3       6 GLP5        0.0000 
     56 CA          9.3109   33.3960  -12.8749 C.3       3 GLC5        0.0000 
     57 CA          9.3340   33.6460  -14.7430 C.3       6 GLP5        0.0000 
     58 CA         14.0425   28.7575  -13.6487 C.3       3 GLC5        0.0000 
     59 CA         14.4680   29.1590  -11.9000 C.3       9 GLL5        0.0000 
     60 CA         12.9310   28.7120  -15.3660 C.3       6 GLP5        0.0000 
@<TRIPOS>BOND
@<TRIPOS>SUBSTRUCTURE
     1 ALC1        1 GROUP        1 X    ALC  0     ROOT ALC X 1
     2 SEC2        4 GROUP        1 X    SEC  0     **** SEC X 2
     3 GLC5       11 GROUP        1 X    GLC  0     **** GLC X 6
     4 ALP1        3 GROUP        1 Y    ALP  0     ROOT ALP Y 8
     5 SEP2        6 GROUP        1 Y    SEP  0     **** SEP Y 9
     6 GLP5       13 GROUP        1 Y    GLP  0     **** GLP Y 13
     7 ALL1        2 GROUP        1 Z    ALL  0     ROOT ALL Z 15
     8 SEL2        5 GROUP        1 Z    SEL  0     **** SEL Z 16
     9 GLL5       12 GROUP        1 Z    GLL  0     **** GLL Z 20
@<TRIPOS>SET

