#    Name: 2byc_FMN_2_ligand
#    Modification time : Mon Mar 24 21:57:22 2014

@<TRIPOS>MOLECULE
2byc_FMN_2_ligand
   50    52     1     0     0
SMALL
NO_CHARGES


@<TRIPOS>ATOM
      1 N1         10.6370   29.2600  -11.5870 N.2       1 FMN1632     0.0000 
      2 C2          9.8960   28.1340  -11.6110 C.2       1 FMN1632     0.0000 
      3 O2         10.4700   27.0780  -11.8360 O.2       1 FMN1632     0.0000 
      4 N3          8.5420   28.1620  -11.4360 N.am      1 FMN1632     0.0000 
      5 C4          7.8680   29.3780  -11.2180 C.2       1 FMN1632     0.0000 
      6 O4          6.6460   29.4310  -11.1680 O.2       1 FMN1632     0.0000 
      7 C4A         8.6190   30.5200  -11.2060 C.2       1 FMN1632     0.0000 
      8 N5          8.0060   31.7360  -11.0190 N.2       1 FMN1632     0.0000 
      9 C5A         8.7690   32.8690  -10.9890 C.ar      1 FMN1632     0.0000 
     10 C6          8.1080   34.0350  -10.7600 C.ar      1 FMN1632     0.0000 
     11 C7          8.8500   35.2130  -10.7300 C.ar      1 FMN1632     0.0000 
     12 C7M         8.0630   36.4860  -10.5510 C.3       1 FMN1632     0.0000 
     13 C8         10.2130   35.2140  -10.8790 C.ar      1 FMN1632     0.0000 
     14 C8M        11.0000   36.4940  -10.6770 C.3       1 FMN1632     0.0000 
     15 C9         10.8830   34.0450  -11.1060 C.ar      1 FMN1632     0.0000 
     16 C9A        10.1370   32.8400  -11.1390 C.ar      1 FMN1632     0.0000 
     17 N10        10.7690   31.6040  -11.3560 N.pl3     1 FMN1632     0.0000 
     18 C10         9.9900   30.4550  -11.4030 C.2       1 FMN1632     0.0000 
     19 C1'        12.2050   31.5010  -11.7870 C.3       1 FMN1632     0.0000 
     20 C2'        13.0240   30.9470  -10.5870 C.3       1 FMN1632     0.0000 
     21 O2'        13.1860   32.0000   -9.6370 O.3       1 FMN1632     0.0000 
     22 C3'        14.4170   30.4030  -11.0080 C.3       1 FMN1632     0.0000 
     23 O3'        15.1050   31.3620  -11.7920 O.3       1 FMN1632     0.0000 
     24 C4'        14.4680   29.1590  -11.9000 C.3       1 FMN1632     0.0000 
     25 O4'        13.4560   28.1860  -11.6230 O.3       1 FMN1632     0.0000 
     26 C5'        15.8400   28.4470  -11.9630 C.3       1 FMN1632     0.0000 
     27 O5'        15.6850   27.7220  -13.1610 O.3       1 FMN1632     0.0000 
     28 P          16.6920   27.3170  -14.3420 P.3       1 FMN1632     0.0000 
     29 O1P        17.9120   26.7910  -13.5630 O.co2     1 FMN1632     0.0000 
     30 O2P        16.0210   26.2290  -15.1610 O.co2     1 FMN1632     0.0000 
     31 O3P        17.0070   28.4550  -15.3230 O.co2     1 FMN1632     0.0000 
     32 H           7.9878   27.2875  -11.4608 H         1 FMN1632     0.0000 
     33 H           7.0994   34.0622  -10.6128 H         1 FMN1632     0.0000 
     34 H          11.8880   34.0150  -11.2500 H         1 FMN1632     0.0000 
     35 H          12.5928   32.4711  -12.0456 H         1 FMN1632     0.0000 
     36 H          12.3041   30.8171  -12.6122 H         1 FMN1632     0.0000 
     37 H          12.4606   30.1281  -10.1574 H         1 FMN1632     0.0000 
     38 H          15.0012   30.1916  -10.1148 H         1 FMN1632     0.0000 
     39 H          14.2961   29.5287  -12.9650 H         1 FMN1632     0.0000 
     40 H          15.9217   27.8301  -11.1055 H         1 FMN1632     0.0000 
     41 H          16.5882   29.1952  -12.0179 H         1 FMN1632     0.0000 
     42 H           8.6562   37.2910  -10.5400 H         1 FMN1632     0.0000 
     43 H           7.4008   36.6200  -11.2882 H         1 FMN1632     0.0000 
     44 H           7.5503   36.4880   -9.6925 H         1 FMN1632     0.0000 
     45 H          11.9798   36.3541  -10.8202 H         1 FMN1632     0.0000 
     46 H          10.7108   37.2117  -11.3104 H         1 FMN1632     0.0000 
     47 H          10.8879   36.8569   -9.7519 H         1 FMN1632     0.0000 
     48 H          13.6255   32.7410  -10.1446 H         1 FMN1632     0.0000 
     49 H          14.8383   32.2472  -11.4108 H         1 FMN1632     0.0000 
     50 H          12.6151   28.7140  -11.5047 H         1 FMN1632     0.0000 
@<TRIPOS>BOND
     1    2    1 1    
     2   18    1 2    
     3    3    2 2    
     4    4    2 am   
     5    5    4 am   
     6   32    4 1    
     7    6    5 2    
     8    7    5 1    
     9    8    7 2    
    10   18    7 1    
    11    9    8 1    
    12   10    9 ar   
    13   16    9 ar   
    14   11   10 ar   
    15   33   10 1    
    16   12   11 1    
    17   13   11 ar   
    18   42   12 1    
    19   43   12 1    
    20   44   12 1    
    21   14   13 1    
    22   15   13 ar   
    23   45   14 1    
    24   46   14 1    
    25   47   14 1    
    26   16   15 ar   
    27   34   15 1    
    28   17   16 1    
    29   18   17 1    
    30   19   17 1    
    31   20   19 1    
    32   35   19 1    
    33   36   19 1    
    34   21   20 1    
    35   22   20 1    
    36   37   20 1    
    37   48   21 1    
    38   23   22 1    
    39   24   22 1    
    40   38   22 1    
    41   49   23 1    
    42   25   24 1    
    43   26   24 1    
    44   39   24 1    
    45   50   25 1    
    46   27   26 1    
    47   40   26 1    
    48   41   26 1    
    49   28   27 1    
    50   29   28 ar   
    51   30   28 ar   
    52   31   28 ar   
@<TRIPOS>SUBSTRUCTURE
     1 FMN1632     1 GROUP   
@<TRIPOS>SET

