#    Name: 3nc6_PIW_1_INTS_M
#    Modification time : Tue Mar 25 01:14:50 2014

@<TRIPOS>MOLECULE
3nc6_PIW_1_INTS_M
   27     0     3     0     0
SMALL
NO_CHARGES


@<TRIPOS>ATOM
      1 CA         29.7045  -20.1315  -14.5230 C.3       1 GLC5        0.0000 
      2 CA         27.9690  -19.1580  -13.5130 C.3       3 GLL5        0.0000 
      3 CA         31.4400  -21.1050  -15.5330 C.3       2 GLP5        0.0000 
      4 CA         30.1365  -18.4875  -16.8770 C.3       1 GLC5        0.0000 
      5 CA         28.4950  -17.1050  -17.3960 C.3       3 GLL5        0.0000 
      6 CA         31.7780  -19.8700  -16.3580 C.3       2 GLP5        0.0000 
      7 CA         29.6955  -15.6320  -17.6710 C.3       1 GLC5        0.0000 
      8 CA         30.8960  -14.1590  -17.9460 C.3       2 GLP5        0.0000 
      9 CA         29.1965  -18.3100  -19.5915 C.3       1 GLC5        0.0000 
     10 CA         28.1750  -16.6000  -18.6580 C.3       3 GLL5        0.0000 
     11 CA         30.2180  -20.0200  -20.5250 C.3       2 GLP5        0.0000 
     12 CA         24.3540  -17.2580  -19.2065 C.3       1 GLC5        0.0000 
     13 CA         25.8830  -16.4070  -17.9670 C.3       3 GLL5        0.0000 
     14 CA         22.8250  -18.1090  -20.4460 C.3       2 GLP5        0.0000 
     15 CA         25.7605  -19.0875  -16.4660 C.3       1 GLC5        0.0000 
     16 CA         26.2210  -16.9270  -16.7060 C.3       3 GLL5        0.0000 
     17 CA         25.3000  -21.2480  -16.2260 C.3       2 GLP5        0.0000 
     18 CA         27.7060  -20.2398  -15.4153 C.3       1 GLC5        0.0000 
     19 CA         27.2870  -18.9190  -14.6980 C.3       3 GLL5        0.0000 
     20 CA         27.7840  -21.4410  -16.7250 C.3       2 GLP5        0.0000 
     21 CA         27.9010  -19.3192  -16.8028 C.3       1 GLC5        0.0000 
     22 CA         27.5410  -17.2900  -16.3650 C.3       3 GLL5        0.0000 
     23 CA         28.8855  -15.1382  -19.0525 C.3       1 GLC5        0.0000 
     24 CA         30.2530  -13.8570  -19.3020 C.3       2 GLP5        0.0000 
     25 CA         25.4335  -14.7360  -19.2662 C.3       1 GLC5        0.0000 
     26 CA         26.8610  -16.2390  -18.9480 C.3       3 GLL5        0.0000 
     27 CA         24.4950  -13.1490  -20.0750 C.3       2 GLP5        0.0000 
@<TRIPOS>BOND
@<TRIPOS>SUBSTRUCTURE
     1 GLC5        1 GROUP        1 X    GLC  0     ROOT GLC X 6
     2 GLP5        3 GROUP        1 Y    GLP  0     ROOT GLP Y 13
     3 GLL5        2 GROUP        1 Z    GLL  0     ROOT GLL Z 20
@<TRIPOS>SET

