#    Name: 3nc6_PIW_1_ligand
#    Modification time : Tue Mar 25 01:14:50 2014

@<TRIPOS>MOLECULE
3nc6_PIW_1_ligand
   19    20     1     0     0
SMALL
NO_CHARGES


@<TRIPOS>ATOM
      1 N1         27.8880  -17.8240  -15.1710 N.pl3     1 PIW407      0.0000 
      2 C2         28.9080  -17.3800  -14.4150 C.2       1 PIW407      0.0000 
      3 N3         28.9510  -18.2220  -13.3430 N.2       1 PIW407      0.0000 
      4 C4         27.9690  -19.1580  -13.5130 C.2       1 PIW407      0.0000 
      5 C5         27.2870  -18.9190  -14.6980 C.2       1 PIW407      0.0000 
      6 C6         27.5410  -17.2900  -16.3650 C.ar      1 PIW407      0.0000 
      7 C7         28.4950  -17.1050  -17.3960 C.ar      1 PIW407      0.0000 
      8 C8         28.1750  -16.6000  -18.6580 C.ar      1 PIW407      0.0000 
      9 C9         26.8610  -16.2390  -18.9480 C.ar      1 PIW407      0.0000 
     10 C10        25.8830  -16.4070  -17.9670 C.ar      1 PIW407      0.0000 
     11 C11        26.2210  -16.9270  -16.7060 C.ar      1 PIW407      0.0000 
     12 H          29.4773  -16.6462  -14.5802 H         1 PIW407      0.0000 
     13 H          27.7704  -19.8814  -12.9064 H         1 PIW407      0.0000 
     14 H          26.5891  -19.4179  -15.0467 H         1 PIW407      0.0000 
     15 H          29.4895  -17.3628  -17.1929 H         1 PIW407      0.0000 
     16 H          28.9070  -16.4956  -19.3691 H         1 PIW407      0.0000 
     17 H          26.6170  -15.8583  -19.8616 H         1 PIW407      0.0000 
     18 H          24.9071  -16.1499  -18.1638 H         1 PIW407      0.0000 
     19 H          25.4712  -17.0498  -15.9955 H         1 PIW407      0.0000 
@<TRIPOS>BOND
     1    2    1 1    
     2    5    1 1    
     3    6    1 1    
     4    3    2 2    
     5   12    2 1    
     6    4    3 1    
     7    5    4 2    
     8   13    4 1    
     9   14    5 1    
    10    7    6 ar   
    11   11    6 ar   
    12    8    7 ar   
    13   15    7 1    
    14    9    8 ar   
    15   16    8 1    
    16   10    9 ar   
    17   17    9 1    
    18   11   10 ar   
    19   18   10 1    
    20   19   11 1    
@<TRIPOS>SUBSTRUCTURE
     1 PIW407      1 GROUP   
@<TRIPOS>SET

