#    Name: 2ok1_33A_1_INTS_M
#    Modification time : Tue Mar 25 22:49:00 2014

@<TRIPOS>MOLECULE
2ok1_33A_1_INTS_M
   74     0     9     0     0
SMALL
NO_CHARGES


@<TRIPOS>ATOM
      1 CA         -3.5850    9.2350   19.9980 C.3       3 GLC5        0.0000 
      2 CA         -3.4060   10.2520   21.9310 C.3       9 GLL5        0.0000 
      3 CA         -3.7640    8.2180   18.0650 C.3       6 GLP5        0.0000 
      4 CA         -4.8035    9.0855   19.8495 C.3       3 GLC5        0.0000 
      5 CA         -5.8430    9.9530   21.6340 C.3       9 GLL5        0.0000 
      6 CA         -3.8410    8.1570   20.3875 C.3       3 GLC5        0.0000 
      7 CA         -4.5110    9.4160   21.6670 C.3       9 GLL5        0.0000 
      8 CA         -3.1710    6.8980   19.1080 C.3       6 GLP5        0.0000 
      9 CA         -7.1550    8.7835   23.5585 C.3       3 GLC5        0.0000 
     10 CA         -7.0010    9.0210   21.3370 C.3       9 GLL5        0.0000 
     11 CA         -7.3090    8.5460   25.7800 C.3       6 GLP5        0.0000 
     12 CA         -1.0800   11.1265   22.6860 C.3       3 GLC5        0.0000 
     13 CA         -1.7920    9.5870   21.9640 C.3       9 GLL5        0.0000 
     14 CA         -0.3680   12.6660   23.4080 C.3       6 GLP5        0.0000 
     15 CA         -1.1500   10.6330   20.6680 C.3       3 GLC5        0.0000 
     16 CA         -0.5080   11.6790   19.3720 C.3       6 GLP5        0.0000 
     17 CA         -2.4815    8.2425   20.5360 C.3       3 GLC5        0.0000 
     18 CA         -2.8925    9.1875   23.5740 C.3       3 GLC5        0.0000 
     19 CA         -3.9930    8.7880   25.1840 C.3       6 GLP5        0.0000 
     20 CA         -6.3910    5.7345   21.1765 C.3       3 GLC5        0.0000 
     21 CA         -6.8530    7.8560   20.6300 C.3       9 GLL5        0.0000 
     22 CA         -5.9290    3.6130   21.7230 C.3       6 GLP5        0.0000 
     23 CA         -5.3085    8.0370   19.3475 C.3       3 GLC5        0.0000 
     24 O          -8.5080    6.1560   19.8920 O.2       1 ALC1        0.0000 
     25 O          -8.0420    7.2500   20.5290 O.2       7 ALL1        0.0000 
     26 O          -8.9740    5.0620   19.2550 O.2       4 ALP1        0.0000 
     27 N         -10.2680    7.4090   21.0585 N.am      2 SEC2        0.0000 
     28 N          -8.9940    8.0230   21.1790 N.am      8 SEL2        0.0000 
     29 N         -11.5420    6.7950   20.9380 N.am      5 SEP2        0.0000 
     30 CA         -9.5510   12.7010   22.4300 C.3       3 GLC5        0.0000 
     31 CA         -8.8550   10.8910   23.5220 C.3       9 GLL5        0.0000 
     32 CA        -10.2470   14.5110   21.3380 C.3       6 GLP5        0.0000 
     33 CA        -10.6055   12.9555   22.1865 C.3       3 GLC5        0.0000 
     34 CA        -10.9640   11.4000   23.0350 C.3       9 GLL5        0.0000 
     35 CA        -11.9340   10.8960   24.9050 C.3       3 GLC5        0.0000 
     36 CA        -12.9040   10.3920   26.7750 C.3       6 GLP5        0.0000 
     37 CA        -11.0940   10.0090   20.0725 C.3       3 GLC5        0.0000 
     38 CA        -10.5550   10.4520   22.1450 C.3       9 GLL5        0.0000 
     39 CA        -11.6330    9.5660   18.0000 C.3       6 GLP5        0.0000 
     40 O         -13.2205   10.1560   21.9640 O.2       1 ALC1        0.0000 
     41 O         -13.2480   11.6100   22.1770 O.2       7 ALL1        0.0000 
     42 O         -13.1930    8.7020   21.7510 O.2       4 ALP1        0.0000 
     43 CA        -14.7200   10.4340   23.0595 C.3       3 GLC5        0.0000 
     44 CA        -14.6020   12.1830   22.1460 C.3       9 GLL5        0.0000 
     45 CA        -14.8380    8.6850   23.9730 C.3       6 GLP5        0.0000 
     46 CA         -1.9373   11.8040   22.7263 C.3       3 GLC5        0.0000 
     47 CA         -3.6070   11.6320   22.1580 C.3       9 GLL5        0.0000 
     48 CA         -2.0072   11.3105   20.7082 C.3       3 GLC5        0.0000 
     49 CA         -3.7497    9.8650   23.6142 C.3       3 GLC5        0.0000 
     50 CA         -4.1270   12.8960   20.6910 C.3       3 GLC5        0.0000 
     51 CA         -3.9960   13.8890   19.2390 C.3       6 GLP5        0.0000 
     52 CA         -6.0650   11.8682   20.0913 C.3       3 GLC5        0.0000 
     53 CA         -6.0190   11.3500   21.8610 C.3       9 GLL5        0.0000 
     54 CA         -6.1990   13.0850   18.4350 C.3       6 GLP5        0.0000 
     55 CA         -4.5850    9.2363   23.4172 C.3       3 GLC5        0.0000 
     56 CA         -7.3220    8.7863   19.2647 C.3       3 GLC5        0.0000 
     57 CA         -7.7170    9.1340   17.5460 C.3       6 GLP5        0.0000 
     58 CA         -9.7895   11.5590   20.6610 C.3       3 GLC5        0.0000 
     59 CA         -9.2210   10.1220   22.4430 C.3       9 GLL5        0.0000 
     60 CA         -9.6910   12.8310   19.0280 C.3       6 GLP5        0.0000 
     61 CA        -10.4825    8.3900   22.8105 C.3       3 GLC5        0.0000 
     62 CA        -11.0770    6.4930   23.3270 C.3       6 GLP5        0.0000 
     63 CA         -8.1735    9.5262   24.3813 C.3       3 GLC5        0.0000 
     64 CA        -12.7812   15.5455   20.0360 C.3       3 GLC5        0.0000 
     65 CA        -14.5430   14.3340   20.8220 C.3       9 GLL5        0.0000 
     66 CA        -10.9430   16.4020   19.8560 C.3       6 GLP5        0.0000 
     67 CA        -15.9700   13.7318   16.5850 C.3       3 GLC5        0.0000 
     68 CA        -15.0660   14.3630   18.4320 C.3       9 GLL5        0.0000 
     69 CA        -16.7610   13.7970   14.7210 C.3       6 GLP5        0.0000 
     70 CA        -13.8410   13.0843   17.2365 C.3       3 GLC5        0.0000 
     71 CA        -15.2920   12.9700   18.4660 C.3       9 GLL5        0.0000 
     72 CA        -12.5030   12.5020   16.0240 C.3       6 GLP5        0.0000 
     73 CA        -14.6167   10.7795   18.2677 C.3       3 GLC5        0.0000 
     74 CA        -14.0180    8.9460   17.4640 C.3       6 GLP5        0.0000 
@<TRIPOS>BOND
@<TRIPOS>SUBSTRUCTURE
     1 ALC1       24 GROUP        1 X    ALC  0     ROOT ALC X 1
     2 SEC2       27 GROUP        1 X    SEC  0     **** SEC X 2
     3 GLC5        1 GROUP        1 X    GLC  0     **** GLC X 6
     4 ALP1       26 GROUP        1 Y    ALP  0     ROOT ALP Y 8
     5 SEP2       29 GROUP        1 Y    SEP  0     **** SEP Y 9
     6 GLP5        3 GROUP        1 Y    GLP  0     **** GLP Y 13
     7 ALL1       25 GROUP        1 Z    ALL  0     ROOT ALL Z 15
     8 SEL2       28 GROUP        1 Z    SEL  0     **** SEL Z 16
     9 GLL5        2 GROUP        1 Z    GLL  0     **** GLL Z 20
@<TRIPOS>SET

