#    Name: 2ok1_33A_1_ligand
#    Modification time : Tue Mar 25 22:49:00 2014

@<TRIPOS>MOLECULE
2ok1_33A_1_ligand
   44    47     1     0     0
SMALL
NO_CHARGES


@<TRIPOS>ATOM
      1 C2         -3.4060   10.2520   21.9310 C.ar      1 33A1        0.0000 
      2 C3         -3.6070   11.6320   22.1580 C.ar      1 33A1        0.0000 
      3 C4         -4.9090   12.1740   22.1280 C.ar      1 33A1        0.0000 
      4 C5         -6.0190   11.3500   21.8610 C.ar      1 33A1        0.0000 
      5 C6         -5.8430    9.9530   21.6340 C.ar      1 33A1        0.0000 
      6 C7         -4.5110    9.4160   21.6670 C.ar      1 33A1        0.0000 
      7 C8         -7.0010    9.0210   21.3370 C.2       1 33A1        0.0000 
      8 CL1        -1.7920    9.5870   21.9640 Cl        1 33A1        0.0000 
      9 C9         -6.8530    7.8560   20.6300 C.2       1 33A1        0.0000 
     10 N10        -8.0420    7.2500   20.5290 N.pl3     1 33A1        0.0000 
     11 N12        -8.9940    8.0230   21.1790 N.2       1 33A1        0.0000 
     12 C13        -8.4240    9.0970   21.6820 C.2       1 33A1        0.0000 
     13 C14        -9.2210   10.1220   22.4430 C.2       1 33A1        0.0000 
     14 C15        -8.8550   10.8910   23.5220 C.2       1 33A1        0.0000 
     15 N16        -9.9060   11.6660   23.8790 N.pl3     1 33A1        0.0000 
     16 C18       -10.9640   11.4000   23.0350 C.2       1 33A1        0.0000 
     17 C19       -10.5550   10.4520   22.1450 C.2       1 33A1        0.0000 
     18 C20       -12.3010   12.0180   23.0730 C.2       1 33A1        0.0000 
     19 O21       -12.5460   12.8870   23.8990 O.2       1 33A1        0.0000 
     20 N22       -13.2480   11.6100   22.1770 N.am      1 33A1        0.0000 
     21 C23       -14.6020   12.1830   22.1460 C.3       1 33A1        0.0000 
     22 C24       -14.7690   12.9390   20.8550 C.ar      1 33A1        0.0000 
     23 C25       -14.5430   14.3340   20.8220 C.ar      1 33A1        0.0000 
     24 C26       -14.6960   15.0440   19.6100 C.ar      1 33A1        0.0000 
     25 C27       -15.0660   14.3630   18.4320 C.ar      1 33A1        0.0000 
     26 C28       -15.2920   12.9700   18.4660 C.ar      1 33A1        0.0000 
     27 C29       -15.1390   12.2560   19.6770 C.ar      1 33A1        0.0000 
     28 H          -2.8054   12.2390   22.3446 H         1 33A1        0.0000 
     29 H          -5.0468   13.1750   22.3020 H         1 33A1        0.0000 
     30 H          -6.9602   11.7478   21.8279 H         1 33A1        0.0000 
     31 H          -4.3747    8.4179   21.4962 H         1 33A1        0.0000 
     32 H          -6.0128    7.5379   20.2684 H         1 33A1        0.0000 
     33 H          -8.2345    6.4171   20.0858 H         1 33A1        0.0000 
     34 H          -7.9914   10.8727   23.9450 H         1 33A1        0.0000 
     35 H          -9.9263   12.3022   24.6005 H         1 33A1        0.0000 
     36 H         -11.0617   10.0669   21.4402 H         1 33A1        0.0000 
     37 H         -13.0479   10.8724   21.4757 H         1 33A1        0.0000 
     38 H         -14.7464   12.8660   22.9801 H         1 33A1        0.0000 
     39 H         -15.3507   11.3957   22.1972 H         1 33A1        0.0000 
     40 H         -14.2699   14.8272   21.6721 H         1 33A1        0.0000 
     41 H         -14.5378   16.0538   19.5884 H         1 33A1        0.0000 
     42 H         -15.1704   14.8759   17.5556 H         1 33A1        0.0000 
     43 H         -15.5665   12.4759   17.6151 H         1 33A1        0.0000 
     44 H         -15.2963   11.2480   19.6975 H         1 33A1        0.0000 
@<TRIPOS>BOND
     1    2    1 ar   
     2    6    1 ar   
     3    8    1 1    
     4    3    2 ar   
     5   28    2 1    
     6    4    3 ar   
     7   29    3 1    
     8    5    4 ar   
     9   30    4 1    
    10    6    5 ar   
    11    7    5 1    
    12   31    6 1    
    13    9    7 2    
    14   12    7 1    
    15   10    9 1    
    16   32    9 1    
    17   11   10 1    
    18   33   10 1    
    19   12   11 2    
    20   13   12 1    
    21   14   13 2    
    22   17   13 1    
    23   15   14 1    
    24   34   14 1    
    25   16   15 1    
    26   35   15 1    
    27   17   16 2    
    28   18   16 1    
    29   36   17 1    
    30   19   18 2    
    31   20   18 am   
    32   21   20 1    
    33   37   20 1    
    34   22   21 1    
    35   38   21 1    
    36   39   21 1    
    37   23   22 ar   
    38   27   22 ar   
    39   24   23 ar   
    40   40   23 1    
    41   25   24 ar   
    42   41   24 1    
    43   26   25 ar   
    44   42   25 1    
    45   27   26 ar   
    46   43   26 1    
    47   44   27 1    
@<TRIPOS>SUBSTRUCTURE
     1 33A1        1 GROUP   
@<TRIPOS>SET

