#    Name: 2g1n_1IG_1_INTS_M
#    Modification time : Tue Mar 25 13:22:30 2014

@<TRIPOS>MOLECULE
2g1n_1IG_1_INTS_M
   61     0     9     0     0
SMALL
NO_CHARGES


@<TRIPOS>ATOM
      1 CA         27.0415   73.9595   80.4825 C.3       3 GLC5        0.0000 
      2 CA         25.9350   73.6730   78.7060 C.3       9 GLL5        0.0000 
      3 CA         28.1480   74.2460   82.2590 C.3       6 GLP5        0.0000 
      4 CA         26.1865   73.9085   81.2810 C.3       3 GLC5        0.0000 
      5 CA         24.2250   73.5710   80.3030 C.3       9 GLL5        0.0000 
      6 O          25.0310   69.5935   77.4200 O.2       1 ALC1        0.0000 
      7 O          24.8060   70.3690   78.6490 O.2       7 ALL1        0.0000 
      8 O          25.2560   68.8180   76.1910 O.2       4 ALP1        0.0000 
      9 O          23.6380   69.3290   78.8270 O.2       1 ALC1        0.0000 
     10 O          22.4700   68.2890   79.0050 O.2       4 ALP1        0.0000 
     11 O          27.1205   75.3800   79.0975 O.2       1 ALC1        0.0000 
     12 O          26.8480   74.4300   78.0960 O.2       7 ALL1        0.0000 
     13 O          27.3930   76.3300   80.0990 O.2       4 ALP1        0.0000 
     14 CA         22.6780   74.9970   79.6380 C.3       3 GLC5        0.0000 
     15 CA         23.4200   74.3410   81.3320 C.3       9 GLL5        0.0000 
     16 CA         21.9360   75.6530   77.9440 C.3       6 GLP5        0.0000 
     17 CA         22.0540   75.3990   82.0440 C.3       3 GLC5        0.0000 
     18 CA         20.6880   76.4570   82.7560 C.3       6 GLP5        0.0000 
     19 CA         24.2255   75.1795   84.4240 C.3       3 GLC5        0.0000 
     20 CA         24.1040   74.3770   82.6920 C.3       9 GLL5        0.0000 
     21 CA         24.3470   75.9820   86.1560 C.3       6 GLP5        0.0000 
     22 CA         23.3510   76.1590   82.4230 C.3       3 GLC5        0.0000 
     23 CA         22.5980   77.9410   82.1540 C.3       6 GLP5        0.0000 
     24 CA         26.1260   74.3115   82.4755 C.3       3 GLC5        0.0000 
     25 CA         18.7655   67.8335   81.5245 C.3       3 GLC5        0.0000 
     26 CA         20.0310   68.5260   82.6360 C.3       9 GLL5        0.0000 
     27 CA         17.5000   67.1410   80.4130 C.3       6 GLP5        0.0000 
     28 CA         26.5315   67.8680   84.0565 C.3       3 GLC5        0.0000 
     29 CA         24.5850   68.8260   83.7980 C.3       9 GLL5        0.0000 
     30 CA         28.4780   66.9100   84.3150 C.3       6 GLP5        0.0000 
     31 O          26.5200   71.3995   83.2810 O.2       1 ALC1        0.0000 
     32 O          26.1090   70.5910   84.5670 O.2       7 ALL1        0.0000 
     33 O          26.9310   72.2080   81.9950 O.2       4 ALP1        0.0000 
     34 CA         26.9170   73.8060   85.4925 C.3       3 GLC5        0.0000 
     35 CA         28.0340   71.9750   85.0370 C.3       9 GLL5        0.0000 
     36 CA         25.8000   75.6370   85.9480 C.3       6 GLP5        0.0000 
     37 CA         28.0910   73.1105   83.6480 C.3       3 GLC5        0.0000 
     38 CA         28.6120   71.3380   83.1945 C.3       3 GLC5        0.0000 
     39 CA         29.1900   70.7010   81.3520 C.3       6 GLP5        0.0000 
     40 CA         28.7745   69.9795   84.5155 C.3       3 GLC5        0.0000 
     41 CA         29.5150   67.9840   83.9940 C.3       6 GLP5        0.0000 
     42 CA         18.9395   66.1285   85.8680 C.3       3 GLC5        0.0000 
     43 CA         20.1170   67.7840   85.1370 C.3       9 GLL5        0.0000 
     44 CA         17.7620   64.4730   86.5990 C.3       6 GLP5        0.0000 
     45 CA         19.0275   68.4790   86.3740 C.3       3 GLC5        0.0000 
     46 CA         17.9380   69.1740   87.6110 C.3       6 GLP5        0.0000 
     47 N          26.5415   71.8815   88.0920 N.am      2 SEC2        0.0000 
     48 N          26.2590   71.6310   86.5880 N.am      8 SEL2        0.0000 
     49 N          26.8240   72.1320   89.5960 N.am      5 SEP2        0.0000 
     50 CA         22.9275   72.0572   78.0410 C.3       3 GLC5        0.0000 
     51 CA         24.0450   72.2020   80.0080 C.3       9 GLL5        0.0000 
     52 CA         21.3840   72.1780   76.5740 C.3       6 GLP5        0.0000 
     53 CA         24.9040   76.0455   81.7395 C.3       3 GLC5        0.0000 
     54 CA         26.0460   77.7320   81.4670 C.3       6 GLP5        0.0000 
     55 CA         21.8800   71.7407   78.5207 C.3       3 GLC5        0.0000 
     56 CA         23.0440   71.3180   80.6620 C.3       9 GLL5        0.0000 
     57 CA         19.3100   66.3662   82.4510 C.3       3 GLC5        0.0000 
     58 CA         20.8880   67.5120   83.8410 C.3       9 GLL5        0.0000 
     59 CA         17.8000   65.9600   81.2670 C.3       6 GLP5        0.0000 
     60 CA         24.2295   69.1502   86.2438 C.3       3 GLC5        0.0000 
     61 CA         23.7500   68.9210   88.1720 C.3       6 GLP5        0.0000 
@<TRIPOS>BOND
@<TRIPOS>SUBSTRUCTURE
     1 ALC1        6 GROUP        1 X    ALC  0     ROOT ALC X 1
     2 SEC2       47 GROUP        1 X    SEC  0     **** SEC X 2
     3 GLC5        1 GROUP        1 X    GLC  0     **** GLC X 6
     4 ALP1        8 GROUP        1 Y    ALP  0     ROOT ALP Y 8
     5 SEP2       49 GROUP        1 Y    SEP  0     **** SEP Y 9
     6 GLP5        3 GROUP        1 Y    GLP  0     **** GLP Y 13
     7 ALL1        7 GROUP        1 Z    ALL  0     ROOT ALL Z 15
     8 SEL2       48 GROUP        1 Z    SEL  0     **** SEL Z 16
     9 GLL5        2 GROUP        1 Z    GLL  0     **** GLL Z 20
@<TRIPOS>SET

