#    Name: 2g1n_1IG_1_ligand
#    Modification time : Tue Mar 25 13:22:30 2014

@<TRIPOS>MOLECULE
2g1n_1IG_1_ligand
   55    57     1     0     0
SMALL
NO_CHARGES


@<TRIPOS>ATOM
      1 C1         24.8970   71.6710   79.0080 C.ar      1 1IG885      0.0000 
      2 N1         25.8340   72.3870   78.3620 N.ar      1 1IG885      0.0000 
      3 C2         25.9350   73.6730   78.7060 C.ar      1 1IG885      0.0000 
      4 N2         25.1760   74.2760   79.6400 N.ar      1 1IG885      0.0000 
      5 C3         24.2250   73.5710   80.3030 C.ar      1 1IG885      0.0000 
      6 C4         24.0450   72.2020   80.0080 C.ar      1 1IG885      0.0000 
      7 N3         24.8060   70.3690   78.6490 N.pl3     1 1IG885      0.0000 
      8 N4         26.8480   74.4300   78.0960 N.pl3     1 1IG885      0.0000 
      9 C5         23.4200   74.3410   81.3320 C.3       1 1IG885      0.0000 
     10 C6         24.1040   74.3770   82.6920 C.3       1 1IG885      0.0000 
     11 C7         21.7080   71.2890   80.2730 C.ar      1 1IG885      0.0000 
     12 C8         20.8210   70.4140   80.9080 C.ar      1 1IG885      0.0000 
     13 C9         21.2630   69.5600   81.9400 C.ar      1 1IG885      0.0000 
     14 C10        22.6250   69.5690   82.3580 C.ar      1 1IG885      0.0000 
     15 C11        23.4740   70.4860   81.6780 C.ar      1 1IG885      0.0000 
     16 C12        23.0440   71.3180   80.6620 C.ar      1 1IG885      0.0000 
     17 S1         20.0310   68.5260   82.6360 S.3       1 1IG885      0.0000 
     18 C14        20.8880   67.5120   83.8410 C.3       1 1IG885      0.0000 
     19 C15        22.4080   67.7920   84.1070 C.2       1 1IG885      0.0000 
     20 N5         23.1390   68.7420   83.3930 N.am      1 1IG885      0.0000 
     21 C16        24.5850   68.8260   83.7980 C.3       1 1IG885      0.0000 
     22 C17        24.8330   69.9330   84.8330 C.3       1 1IG885      0.0000 
     23 N6         26.1090   70.5910   84.5670 N.am      1 1IG885      0.0000 
     24 C13        26.7030   71.3840   85.4830 C.2       1 1IG885      0.0000 
     25 C19        28.0340   71.9750   85.0370 C.3       1 1IG885      0.0000 
     26 C21        20.7520   66.0330   83.4290 C.3       1 1IG885      0.0000 
     27 C20        20.1170   67.7840   85.1370 C.3       1 1IG885      0.0000 
     28 O4         22.9330   67.1140   84.9830 O.2       1 1IG885      0.0000 
     29 O1         26.2590   71.6310   86.5880 O.2       1 1IG885      0.0000 
     30 H          25.4544   70.0578   77.9543 H         1 1IG885      0.0000 
     31 H          24.0983   69.8338   79.1103 H         1 1IG885      0.0000 
     32 H          27.0631   74.1842   77.1509 H         1 1IG885      0.0000 
     33 H          27.2354   75.1753   78.6386 H         1 1IG885      0.0000 
     34 H          22.4320   73.8770   81.4404 H         1 1IG885      0.0000 
     35 H          23.2699   75.3688   80.9796 H         1 1IG885      0.0000 
     36 H          21.3732   71.9044   79.5256 H         1 1IG885      0.0000 
     37 H          19.8322   70.3888   80.6226 H         1 1IG885      0.0000 
     38 H          24.4804   70.5199   81.9770 H         1 1IG885      0.0000 
     39 H          25.2065   69.0262   82.9174 H         1 1IG885      0.0000 
     40 H          24.9071   67.8696   84.2262 H         1 1IG885      0.0000 
     41 H          24.8254   69.4764   85.8257 H         1 1IG885      0.0000 
     42 H          24.0046   70.6432   84.7745 H         1 1IG885      0.0000 
     43 H          26.5315   70.4146   83.6365 H         1 1IG885      0.0000 
     44 H          25.0031   74.8122   82.6441 H         1 1IG885      0.0000 
     45 H          23.5671   74.8866   83.3644 H         1 1IG885      0.0000 
     46 H          24.2423   73.4586   83.0626 H         1 1IG885      0.0000 
     47 H          28.4394   72.5534   85.7449 H         1 1IG885      0.0000 
     48 H          28.7027   71.2634   84.8215 H         1 1IG885      0.0000 
     49 H          27.9336   72.5405   84.2184 H         1 1IG885      0.0000 
     50 H          21.2105   65.8458   82.5602 H         1 1IG885      0.0000 
     51 H          21.1522   65.4195   84.1098 H         1 1IG885      0.0000 
     52 H          19.7950   65.7646   83.3191 H         1 1IG885      0.0000 
     53 H          20.3832   67.1541   85.8667 H         1 1IG885      0.0000 
     54 H          20.2771   68.7107   85.4769 H         1 1IG885      0.0000 
     55 H          19.1301   67.6849   85.0098 H         1 1IG885      0.0000 
@<TRIPOS>BOND
     1    2    1 ar   
     2    6    1 ar   
     3    7    1 1    
     4    3    2 ar   
     5    4    3 ar   
     6    8    3 1    
     7    5    4 ar   
     8    6    5 ar   
     9    9    5 1    
    10   16    6 1    
    11   30    7 1    
    12   31    7 1    
    13   32    8 1    
    14   33    8 1    
    15   10    9 1    
    16   34    9 1    
    17   35    9 1    
    18   44   10 1    
    19   45   10 1    
    20   46   10 1    
    21   12   11 ar   
    22   16   11 ar   
    23   36   11 1    
    24   13   12 ar   
    25   37   12 1    
    26   14   13 ar   
    27   17   13 1    
    28   15   14 ar   
    29   20   14 1    
    30   16   15 ar   
    31   38   15 1    
    32   18   17 1    
    33   19   18 1    
    34   26   18 1    
    35   27   18 1    
    36   20   19 am   
    37   28   19 2    
    38   21   20 1    
    39   22   21 1    
    40   39   21 1    
    41   40   21 1    
    42   23   22 1    
    43   41   22 1    
    44   42   22 1    
    45   24   23 am   
    46   43   23 1    
    47   25   24 1    
    48   29   24 2    
    49   47   25 1    
    50   48   25 1    
    51   49   25 1    
    52   50   26 1    
    53   51   26 1    
    54   52   26 1    
    55   53   27 1    
    56   54   27 1    
    57   55   27 1    
@<TRIPOS>SUBSTRUCTURE
     1 1IG885      1 GROUP   
@<TRIPOS>SET

