#    Name: 2VWM_1_CAVITY_N1_ALL.mol2
#    Modification time : Mon Mar 10 18:07:49 2014

@<TRIPOS>MOLECULE
2VWM_1_CAVITY_N1_ALL.mol2
   70     0     5     0     0
SMALL
NO_CHARGES


@<TRIPOS>ATOM
      1 N          10.5653    7.8948   26.5202 N.2       2 ALA2        0.0000 
      2 OG         11.9360    7.6247   25.9741 O.2       1 SER1        0.0000 
      3 DU         13.3067    7.3545   25.4280 H         5 CUB7        0.0000 
      4 N          10.2176    6.4439   26.3651 N.2       2 ALA2        0.0000 
      5 DU         11.5883    6.1738   25.8190 H         5 CUB7        0.0000 
      6 OG         11.2406    4.7229   25.6638 O.2       1 SER1        0.0000 
      7 DU         12.6113    4.4528   25.1177 H         5 CUB7        0.0000 
      8 DU         13.9820    4.1827   24.5716 H         5 CUB7        0.0000 
      9 DU         15.3527    3.9126   24.0256 H         5 CUB7        0.0000 
     10 CA         10.8928    3.2720   25.5087 C.3       4 GLY6        0.0000 
     11 CA         12.2635    3.0019   24.9626 C.3       4 GLY6        0.0000 
     12 CA         13.6343    2.7318   24.4165 C.3       4 GLY6        0.0000 
     13 CA         15.0050    2.4617   23.8704 C.3       4 GLY6        0.0000 
     14 CA         16.3757    2.1916   23.3243 C.3       4 GLY6        0.0000 
     15 O          13.2865    1.2810   24.2614 O.2       2 ALA2        0.0000 
     16 N           9.7173    6.7122   24.9766 N.2       2 ALA2        0.0000 
     17 N          11.0880    6.4421   24.4305 N.2       2 ALA2        0.0000 
     18 O          12.4587    6.1720   23.8845 O.2       2 ALA2        0.0000 
     19 OG          9.3696    5.2614   24.8215 O.2       1 SER1        0.0000 
     20 CA         10.7403    4.9913   24.2754 C.3       4 GLY6        0.0000 
     21 CA         12.1110    4.7212   23.7293 C.3       4 GLY6        0.0000 
     22 CA         13.4817    4.4511   23.1832 C.3       4 GLY6        0.0000 
     23 DU         14.8524    4.1810   22.6371 H         5 CUB7        0.0000 
     24 N          14.5047    2.7301   22.4820 N.2       2 ALA2        0.0000 
     25 CA         15.8754    2.4600   21.9359 C.3       4 GLY6        0.0000 
     26 CA         17.2461    2.1899   21.3898 C.3       4 GLY6        0.0000 
     27 CA         14.1570    1.2792   22.3268 C.3       4 GLY6        0.0000 
     28 N          15.5277    1.0091   21.7808 N.2       2 ALA2        0.0000 
     29 O          10.5877    6.7105   23.0421 O.2       2 ALA2        0.0000 
     30 CA          8.8693    5.5297   23.4331 C.3       4 GLY6        0.0000 
     31 N          15.3751    2.7283   20.5475 N.2       2 ALA2        0.0000 
     32 N          16.7458    2.4582   20.0014 N.2       2 ALA2        0.0000 
     33 CA         10.6752    1.2862   30.0649 C.3       4 GLY6        0.0000 
     34 O          12.0459    1.0161   29.5188 O.2       2 ALA2        0.0000 
     35 O          13.4166    0.7460   28.9727 O.2       2 ALA2        0.0000 
     36 N          11.6982   -0.4348   29.3636 N.2       2 ALA2        0.0000 
     37 CZ         12.9365    7.0879   28.7510 C.ar      3 PHE5        0.0000 
     38 CA         14.3072    6.8178   28.2049 C.3       4 GLY6        0.0000 
     39 CA         12.5888    5.6371   28.5958 C.3       4 GLY6        0.0000 
     40 CA         13.9595    5.3670   28.0497 C.3       4 GLY6        0.0000 
     41 CA         12.2411    4.1862   28.4407 C.3       4 GLY6        0.0000 
     42 O          13.6118    3.9161   27.8946 O.2       2 ALA2        0.0000 
     43 OG         10.5227    3.0054   28.8316 O.2       1 SER1        0.0000 
     44 CA         11.8934    2.7353   28.2855 C.3       4 GLY6        0.0000 
     45 O          13.2641    2.4652   27.7394 O.2       2 ALA2        0.0000 
     46 N          14.6348    2.1951   27.1933 N.2       2 ALA2        0.0000 
     47 CA         10.1750    1.5546   28.6765 C.3       4 GLY6        0.0000 
     48 CA         11.5457    1.2844   28.1304 C.3       4 GLY6        0.0000 
     49 N          12.9164    1.0143   27.5843 N.2       2 ALA2        0.0000 
     50 O          11.1979   -0.1664   27.9752 O.2       2 ALA2        0.0000 
     51 CA         12.5686   -0.4365   27.4291 C.3       4 GLY6        0.0000 
     52 OG         14.1547    8.5371   26.9716 O.2       1 SER1        0.0000 
     53 OG         12.4362    7.3563   27.3625 O.2       1 SER1        0.0000 
     54 OG         13.8069    7.0862   26.8165 O.2       1 SER1        0.0000 
     55 N          10.7178    6.1755   27.7535 N.2       2 ALA2        0.0000 
     56 OG         12.0885    5.9054   27.2074 O.2       1 SER1        0.0000 
     57 DU         13.4592    5.6353   26.6613 H         5 CUB7        0.0000 
     58 N          14.8299    5.3652   26.1152 N.2       2 ALA2        0.0000 
     59 OG         11.7408    4.4545   27.0522 O.2       1 SER1        0.0000 
     60 DU         13.1115    4.1844   26.5062 H         5 CUB7        0.0000 
     61 N          14.4822    3.9143   25.9601 N.2       2 ALA2        0.0000 
     62 N          15.8529    3.6442   25.4140 N.2       2 ALA2        0.0000 
     63 O          17.2236    3.3741   24.8679 O.2       2 ALA2        0.0000 
     64 OG         11.3931    3.0037   26.8971 O.2       1 SER1        0.0000 
     65 O          12.7638    2.7336   26.3510 O.2       2 ALA2        0.0000 
     66 N          14.1345    2.4635   25.8049 N.2       2 ALA2        0.0000 
     67 N          15.5052    2.1934   25.2588 N.2       2 ALA2        0.0000 
     68 N          11.0454    1.5528   26.7419 N.2       2 ALA2        0.0000 
     69 O          12.4161    1.2827   26.1959 O.2       2 ALA2        0.0000 
     70 CA         13.7868    1.0126   25.6498 C.3       4 GLY6        0.0000 
@<TRIPOS>BOND
@<TRIPOS>SUBSTRUCTURE
     1 SER1        2 GROUP   
     2 ALA2        1 GROUP   
     3 PHE5       37 GROUP   
     4 GLY6       10 GROUP   
     5 CUB7        3 GROUP   
@<TRIPOS>SET

