#    Name: 2vwm_LZI_1_INTS_M
#    Modification time : Tue Mar 25 03:11:01 2014

@<TRIPOS>MOLECULE
2vwm_LZI_1_INTS_M
   68     0     6     0     0
SMALL
NO_CHARGES


@<TRIPOS>ATOM
      1 CA         19.9380    6.5460   29.9605 C.3       2 GLC5        0.0000 
      2 CA         18.5840    5.8730   28.9330 C.3       6 GLL5        0.0000 
      3 CA         21.2920    7.2190   30.9880 C.3       4 GLP5        0.0000 
      4 CA         17.5360    5.4435   30.7795 C.3       2 GLC5        0.0000 
      5 CA         16.4880    5.0140   32.6260 C.3       4 GLP5        0.0000 
      6 CA         18.8635    4.1335   28.8915 C.3       2 GLC5        0.0000 
      7 CA         19.1430    2.3940   28.8500 C.3       4 GLP5        0.0000 
      8 O          16.4020    4.6245   28.0095 O.2       1 ALC1        0.0000 
      9 O          16.1980    6.0120   27.4540 O.2       5 ALL1        0.0000 
     10 O          16.6060    3.2370   28.5650 O.2       3 ALP1        0.0000 
     11 CA         11.9335    2.1550   24.4965 C.3       2 GLC5        0.0000 
     12 CA         13.6530    2.6620   25.4530 C.3       6 GLL5        0.0000 
     13 CA         10.2140    1.6480   23.5400 C.3       4 GLP5        0.0000 
     14 CA         12.8995    2.1535   23.4210 C.3       2 GLC5        0.0000 
     15 CA         14.7670    2.2680   24.5410 C.3       6 GLL5        0.0000 
     16 CA         11.0320    2.0390   22.3010 C.3       4 GLP5        0.0000 
     17 O          14.8590    0.8845   26.7415 O.2       1 ALC1        0.0000 
     18 O          13.5740    1.7100   26.5520 O.2       5 ALL1        0.0000 
     19 O          16.1440    0.0590   26.9310 O.2       3 ALP1        0.0000 
     20 CA         13.7670   -0.6800   26.7065 C.3       2 GLC5        0.0000 
     21 CA         13.2730   -0.1310   28.7780 C.3       6 GLL5        0.0000 
     22 CA         14.2610   -1.2290   24.6350 C.3       4 GLP5        0.0000 
     23 CA         10.2775   -0.7315   29.5685 C.3       2 GLC5        0.0000 
     24 CA         11.2280    1.2200   29.6860 C.3       6 GLL5        0.0000 
     25 CA          9.3270   -2.6830   29.4510 C.3       4 GLP5        0.0000 
     26 CA         10.1810   -1.5950   30.7345 C.3       2 GLC5        0.0000 
     27 CA         11.0350   -0.5070   32.0180 C.3       6 GLL5        0.0000 
     28 CA          9.5150    0.0985   31.2485 C.3       2 GLC5        0.0000 
     29 CA          7.9950    0.7040   30.4790 C.3       4 GLP5        0.0000 
     30 CA         12.4585   -1.1145   32.7710 C.3       2 GLC5        0.0000 
     31 CA         13.8820   -1.7220   33.5240 C.3       4 GLP5        0.0000 
     32 CA         12.0705    0.4925   33.7325 C.3       2 GLC5        0.0000 
     33 CA         13.1060    1.4920   35.4470 C.3       4 GLP5        0.0000 
     34 CA         10.1565   -1.4960   33.2230 C.3       2 GLC5        0.0000 
     35 CA          9.2780   -2.4850   34.4280 C.3       4 GLP5        0.0000 
     36 CA         17.8465    0.6715   18.3340 C.3       2 GLC5        0.0000 
     37 CA         17.3350    2.6030   19.2560 C.3       6 GLL5        0.0000 
     38 CA         18.3580   -1.2600   17.4120 C.3       4 GLP5        0.0000 
     39 CA         16.7515   12.4202   34.5452 C.3       2 GLC5        0.0000 
     40 CA         17.8390   11.3320   32.9910 C.3       6 GLL5        0.0000 
     41 CA         15.7100   13.7800   35.4760 C.3       4 GLP5        0.0000 
     42 CA         19.0860    9.5723   34.0877 C.3       2 GLC5        0.0000 
     43 CA         17.7470   10.7890   34.2380 C.3       6 GLL5        0.0000 
     44 CA         20.3790    8.0840   34.5610 C.3       4 GLP5        0.0000 
     45 CA         15.2288    9.6728   33.8475 C.3       2 GLC5        0.0000 
     46 CA         17.3270    9.4340   34.4020 C.3       6 GLL5        0.0000 
     47 CA         13.2650   10.2940   33.8370 C.3       4 GLP5        0.0000 
     48 CA         18.7858    8.5678   34.2095 C.3       2 GLC5        0.0000 
     49 CA         17.0580    8.6690   33.3140 C.3       6 GLL5        0.0000 
     50 CA         14.6945    6.4810   30.2439 C.3       2 GLC5        0.0000 
     51 CA         15.6450    8.5050   30.1560 C.3       6 GLL5        0.0000 
     52 CA         13.4190    5.4990   31.3810 C.3       4 GLP5        0.0000 
     53 CA         16.6547    1.6825   25.0390 C.3       2 GLC5        0.0000 
     54 CA         15.5340    3.4960   24.1870 C.3       6 GLL5        0.0000 
     55 CA         18.1590    0.4830   25.7140 C.3       4 GLP5        0.0000 
     56 CA         14.2355    0.6180   24.8160 C.3       2 GLC5        0.0000 
     57 CA         11.9712   -0.5110   27.1380 C.3       2 GLC5        0.0000 
     58 CA         12.4820    0.9510   28.5340 C.3       6 GLL5        0.0000 
     59 CA         11.0650   -1.4320   25.6200 C.3       4 GLP5        0.0000 
     60 CA         10.8330   -1.5810   29.8390 C.3       2 GLC5        0.0000 
     61 CA         12.8670   -0.8090   29.9400 C.3       6 GLL5        0.0000 
     62 CA         13.1105   -1.1005   31.8755 C.3       2 GLC5        0.0000 
     63 CA          9.7572    0.6198   30.2895 C.3       2 GLC5        0.0000 
     64 CA         11.8110   -0.1490   30.5140 C.3       6 GLL5        0.0000 
     65 CA         12.2730    2.3121   30.4920 C.3       2 GLC5        0.0000 
     66 CA         12.7130    4.1560   31.1720 C.3       4 GLP5        0.0000 
     67 CA         14.1686    0.9888   29.9297 C.3       2 GLC5        0.0000 
     68 CA         15.7290    2.0120   30.4180 C.3       4 GLP5        0.0000 
@<TRIPOS>BOND
@<TRIPOS>SUBSTRUCTURE
     1 ALC1        8 GROUP        1 X    ALC  0     ROOT ALC X 1
     2 GLC5        1 GROUP        1 X    GLC  0     **** GLC X 6
     3 ALP1       10 GROUP        1 Y    ALP  0     ROOT ALP Y 8
     4 GLP5        3 GROUP        1 Y    GLP  0     **** GLP Y 13
     5 ALL1        9 GROUP        1 Z    ALL  0     ROOT ALL Z 15
     6 GLL5        2 GROUP        1 Z    GLL  0     **** GLL Z 20
@<TRIPOS>SET

