#    Name: 2vwm_LZI_1_ligand
#    Modification time : Tue Mar 25 03:11:01 2014

@<TRIPOS>MOLECULE
2vwm_LZI_1_ligand
   67    71     1     0     0
SMALL
NO_CHARGES


@<TRIPOS>ATOM
      1 O30        17.6140   10.9800   30.6350 O.2       1 LZI1244     0.0000 
      2 C7         17.5410   10.5570   31.8190 C.2       1 LZI1244     0.0000 
      3 C28        17.8390   11.3320   32.9910 C.2       1 LZI1244     0.0000 
      4 C36        17.7470   10.7890   34.2380 C.2       1 LZI1244     0.0000 
      5 C35        17.3270    9.4340   34.4020 C.2       1 LZI1244     0.0000 
      6 C24        17.0580    8.6690   33.3140 C.2       1 LZI1244     0.0000 
      7 N2         17.1380    9.2020   32.0090 N.am      1 LZI1244     0.0000 
      8 C8         16.8490    8.3830   30.8440 C.ar      1 LZI1244     0.0000 
      9 C11        17.8510    7.5080   30.4430 C.ar      1 LZI1244     0.0000 
     10 C19        17.6130    6.7460   29.3240 C.ar      1 LZI1244     0.0000 
     11 F39        18.5840    5.8730   28.9330 F         1 LZI1244     0.0000 
     12 C31        15.6450    8.5050   30.1560 C.ar      1 LZI1244     0.0000 
     13 C34        15.4090    7.7010   29.0310 C.ar      1 LZI1244     0.0000 
     14 C18        16.4130    6.8230   28.6200 C.ar      1 LZI1244     0.0000 
     15 N15        16.1980    6.0120   27.4540 N.am      1 LZI1244     0.0000 
     16 C12        15.6940    6.6550   26.2910 C.2       1 LZI1244     0.0000 
     17 O33        15.5460    7.8820   26.3200 O.2       1 LZI1244     0.0000 
     18 C16        15.3470    5.8960   25.0490 C.3       1 LZI1244     0.0000 
     19 N1         15.1000    4.4530   25.2310 N.4       1 LZI1244     0.0000 
     20 C5         15.5340    3.4960   24.1870 C.3       1 LZI1244     0.0000 
     21 C10        15.0200    3.9400   22.8610 C.2       1 LZI1244     0.0000 
     22 N23        15.8250    3.7220   21.7650 N.am      1 LZI1244     0.0000 
     23 O32        13.9190    4.5020   22.7680 O.2       1 LZI1244     0.0000 
     24 C21        14.0630    4.0360   25.9140 C.3       1 LZI1244     0.0000 
     25 C17        13.6530    2.6620   25.4530 C.3       1 LZI1244     0.0000 
     26 C20        14.7670    2.2680   24.5410 C.3       1 LZI1244     0.0000 
     27 N13        13.5740    1.7100   26.5520 N.am      1 LZI1244     0.0000 
     28 C6         12.5700    1.8850   27.4530 C.2       1 LZI1244     0.0000 
     29 O29        11.7900    2.8330   27.3020 O.2       1 LZI1244     0.0000 
     30 C3         12.4820    0.9510   28.5340 C.2       1 LZI1244     0.0000 
     31 C14        13.2730   -0.1310   28.7780 C.2       1 LZI1244     0.0000 
     32 C22        12.8670   -0.8090   29.9400 C.2       1 LZI1244     0.0000 
     33 C9         11.8110   -0.1490   30.5140 C.2       1 LZI1244     0.0000 
     34 S4         11.2280    1.2200   29.6860 S.3       1 LZI1244     0.0000 
     35 CL3        11.0350   -0.5070   32.0180 Cl        1 LZI1244     0.0000 
     36 C37        15.4560    4.0160   20.4000 C.3       1 LZI1244     0.0000 
     37 C25        16.6630    3.9330   19.4580 C.3       1 LZI1244     0.0000 
     38 C27        16.5000    3.1960   18.1580 C.3       1 LZI1244     0.0000 
     39 C26        17.3350    2.6030   19.2560 C.3       1 LZI1244     0.0000 
     40 H          18.1255   12.3158   32.8530 H         1 LZI1244     0.0000 
     41 H          17.9742   11.3326   35.0808 H         1 LZI1244     0.0000 
     42 H          17.2379    9.0670   35.3588 H         1 LZI1244     0.0000 
     43 H          16.7866    7.6719   33.4177 H         1 LZI1244     0.0000 
     44 H          18.7195    7.4395   30.9593 H         1 LZI1244     0.0000 
     45 H          14.9357    9.1734   30.4641 H         1 LZI1244     0.0000 
     46 H          14.5288    7.7588   28.5305 H         1 LZI1244     0.0000 
     47 H          16.3972    5.0345   27.4672 H         1 LZI1244     0.0000 
     48 H          16.1671    6.0413   24.3018 H         1 LZI1244     0.0000 
     49 H          14.4485    6.3706   24.5807 H         1 LZI1244     0.0000 
     50 H          16.0453    4.2055   26.0710 H         1 LZI1244     0.0000 
     51 H          16.5359    3.3263   24.2003 H         1 LZI1244     0.0000 
     52 H          16.7878    3.3105   21.9052 H         1 LZI1244     0.0000 
     53 H          13.1582    4.6825   25.8130 H         1 LZI1244     0.0000 
     54 H          14.2408    3.9567   27.0135 H         1 LZI1244     0.0000 
     55 H          12.7594    2.7285   24.8982 H         1 LZI1244     0.0000 
     56 H          15.4180    1.5579   25.0417 H         1 LZI1244     0.0000 
     57 H          14.3623    1.8137   23.6417 H         1 LZI1244     0.0000 
     58 H          14.2523    0.9727   26.6023 H         1 LZI1244     0.0000 
     59 H          14.0255   -0.4163   28.2336 H         1 LZI1244     0.0000 
     60 H          13.2788   -1.6110   30.2664 H         1 LZI1244     0.0000 
     61 H          15.0305    5.0280   20.3105 H         1 LZI1244     0.0000 
     62 H          14.6946    3.3106   20.0314 H         1 LZI1244     0.0000 
     63 H          17.3268    4.6157   19.3189 H         1 LZI1244     0.0000 
     64 H          17.0834    3.5886   17.5187 H         1 LZI1244     0.0000 
     65 H          15.6518    2.7674   18.1638 H         1 LZI1244     0.0000 
     66 H          16.8183    1.9393   19.6981 H         1 LZI1244     0.0000 
     67 H          18.2499    2.7606   19.0530 H         1 LZI1244     0.0000 
@<TRIPOS>BOND
     1    2    1 2    
     2    3    2 1    
     3    7    2 am   
     4    4    3 2    
     5   40    3 1    
     6    5    4 1    
     7   41    4 1    
     8    6    5 2    
     9   42    5 1    
    10    7    6 1    
    11   43    6 1    
    12    8    7 1    
    13    9    8 ar   
    14   12    8 ar   
    15   10    9 ar   
    16   44    9 1    
    17   11   10 1    
    18   14   10 ar   
    19   13   12 ar   
    20   45   12 1    
    21   14   13 ar   
    22   46   13 1    
    23   15   14 1    
    24   16   15 am   
    25   47   15 1    
    26   17   16 2    
    27   18   16 1    
    28   19   18 1    
    29   48   18 1    
    30   49   18 1    
    31   20   19 1    
    32   24   19 1    
    33   50   19 1    
    34   21   20 1    
    35   26   20 1    
    36   51   20 1    
    37   22   21 am   
    38   23   21 2    
    39   36   22 1    
    40   52   22 1    
    41   25   24 1    
    42   53   24 1    
    43   54   24 1    
    44   26   25 1    
    45   27   25 1    
    46   55   25 1    
    47   56   26 1    
    48   57   26 1    
    49   28   27 am   
    50   58   27 1    
    51   29   28 2    
    52   30   28 1    
    53   31   30 2    
    54   34   30 1    
    55   32   31 1    
    56   59   31 1    
    57   33   32 2    
    58   60   32 1    
    59   34   33 1    
    60   35   33 1    
    61   37   36 1    
    62   61   36 1    
    63   62   36 1    
    64   38   37 1    
    65   39   37 1    
    66   63   37 1    
    67   39   38 1    
    68   64   38 1    
    69   65   38 1    
    70   66   39 1    
    71   67   39 1    
@<TRIPOS>SUBSTRUCTURE
     1 LZI1244     1 GROUP   
@<TRIPOS>SET

