#    Name: 2waj_SNB_1_INTS_M
#    Modification time : Tue Mar 25 03:50:12 2014

@<TRIPOS>MOLECULE
2waj_SNB_1_INTS_M
   72     0     3     0     0
SMALL
NO_CHARGES


@<TRIPOS>ATOM
      1 CA         17.0035    7.4055   33.0680 C.3       1 GLC5        0.0000 
      2 CA         18.6030    6.6010   33.1110 C.3       3 GLL5        0.0000 
      3 CA         15.4040    8.2100   33.0250 C.3       2 GLP5        0.0000 
      4 CA         18.4675    4.9835   34.2400 C.3       1 GLC5        0.0000 
      5 CA         18.3320    3.3660   35.3690 C.3       2 GLP5        0.0000 
      6 CA         17.7355    5.5405   32.0960 C.3       1 GLC5        0.0000 
      7 CA         16.8680    4.4800   31.0810 C.3       2 GLP5        0.0000 
      8 CA         18.0240    7.0345   31.0015 C.3       1 GLC5        0.0000 
      9 CA         17.4450    7.4680   28.8920 C.3       2 GLP5        0.0000 
     10 CA         23.1185    5.9350   32.9195 C.3       1 GLC5        0.0000 
     11 CA         22.2100    5.2400   31.0890 C.3       3 GLL5        0.0000 
     12 CA         24.0270    6.6300   34.7500 C.3       2 GLP5        0.0000 
     13 CA         20.1880    4.5225   30.8900 C.3       1 GLC5        0.0000 
     14 CA         18.1660    3.8050   30.6910 C.3       2 GLP5        0.0000 
     15 CA         22.4735    4.2260   29.1135 C.3       1 GLC5        0.0000 
     16 CA         22.7370    3.2120   27.1380 C.3       2 GLP5        0.0000 
     17 CA         21.0805    6.4255   29.7305 C.3       1 GLC5        0.0000 
     18 CA         19.9510    7.6110   28.3720 C.3       2 GLP5        0.0000 
     19 CA         18.4075    9.8025   31.6055 C.3       1 GLC5        0.0000 
     20 CA         19.7610    9.0620   32.6930 C.3       3 GLL5        0.0000 
     21 CA         17.0540   10.5430   30.5180 C.3       2 GLP5        0.0000 
     22 CA         20.7340   11.5175   29.9955 C.3       1 GLC5        0.0000 
     23 CA         22.4980   11.6030   30.7510 C.3       3 GLL5        0.0000 
     24 CA         18.9700   11.4320   29.2400 C.3       2 GLP5        0.0000 
     25 CA         21.7110   12.2830   33.9835 C.3       1 GLC5        0.0000 
     26 CA         19.6410   12.0270   33.2790 C.3       3 GLL5        0.0000 
     27 CA         23.7810   12.5390   34.6880 C.3       2 GLP5        0.0000 
     28 CA         21.2785   10.9525   35.0820 C.3       1 GLC5        0.0000 
     29 CA         19.4250   11.5260   34.5530 C.3       3 GLL5        0.0000 
     30 CA         23.1320   10.3790   35.6110 C.3       2 GLP5        0.0000 
     31 CA         19.7520    9.5650   35.4435 C.3       1 GLC5        0.0000 
     32 CA         20.0790    7.6040   36.3340 C.3       2 GLP5        0.0000 
     33 CA         19.1655    9.5165   36.7310 C.3       1 GLC5        0.0000 
     34 CA         18.2520   11.4290   37.1280 C.3       3 GLL5        0.0000 
     35 CA         19.6540   10.7625   38.6240 C.3       1 GLC5        0.0000 
     36 CA         21.0560   10.0960   40.1200 C.3       2 GLP5        0.0000 
     37 CA         19.7230   12.6465   37.2435 C.3       1 GLC5        0.0000 
     38 CA         21.1940   13.8640   37.3590 C.3       2 GLP5        0.0000 
     39 CA         17.6195   13.0270   38.1400 C.3       1 GLC5        0.0000 
     40 CA         16.9870   14.6250   39.1520 C.3       2 GLP5        0.0000 
     41 CA         17.3050   10.8420   38.8520 C.3       1 GLC5        0.0000 
     42 CA         16.3580   10.2550   40.5760 C.3       2 GLP5        0.0000 
     43 CA         17.2775   10.0370   36.3860 C.3       1 GLC5        0.0000 
     44 CA         16.3030    8.6450   35.6440 C.3       2 GLP5        0.0000 
     45 CA         17.3475   14.8255   36.2060 C.3       1 GLC5        0.0000 
     46 CA         17.7410   13.2130   34.9450 C.3       3 GLL5        0.0000 
     47 CA         16.9540   16.4380   37.4670 C.3       2 GLP5        0.0000 
     48 CA         18.0435    8.9012   33.3358 C.3       1 GLC5        0.0000 
     49 CA         19.9190    7.6810   32.5780 C.3       3 GLL5        0.0000 
     50 CA         16.2470    9.4310   34.0360 C.3       2 GLP5        0.0000 
     51 CA         20.2255    7.5120   30.3440 C.3       1 GLC5        0.0000 
     52 CA         22.8128    7.0987   33.2955 C.3       1 GLC5        0.0000 
     53 CA         21.0810    7.1450   32.0540 C.3       3 GLL5        0.0000 
     54 CA         20.0225    7.8533   34.4526 C.3       1 GLC5        0.0000 
     55 CA         22.2542   10.0075   33.8095 C.3       1 GLC5        0.0000 
     56 CA         20.7880    9.9010   32.2710 C.3       3 GLL5        0.0000 
     57 CA         20.1732   10.5340   30.6240 C.3       1 GLC5        0.0000 
     58 CA         20.9958    8.1457   30.0293 C.3       1 GLC5        0.0000 
     59 CA         21.9650    9.3710   31.7450 C.3       3 GLL5        0.0000 
     60 CA         23.2830   11.7440   32.8533 C.3       1 GLC5        0.0000 
     61 CA         23.0720   10.2950   31.2860 C.3       3 GLL5        0.0000 
     62 CA         17.8900   10.6037   33.9760 C.3       1 GLC5        0.0000 
     63 CA         18.1620   11.5585   31.7928 C.3       1 GLC5        0.0000 
     64 CA         16.3095   12.6455   34.2935 C.3       1 GLC5        0.0000 
     65 CA         18.4910   12.1230   35.3870 C.3       3 GLL5        0.0000 
     66 CA         14.5030   12.6230   33.4210 C.3       2 GLP5        0.0000 
     67 CA         17.1815   11.0495   34.6010 C.3       1 GLC5        0.0000 
     68 CA         19.7718   13.1914   36.1583 C.3       1 GLC5        0.0000 
     69 CA         20.0452   14.2170   34.3739 C.3       1 GLC5        0.0000 
     70 CA         21.4900   15.2890   35.3790 C.3       2 GLP5        0.0000 
     71 CA         16.4590   13.0207   33.3420 C.3       1 GLC5        0.0000 
     72 CA         18.8990   13.1210   32.8560 C.3       3 GLL5        0.0000 
@<TRIPOS>BOND
@<TRIPOS>SUBSTRUCTURE
     1 GLC5        1 GROUP        1 X    GLC  0     ROOT GLC X 6
     2 GLP5        3 GROUP        1 Y    GLP  0     ROOT GLP Y 13
     3 GLL5        2 GROUP        1 Z    GLL  0     ROOT GLL Z 20
@<TRIPOS>SET

