#    Name: 2waj_SNB_1_ligand
#    Modification time : Tue Mar 25 03:50:12 2014

@<TRIPOS>MOLECULE
2waj_SNB_1_ligand
   33    35     1     0     0
SMALL
NO_CHARGES


@<TRIPOS>ATOM
      1 CL         18.6030    6.6010   33.1110 Cl        1 SNB1401     0.0000 
      2 C16        19.9190    7.6810   32.5780 C.ar      1 SNB1401     0.0000 
      3 C2         21.0810    7.1450   32.0540 C.ar      1 SNB1401     0.0000 
      4 O          21.1920    5.7840   31.9400 O.3       1 SNB1401     0.0000 
      5 C1         22.2100    5.2400   31.0890 C.3       1 SNB1401     0.0000 
      6 C15        19.7610    9.0620   32.6930 C.ar      1 SNB1401     0.0000 
      7 C14        20.7880    9.9010   32.2710 C.ar      1 SNB1401     0.0000 
      8 C4         21.9650    9.3710   31.7450 C.ar      1 SNB1401     0.0000 
      9 C3         22.1160    7.9900   31.6280 C.ar      1 SNB1401     0.0000 
     10 C7         20.6710   11.3810   32.3810 C.2       1 SNB1401     0.0000 
     11 N          21.4980   12.0690   31.7140 N.2       1 SNB1401     0.0000 
     12 C6         22.4980   11.6030   30.7510 C.3       1 SNB1401     0.0000 
     13 C5         23.0720   10.2950   31.2860 C.3       1 SNB1401     0.0000 
     14 C8         19.6410   12.0270   33.2790 C.ar      1 SNB1401     0.0000 
     15 C13        19.4250   11.5260   34.5530 C.ar      1 SNB1401     0.0000 
     16 C12        18.4910   12.1230   35.3870 C.ar      1 SNB1401     0.0000 
     17 BR         18.2520   11.4290   37.1280 Br        1 SNB1401     0.0000 
     18 C11        17.7410   13.2130   34.9450 C.ar      1 SNB1401     0.0000 
     19 C10        17.9310   13.7160   33.6700 C.ar      1 SNB1401     0.0000 
     20 C9         18.8990   13.1210   32.8560 C.ar      1 SNB1401     0.0000 
     21 H          18.9005    9.4519   33.0828 H         1 SNB1401     0.0000 
     22 H          22.9720    7.5933   31.2357 H         1 SNB1401     0.0000 
     23 H          23.3039   12.3182   30.6495 H         1 SNB1401     0.0000 
     24 H          22.0495   11.4138   29.7844 H         1 SNB1401     0.0000 
     25 H          23.6494    9.8103   30.4982 H         1 SNB1401     0.0000 
     26 H          23.7365   10.5129   32.1226 H         1 SNB1401     0.0000 
     27 H          19.9590   10.7083   34.8820 H         1 SNB1401     0.0000 
     28 H          17.0457   13.6407   35.5727 H         1 SNB1401     0.0000 
     29 H          17.3818   14.5010   33.3268 H         1 SNB1401     0.0000 
     30 H          19.0650   13.5127   31.9060 H         1 SNB1401     0.0000 
     31 H          23.1255    5.5161   31.3818 H         1 SNB1401     0.0000 
     32 H          22.1934    4.2402   31.0825 H         1 SNB1401     0.0000 
     33 H          22.1020    5.5411   30.1415 H         1 SNB1401     0.0000 
@<TRIPOS>BOND
     1    2    1 1    
     2    3    2 ar   
     3    6    2 ar   
     4    4    3 1    
     5    9    3 ar   
     6    5    4 1    
     7   31    5 1    
     8   32    5 1    
     9   33    5 1    
    10    7    6 ar   
    11   21    6 1    
    12    8    7 ar   
    13   10    7 1    
    14    9    8 ar   
    15   13    8 1    
    16   22    9 1    
    17   11   10 2    
    18   14   10 1    
    19   12   11 1    
    20   13   12 1    
    21   23   12 1    
    22   24   12 1    
    23   25   13 1    
    24   26   13 1    
    25   15   14 ar   
    26   20   14 ar   
    27   16   15 ar   
    28   27   15 1    
    29   17   16 1    
    30   18   16 ar   
    31   19   18 ar   
    32   28   18 1    
    33   20   19 ar   
    34   29   19 1    
    35   30   20 1    
@<TRIPOS>SUBSTRUCTURE
     1 SNB1401     1 GROUP   
@<TRIPOS>SET

