#    Name: 1hb4_SCV_1_INTS_M
#    Modification time : Tue Mar 25 05:20:35 2014

@<TRIPOS>MOLECULE
1hb4_SCV_1_INTS_M
   60     0     9     0     0
SMALL
NO_CHARGES


@<TRIPOS>ATOM
      1 CA         16.0405   34.5675    6.8930 C.3       3 GLC5        0.0000 
      2 CA         15.4490   36.3720    6.2130 C.3       9 GLL5        0.0000 
      3 CA         16.6320   32.7630    7.5730 C.3       6 GLP5        0.0000 
      4 CA         14.1685   34.9035    6.0670 C.3       3 GLC5        0.0000 
      5 CA         12.8880   33.4350    5.9210 C.3       6 GLP5        0.0000 
      6 CA         16.1490   39.1815    4.8720 C.3       3 GLC5        0.0000 
      7 CA         14.9970   37.6570    5.4670 C.3       9 GLL5        0.0000 
      8 CA         17.3010   40.7060    4.2770 C.3       6 GLP5        0.0000 
      9 CA          8.4925   41.2430    5.3750 C.3       3 GLC5        0.0000 
     10 CA          9.2750   39.3140    4.9520 C.3       9 GLL5        0.0000 
     11 CA          7.7100   43.1720    5.7980 C.3       6 GLP5        0.0000 
     12 CA         10.3500   38.0675    3.6025 C.3       3 GLC5        0.0000 
     13 CA         11.4250   36.8210    2.2530 C.3       6 GLP5        0.0000 
     14 CA          7.0745   35.5685    5.6095 C.3       3 GLC5        0.0000 
     15 CA          6.5210   36.7370    4.4730 C.3       9 GLL5        0.0000 
     16 CA          7.6280   34.4000    6.7460 C.3       6 GLP5        0.0000 
     17 CA          7.9135   35.0180    3.0780 C.3       3 GLC5        0.0000 
     18 CA          6.3310   36.4770    2.9670 C.3       9 GLL5        0.0000 
     19 CA          9.4960   33.5590    3.1890 C.3       6 GLP5        0.0000 
     20 CA          4.7975   36.0000    1.1135 C.3       3 GLC5        0.0000 
     21 CA          5.1240   37.3810    2.7370 C.3       9 GLL5        0.0000 
     22 CA          4.4710   34.6190   -0.5100 C.3       6 GLP5        0.0000 
     23 CA          3.4370   38.2315    1.9420 C.3       3 GLC5        0.0000 
     24 CA          1.7500   39.0820    1.1470 C.3       6 GLP5        0.0000 
     25 CA          3.9295   38.8175    3.6070 C.3       3 GLC5        0.0000 
     26 CA          2.7350   40.2540    4.4770 C.3       6 GLP5        0.0000 
     27 CA         12.8130   41.2030    4.9155 C.3       3 GLC5        0.0000 
     28 CA         13.0860   39.2550    5.2080 C.3       9 GLL5        0.0000 
     29 CA         12.5400   43.1510    4.6230 C.3       6 GLP5        0.0000 
     30 NZ         19.4425   36.2550    6.0235 N.4       2 LYC4        0.0000 
     31 NZ         18.1450   36.4140    6.4790 N.4       8 LYL4        0.0000 
     32 NZ         20.9580   35.5970    4.3620 N.4       5 LYP4        0.0000 
     33 N          19.4425   36.2550    6.0235 N.am      1 SEC2        0.0000 
     34 N          18.1450   36.4140    6.4790 N.am      7 SEL2        0.0000 
     35 N          20.7400   36.0960    5.5680 N.am      4 SEP2        0.0000 
     36 NZ         18.6110   35.6855    4.0030 N.4       2 LYC4        0.0000 
     37 NZ         17.3170   36.0010    4.4340 N.4       8 LYL4        0.0000 
     38 N          18.6110   35.6855    4.0030 N.am      1 SEC2        0.0000 
     39 N          17.3170   36.0010    4.4340 N.am      7 SEL2        0.0000 
     40 N          19.9050   35.3700    3.5720 N.am      4 SEP2        0.0000 
     41 N          16.8690   34.9555    3.7640 N.am      1 SEC2        0.0000 
     42 N          16.4210   33.9100    3.0940 N.am      4 SEP2        0.0000 
     43 CA          8.4690   35.2180    1.8195 C.3       3 GLC5        0.0000 
     44 CA          7.4360   36.7740    1.9480 C.3       9 GLL5        0.0000 
     45 CA          9.5020   33.6620    1.6910 C.3       6 GLP5        0.0000 
     46 CA          9.4305   36.7975    2.1005 C.3       3 GLC5        0.0000 
     47 N           4.5610   37.7205    7.3585 N.am      1 SEC2        0.0000 
     48 N           5.3670   37.6370    6.3760 N.am      7 SEL2        0.0000 
     49 N           3.7550   37.8040    8.3410 N.am      4 SEP2        0.0000 
     50 N           4.4520   34.7915    4.6140 N.am      1 SEC2        0.0000 
     51 N           4.4410   35.9560    5.2660 N.am      7 SEL2        0.0000 
     52 N           4.4630   33.6270    3.9620 N.am      4 SEP2        0.0000 
     53 CA          8.9410   41.9210    1.9875 C.3       3 GLC5        0.0000 
     54 CA          9.3710   40.0660    2.3030 C.3       9 GLL5        0.0000 
     55 CA          8.5110   43.7760    1.6720 C.3       6 GLP5        0.0000 
     56 CA         10.3980   38.4435    2.2780 C.3       3 GLC5        0.0000 
     57 CA          6.3413   34.8087    1.6248 C.3       3 GLC5        0.0000 
     58 CA          5.7990   32.9920    0.7920 C.3       6 GLP5        0.0000 
     59 CA         13.0110   37.2402    4.1281 C.3       3 GLC5        0.0000 
     60 CA         12.3450   35.9520    2.8110 C.3       6 GLP5        0.0000 
@<TRIPOS>BOND
@<TRIPOS>SUBSTRUCTURE
     1 SEC2       33 GROUP        1 X    SEC  0     ROOT SEC X 2
     2 LYC4       30 GROUP        1 X    LYC  0     **** LYC X 4
     3 GLC5        1 GROUP        1 X    GLC  0     **** GLC X 6
     4 SEP2       35 GROUP        1 Y    SEP  0     ROOT SEP Y 9
     5 LYP4       32 GROUP        1 Y    LYP  0     **** LYP Y 11
     6 GLP5        3 GROUP        1 Y    GLP  0     **** GLP Y 13
     7 SEL2       34 GROUP        1 Z    SEL  0     ROOT SEL Z 16
     8 LYL4       31 GROUP        1 Z    LYL  0     **** LYL Z 18
     9 GLL5        2 GROUP        1 Z    GLL  0     **** GLL Z 20
@<TRIPOS>SET

