#    Name: 1hb4_SCV_1_ligand
#    Modification time : Tue Mar 25 05:20:35 2014

@<TRIPOS>MOLECULE
1hb4_SCV_1_ligand
   45    44     1     0     0
SMALL
NO_CHARGES


@<TRIPOS>ATOM
      1 C1         16.8920   36.2700    5.7850 C.2       1 SCV1332     0.0000 
      2 C2         15.4490   36.3720    6.2130 C.3       1 SCV1332     0.0000 
      3 C3         14.9970   37.6570    5.4670 C.3       1 SCV1332     0.0000 
      4 C4         13.5390   37.9470    5.8980 C.3       1 SCV1332     0.0000 
      5 C7          9.2750   39.3140    4.9520 C.3       1 SCV1332     0.0000 
      6 C10         6.5210   36.7370    4.4730 C.3       1 SCV1332     0.0000 
      7 C12         6.3310   36.4770    2.9670 C.3       1 SCV1332     0.0000 
      8 C13         5.1240   37.3810    2.7370 C.3       1 SCV1332     0.0000 
      9 C5         13.0860   39.2550    5.2080 C.3       1 SCV1332     0.0000 
     10 N1         15.7200   36.5580    7.6620 N.4       1 SCV1332     0.0000 
     11 O1         18.1450   36.4140    6.4790 O.co2     1 SCV1332     0.0000 
     12 O2         17.3170   36.0010    4.4340 O.co2     1 SCV1332     0.0000 
     13 O5          7.3360   37.9400    4.6300 O.3       1 SCV1332     0.0000 
     14 C11         5.3470   36.7930    5.4500 C.2       1 SCV1332     0.0000 
     15 C14         7.4360   36.7740    1.9480 C.3       1 SCV1332     0.0000 
     16 O6          5.3670   37.6370    6.3760 O.co2     1 SCV1332     0.0000 
     17 O7          4.4410   35.9560    5.2660 O.co2     1 SCV1332     0.0000 
     18 C6         11.6440   39.5290    5.6230 C.2       1 SCV1332     0.0000 
     19 O3         11.3500   39.7810    6.8060 O.2       1 SCV1332     0.0000 
     20 N2         10.7140   39.1420    4.7500 N.am      1 SCV1332     0.0000 
     21 O4          9.3090   36.8850    4.9240 O.2       1 SCV1332     0.0000 
     22 C8          8.6590   37.9300    4.7350 C.2       1 SCV1332     0.0000 
     23 C9          8.5620   40.0530    3.8870 C.2       1 SCV1332     0.0000 
     24 O8          7.4590   40.4860    4.0970 O.2       1 SCV1332     0.0000 
     25 S           9.3710   40.0660    2.3030 S.3       1 SCV1332     0.0000 
     26 H          14.9537   35.5578    5.9700 H         1 SCV1332     0.0000 
     27 H          15.0293   37.4829    4.4132 H         1 SCV1332     0.0000 
     28 H          15.6235   38.4724    5.7576 H         1 SCV1332     0.0000 
     29 H          13.5023   38.0752    6.9626 H         1 SCV1332     0.0000 
     30 H          12.9076   37.1399    5.5800 H         1 SCV1332     0.0000 
     31 H           9.0039   39.6340    5.8956 H         1 SCV1332     0.0000 
     32 H           7.2000   35.8868    4.8447 H         1 SCV1332     0.0000 
     33 H           5.9506   35.4640    2.8563 H         1 SCV1332     0.0000 
     34 H          13.1416   39.1264    4.1424 H         1 SCV1332     0.0000 
     35 H          13.7193   40.0602    5.5332 H         1 SCV1332     0.0000 
     36 H          10.9793   38.6765    3.8389 H         1 SCV1332     0.0000 
     37 H           5.3689   38.3489    2.7928 H         1 SCV1332     0.0000 
     38 H           4.7158   37.2334    1.8361 H         1 SCV1332     0.0000 
     39 H           4.4057   37.2209    3.4141 H         1 SCV1332     0.0000 
     40 H          15.1741   35.9372    8.2246 H         1 SCV1332     0.0000 
     41 H          16.6799   36.3882    7.8851 H         1 SCV1332     0.0000 
     42 H          15.5093   37.4881    7.9629 H         1 SCV1332     0.0000 
     43 H           8.2654   36.2479    2.1357 H         1 SCV1332     0.0000 
     44 H           7.1515   36.5501    1.0158 H         1 SCV1332     0.0000 
     45 H           7.6946   37.7400    1.9515 H         1 SCV1332     0.0000 
@<TRIPOS>BOND
     1    2    1 1    
     2   11    1 ar   
     3   12    1 ar   
     4    3    2 1    
     5   10    2 1    
     6   26    2 1    
     7    4    3 1    
     8   27    3 1    
     9   28    3 1    
    10    9    4 1    
    11   29    4 1    
    12   30    4 1    
    13   20    5 1    
    14   22    5 1    
    15   23    5 1    
    16   31    5 1    
    17    7    6 1    
    18   13    6 1    
    19   14    6 1    
    20   32    6 1    
    21    8    7 1    
    22   15    7 1    
    23   33    7 1    
    24   37    8 1    
    25   38    8 1    
    26   39    8 1    
    27   18    9 1    
    28   34    9 1    
    29   35    9 1    
    30   40   10 1    
    31   41   10 1    
    32   42   10 1    
    33   22   13 1    
    34   16   14 ar   
    35   17   14 ar   
    36   43   15 1    
    37   44   15 1    
    38   45   15 1    
    39   19   18 2    
    40   20   18 am   
    41   36   20 1    
    42   22   21 2    
    43   24   23 2    
    44   25   23 1    
@<TRIPOS>SUBSTRUCTURE
     1 SCV1332     1 GROUP   
@<TRIPOS>SET

