#    Name: 1cqj_COA_1_INTS_M
#    Modification time : Mon Mar 24 20:52:55 2014

@<TRIPOS>MOLECULE
1cqj_COA_1_INTS_M
  109     0    12     0     0
SMALL
NO_CHARGES


@<TRIPOS>ATOM
      1 CA         29.5850   64.9740   51.2400 C.3       4 GLC5        0.0000 
      2 CA         30.2930   63.5140   49.7560 C.3      12 GLL5        0.0000 
      3 CA         28.8770   66.4340   52.7240 C.3       8 GLP5        0.0000 
      4 CA         28.9935   64.7050   48.5995 C.3       4 GLC5        0.0000 
      5 CA         27.6940   65.8960   47.4430 C.3       8 GLP5        0.0000 
      6 CA         29.2850   63.2705   48.4095 C.3       4 GLC5        0.0000 
      7 CA         28.2770   63.0270   47.0630 C.3       8 GLP5        0.0000 
      8 CA         30.5860   63.3225   51.6580 C.3       4 GLC5        0.0000 
      9 CA         30.8790   63.1310   53.5600 C.3       8 GLP5        0.0000 
     10 CA         28.8040   64.4210   51.8025 C.3       4 GLC5        0.0000 
     11 CA         28.7310   62.4080   50.8810 C.3      12 GLL5        0.0000 
     12 CA         29.8735   61.6445   48.2290 C.3       4 GLC5        0.0000 
     13 CA         30.7150   61.2820   50.1430 C.3      12 GLL5        0.0000 
     14 CA         29.0320   62.0070   46.3150 C.3       8 GLP5        0.0000 
     15 CA         32.5890   61.2590   50.8275 C.3       4 GLC5        0.0000 
     16 CA         34.4630   61.2360   51.5120 C.3       8 GLP5        0.0000 
     17 CA         27.7045   64.7310   52.3635 C.3       4 GLC5        0.0000 
     18 CA         26.5320   63.0280   52.0030 C.3      12 GLL5        0.0000 
     19 NZ         21.6520   65.9370   49.9360 N.4       3 LYC4        0.0000 
     20 NZ         22.4230   66.0360   50.8690 N.4      11 LYL4        0.0000 
     21 NZ         20.8810   65.8380   49.0030 N.4       7 LYP4        0.0000 
     22 N          23.1885   66.9565   50.4125 N.am      2 SEC2        0.0000 
     23 N          22.4230   66.0360   50.8690 N.am     10 SEL2        0.0000 
     24 N          23.9540   67.8770   49.9560 N.am      6 SEP2        0.0000 
     25 N          21.6520   65.9370   49.9360 N.am      2 SEC2        0.0000 
     26 N          20.8810   65.8380   49.0030 N.am      6 SEP2        0.0000 
     27 NZ         21.5975   64.6645   49.9555 N.4       3 LYC4        0.0000 
     28 NZ         22.3140   63.4910   50.9080 N.4      11 LYL4        0.0000 
     29 N          21.5975   64.6645   49.9555 N.am      2 SEC2        0.0000 
     30 N          22.3140   63.4910   50.9080 N.am     10 SEL2        0.0000 
     31 N          21.5475   62.6805   52.0165 N.am      2 SEC2        0.0000 
     32 N          20.7810   61.8700   53.1250 N.am      6 SEP2        0.0000 
     33 NZ         21.0040   64.6970   54.1265 N.4       3 LYC4        0.0000 
     34 NZ         21.5370   64.7520   52.9530 N.4      11 LYL4        0.0000 
     35 NZ         20.4710   64.6420   55.3000 N.4       7 LYP4        0.0000 
     36 N          21.0040   64.6970   54.1265 N.am      2 SEC2        0.0000 
     37 N          21.5370   64.7520   52.9530 N.am     10 SEL2        0.0000 
     38 N          20.4710   64.6420   55.3000 N.am      6 SEP2        0.0000 
     39 CA         27.2265   65.2035   53.3035 C.3       4 GLC5        0.0000 
     40 CA         25.5760   63.9730   53.8830 C.3      12 GLL5        0.0000 
     41 NZ         21.4605   64.7275   56.3740 N.4       3 LYC4        0.0000 
     42 NZ         22.4500   64.8130   57.4480 N.4      11 LYL4        0.0000 
     43 N          22.6155   66.3320   57.2140 N.am      2 SEC2        0.0000 
     44 N          22.4500   64.8130   57.4480 N.am     10 SEL2        0.0000 
     45 N          22.7810   67.8510   56.9800 N.am      6 SEP2        0.0000 
     46 N          21.6065   65.9455   58.1485 N.am      2 SEC2        0.0000 
     47 N          20.7630   67.0780   58.8490 N.am      6 SEP2        0.0000 
     48 N          21.4605   64.7275   56.3740 N.am      2 SEC2        0.0000 
     49 NZ         21.6350   63.5405   55.8930 N.4       3 LYC4        0.0000 
     50 NZ         22.7990   62.4390   56.4860 N.4      11 LYL4        0.0000 
     51 N          24.8300   67.3580   59.1125 N.am      2 SEC2        0.0000 
     52 N          25.0530   66.0160   58.9110 N.am     10 SEL2        0.0000 
     53 N          24.6070   68.7000   59.3140 N.am      6 SEP2        0.0000 
     54 CA         27.4025   62.3880   57.9575 C.3       4 GLC5        0.0000 
     55 CA         26.9860   63.6430   59.6260 C.3      12 GLL5        0.0000 
     56 CA         27.8190   61.1330   56.2890 C.3       8 GLP5        0.0000 
     57 CA         29.3475   66.7980   60.3395 C.3       4 GLC5        0.0000 
     58 CA         28.2860   65.1110   61.2130 C.3      12 GLL5        0.0000 
     59 CA         30.4090   68.4850   59.4660 C.3       8 GLP5        0.0000 
     60 CA         29.9935   64.7325   58.5025 C.3       4 GLC5        0.0000 
     61 CA         29.1340   63.3480   59.7110 C.3      12 GLL5        0.0000 
     62 CA         30.8530   66.1170   57.2940 C.3       8 GLP5        0.0000 
     63 CA         29.7035   63.0000   57.8005 C.3       4 GLC5        0.0000 
     64 CA         30.2730   62.6520   55.8900 C.3       8 GLP5        0.0000 
     65 CA         28.9965   61.5700   58.8635 C.3       4 GLC5        0.0000 
     66 CA         28.8590   59.7920   58.0160 C.3       8 GLP5        0.0000 
     67 CA         31.1090   63.0600   60.6150 C.3       4 GLC5        0.0000 
     68 CA         33.0840   62.7720   61.5190 C.3       8 GLP5        0.0000 
     69 O          26.3850   60.8300   61.6575 O.2       1 ALC1        0.0000 
     70 O          27.7430   61.4180   61.2330 O.2       9 ALL1        0.0000 
     71 O          25.0270   60.2420   62.0820 O.2       5 ALP1        0.0000 
     72 N          31.1730   61.7735   62.9815 N.am      2 SEC2        0.0000 
     73 N          29.7820   62.1200   62.5280 N.am     10 SEL2        0.0000 
     74 N          32.5640   61.4270   63.4350 N.am      6 SEP2        0.0000 
     75 CA         31.5100   66.1710   64.0550 C.3       4 GLC5        0.0000 
     76 CA         30.1920   64.8390   65.0880 C.3      12 GLL5        0.0000 
     77 CA         32.8280   67.5030   63.0220 C.3       8 GLP5        0.0000 
     78 O          33.3555   65.0105   64.8175 O.2       1 ALC1        0.0000 
     79 O          32.5810   65.3780   66.1030 O.2       9 ALL1        0.0000 
     80 O          34.1300   64.6430   63.5320 O.2       5 ALP1        0.0000 
     81 CA         34.9185   64.3275   66.2950 C.3       4 GLC5        0.0000 
     82 CA         33.5800   65.6740   67.0920 C.3      12 GLL5        0.0000 
     83 CA         36.2570   62.9810   65.4980 C.3       8 GLP5        0.0000 
     84 CA         33.1570   67.3135   65.2100 C.3       4 GLC5        0.0000 
     85 CA         33.4860   67.1240   67.3980 C.3      12 GLL5        0.0000 
     86 CA         34.7580   68.6610   66.9775 C.3       4 GLC5        0.0000 
     87 CA         36.0300   70.1980   66.5570 C.3       8 GLP5        0.0000 
     88 CA         35.9395   66.9270   67.5680 C.3       4 GLC5        0.0000 
     89 CA         34.4690   67.2850   68.9360 C.3      12 GLL5        0.0000 
     90 CA         37.4100   66.5690   66.2000 C.3       8 GLP5        0.0000 
     91 CA         36.1375   68.1235   68.3055 C.3       4 GLC5        0.0000 
     92 CA         37.8060   68.9620   67.6750 C.3       8 GLP5        0.0000 
     93 CA         28.6848   62.4222   48.9530 C.3       4 GLC5        0.0000 
     94 CA         30.3914   62.3404   52.0265 C.3       4 GLC5        0.0000 
     95 CA         23.0337   61.8217   52.9345 C.3       4 GLC5        0.0000 
     96 CA         25.0810   62.5330   52.0300 C.3      12 GLL5        0.0000 
     97 CA         21.3130   60.5960   53.3720 C.3       8 GLP5        0.0000 
     98 CA         26.6462   62.4552   55.4440 C.3       4 GLC5        0.0000 
     99 CA         24.4027   65.5979   54.5396 C.3       4 GLC5        0.0000 
    100 CA         25.3710   63.5820   55.3150 C.3      12 GLL5        0.0000 
    101 CA         23.6190   67.5210   54.7100 C.3       8 GLP5        0.0000 
    102 CA         27.0855   65.9935   61.2587 C.3       4 GLC5        0.0000 
    103 CA         28.0380   63.7030   60.6380 C.3      12 GLL5        0.0000 
    104 CA         26.0090   67.5800   61.5920 C.3       8 GLP5        0.0000 
    105 CA         30.9495   62.6598   65.4437 C.3       4 GLC5        0.0000 
    106 CA         32.0680   61.1720   65.7460 C.3       8 GLP5        0.0000 
    107 CA         35.4715   66.4840   66.7225 C.3       4 GLC5        0.0000 
    108 CA         32.9522   68.6762   67.5600 C.3       4 GLC5        0.0000 
    109 CA         31.9270   70.1480   66.9530 C.3       8 GLP5        0.0000 
@<TRIPOS>BOND
@<TRIPOS>SUBSTRUCTURE
     1 ALC1       69 GROUP        1 X    ALC  0     ROOT ALC X 1
     2 SEC2       22 GROUP        1 X    SEC  0     **** SEC X 2
     3 LYC4       19 GROUP        1 X    LYC  0     **** LYC X 4
     4 GLC5        1 GROUP        1 X    GLC  0     **** GLC X 6
     5 ALP1       71 GROUP        1 Y    ALP  0     ROOT ALP Y 8
     6 SEP2       24 GROUP        1 Y    SEP  0     **** SEP Y 9
     7 LYP4       21 GROUP        1 Y    LYP  0     **** LYP Y 11
     8 GLP5        3 GROUP        1 Y    GLP  0     **** GLP Y 13
     9 ALL1       70 GROUP        1 Z    ALL  0     ROOT ALL Z 15
    10 SEL2       23 GROUP        1 Z    SEL  0     **** SEL Z 16
    11 LYL4       20 GROUP        1 Z    LYL  0     **** LYL Z 18
    12 GLL5        2 GROUP        1 Z    GLL  0     **** GLL Z 20
@<TRIPOS>SET

