#    Name: 1cqj_COA_1_ligand
#    Modification time : Mon Mar 24 20:52:55 2014

@<TRIPOS>MOLECULE
1cqj_COA_1_ligand
   79    81     1     0     0
SMALL
NO_CHARGES


@<TRIPOS>ATOM
      1 N1A        31.1010   62.4700   49.6160 N.ar      1 COA901      0.0000 
      2 C2A        30.2930   63.5140   49.7560 C.ar      1 COA901      0.0000 
      3 N3A        29.1020   63.5970   50.3750 N.ar      1 COA901      0.0000 
      4 C4A        28.7310   62.4080   50.8810 C.ar      1 COA901      0.0000 
      5 C5A        29.4540   61.2270   50.8050 C.ar      1 COA901      0.0000 
      6 C6A        30.7150   61.2820   50.1430 C.ar      1 COA901      0.0000 
      7 N6A        31.5320   60.2270   50.0290 N.pl3     1 COA901      0.0000 
      8 N7A        28.7570   60.1810   51.4060 N.2       1 COA901      0.0000 
      9 C8A        27.6490   60.7510   51.8360 C.2       1 COA901      0.0000 
     10 N9A        27.5810   62.0990   51.5810 N.pl3     1 COA901      0.0000 
     11 C1B        26.5320   63.0280   52.0030 C.3       1 COA901      0.0000 
     12 C2B        25.0810   62.5330   52.0300 C.3       1 COA901      0.0000 
     13 O2B        24.4900   62.4820   50.7450 O.3       1 COA901      0.0000 
     14 C3B        24.4280   63.5620   52.9640 C.3       1 COA901      0.0000 
     15 O3B        23.9390   64.7390   52.3070 O.3       1 COA901      0.0000 
     16 P3B        22.4300   64.7650   51.7130 P.3       1 COA901      0.0000 
     17 O7A        22.4230   66.0360   50.8690 O.co2     1 COA901      0.0000 
     18 O8A        22.3140   63.4910   50.9080 O.co2     1 COA901      0.0000 
     19 O9A        21.5370   64.7520   52.9530 O.co2     1 COA901      0.0000 
     20 C4B        25.5760   63.9730   53.8830 C.3       1 COA901      0.0000 
     21 O4B        26.7750   63.3610   53.3420 O.3       1 COA901      0.0000 
     22 C5B        25.3710   63.5820   55.3150 C.3       1 COA901      0.0000 
     23 O5B        24.2450   64.2880   55.8120 O.3       1 COA901      0.0000 
     24 P1A        23.3730   63.7330   57.0160 P.3       1 COA901      0.0000 
     25 O1A        22.4500   64.8130   57.4480 O.co2     1 COA901      0.0000 
     26 O2A        22.7990   62.4390   56.4860 O.co2     1 COA901      0.0000 
     27 O3A        24.4510   63.5550   58.2150 O.3       1 COA901      0.0000 
     28 P2A        24.6170   64.6280   59.4370 P.3       1 COA901      0.0000 
     29 O4A        25.0530   66.0160   58.9110 O.co2     1 COA901      0.0000 
     30 O5A        23.2790   64.5920   60.1880 O.co2     1 COA901      0.0000 
     31 O6A        25.7440   63.9930   60.2610 O.3       1 COA901      0.0000 
     32 CBP        28.0380   63.7030   60.6380 C.3       1 COA901      0.0000 
     33 CCP        26.9860   63.6430   59.6260 C.3       1 COA901      0.0000 
     34 CDP        28.2860   65.1110   61.2130 C.3       1 COA901      0.0000 
     35 CEP        29.1340   63.3480   59.7110 C.3       1 COA901      0.0000 
     36 CAP        27.7060   62.7380   61.7450 C.3       1 COA901      0.0000 
     37 OAP        27.7430   61.4180   61.2330 O.3       1 COA901      0.0000 
     38 C9P        28.7570   62.7290   62.8230 C.2       1 COA901      0.0000 
     39 O9P        29.7820   62.1200   62.5280 O.2       1 COA901      0.0000 
     40 N8P        28.5620   63.3220   64.0190 N.am      1 COA901      0.0000 
     41 C7P        29.4700   63.4560   65.1950 C.3       1 COA901      0.0000 
     42 C6P        30.1920   64.8390   65.0880 C.3       1 COA901      0.0000 
     43 C5P        31.2330   65.2120   66.2440 C.2       1 COA901      0.0000 
     44 O5P        30.6620   65.3850   67.3350 O.2       1 COA901      0.0000 
     45 N4P        32.5810   65.3780   66.1030 N.am      1 COA901      0.0000 
     46 C3P        33.5800   65.6740   67.0920 C.3       1 COA901      0.0000 
     47 C2P        33.4860   67.1240   67.3980 C.3       1 COA901      0.0000 
     48 S1P        34.4690   67.2850   68.9360 S.3       1 COA901      0.0000 
     49 H          30.6476   64.4621   49.2960 H         1 COA901      0.0000 
     50 H          32.3992   60.3908   49.5587 H         1 COA901      0.0000 
     51 H          31.2017   59.3699   50.4244 H         1 COA901      0.0000 
     52 H          26.9068   60.2700   52.3089 H         1 COA901      0.0000 
     53 H          26.5550   63.9375   51.4080 H         1 COA901      0.0000 
     54 H          25.0830   61.5944   52.5534 H         1 COA901      0.0000 
     55 H          23.7032   63.0709   53.5612 H         1 COA901      0.0000 
     56 H          25.6724   65.0583   53.8147 H         1 COA901      0.0000 
     57 H          26.2797   63.8247   55.8741 H         1 COA901      0.0000 
     58 H          25.2219   62.4990   55.3606 H         1 COA901      0.0000 
     59 H          27.2143   64.3394   58.8138 H         1 COA901      0.0000 
     60 H          26.9343   62.6342   59.2060 H         1 COA901      0.0000 
     61 H          26.7662   62.9625   62.1720 H         1 COA901      0.0000 
     62 H          27.5908   63.7982   64.2045 H         1 COA901      0.0000 
     63 H          30.2220   62.6854   65.1913 H         1 COA901      0.0000 
     64 H          28.9127   63.4405   66.1162 H         1 COA901      0.0000 
     65 H          29.4292   65.6390   65.0576 H         1 COA901      0.0000 
     66 H          30.7343   64.8856   64.1254 H         1 COA901      0.0000 
     67 H          32.9869   65.2745   65.0900 H         1 COA901      0.0000 
     68 H          34.5798   65.4508   66.7200 H         1 COA901      0.0000 
     69 H          33.4103   65.1037   68.0052 H         1 COA901      0.0000 
     70 H          32.5524   67.4507   67.7163 H         1 COA901      0.0000 
     71 H          34.0100   67.7483   66.7536 H         1 COA901      0.0000 
     72 H          29.0095   65.1081   61.9033 H         1 COA901      0.0000 
     73 H          28.5611   65.7590   60.5028 H         1 COA901      0.0000 
     74 H          27.4667   65.4839   61.6486 H         1 COA901      0.0000 
     75 H          30.0323   63.4795   60.1303 H         1 COA901      0.0000 
     76 H          29.0820   62.3917   59.4233 H         1 COA901      0.0000 
     77 H          29.1135   63.9053   58.8809 H         1 COA901      0.0000 
     78 H          23.5049   62.4539   50.9143 H         1 COA901      0.0000 
     79 H          26.8651   61.0153   61.4921 H         1 COA901      0.0000 
@<TRIPOS>BOND
     1    2    1 ar   
     2    6    1 ar   
     3    3    2 ar   
     4   49    2 1    
     5    4    3 ar   
     6    5    4 ar   
     7   10    4 1    
     8    6    5 ar   
     9    8    5 1    
    10    7    6 1    
    11   50    7 1    
    12   51    7 1    
    13    9    8 2    
    14   10    9 1    
    15   52    9 1    
    16   11   10 1    
    17   12   11 1    
    18   21   11 1    
    19   53   11 1    
    20   13   12 1    
    21   14   12 1    
    22   54   12 1    
    23   78   13 1    
    24   15   14 1    
    25   20   14 1    
    26   55   14 1    
    27   16   15 1    
    28   17   16 ar   
    29   18   16 ar   
    30   19   16 ar   
    31   21   20 1    
    32   22   20 1    
    33   56   20 1    
    34   23   22 1    
    35   57   22 1    
    36   58   22 1    
    37   24   23 1    
    38   25   24 ar   
    39   26   24 ar   
    40   27   24 1    
    41   28   27 1    
    42   29   28 ar   
    43   30   28 ar   
    44   31   28 1    
    45   33   31 1    
    46   33   32 1    
    47   34   32 1    
    48   35   32 1    
    49   36   32 1    
    50   59   33 1    
    51   60   33 1    
    52   72   34 1    
    53   73   34 1    
    54   74   34 1    
    55   75   35 1    
    56   76   35 1    
    57   77   35 1    
    58   37   36 1    
    59   38   36 1    
    60   61   36 1    
    61   79   37 1    
    62   39   38 2    
    63   40   38 am   
    64   41   40 1    
    65   62   40 1    
    66   42   41 1    
    67   63   41 1    
    68   64   41 1    
    69   43   42 1    
    70   65   42 1    
    71   66   42 1    
    72   44   43 2    
    73   45   43 am   
    74   46   45 1    
    75   67   45 1    
    76   47   46 1    
    77   68   46 1    
    78   69   46 1    
    79   48   47 1    
    80   70   47 1    
    81   71   47 1    
@<TRIPOS>SUBSTRUCTURE
     1 COA901      1 GROUP   
@<TRIPOS>SET

