#    Name: 1njf_AGS_2_INTS_M
#    Modification time : Mon Mar 24 18:22:15 2014

@<TRIPOS>MOLECULE
1njf_AGS_2_INTS_M
   96     0    12     0     0
SMALL
NO_CHARGES


@<TRIPOS>ATOM
      1 CA          4.8785   18.8545   20.1800 C.3       4 GLC5        0.0000 
      2 CA          3.7490   19.7610   20.9420 C.3      12 GLL5        0.0000 
      3 CA          6.0080   17.9480   19.4180 C.3       8 GLP5        0.0000 
      4 CA          2.2175   18.7325   20.0950 C.3       4 GLC5        0.0000 
      5 CA          0.6860   17.7040   19.2480 C.3       8 GLP5        0.0000 
      6 CA          3.3725   18.1450   21.4605 C.3       4 GLC5        0.0000 
      7 CA          2.9960   16.5290   21.9790 C.3       8 GLP5        0.0000 
      8 N           5.7630   20.7305   19.3780 N.am      2 SEC2        0.0000 
      9 N           5.6460   21.5840   20.7770 N.am     10 SEL2        0.0000 
     10 N           5.8800   19.8770   17.9790 N.am      6 SEP2        0.0000 
     11 NZ          2.7125   23.5200   20.9410 N.4       3 LYC4        0.0000 
     12 NZ          3.2560   22.3910   21.1360 N.4      11 LYL4        0.0000 
     13 NZ          2.1690   24.6490   20.7460 N.4       7 LYP4        0.0000 
     14 NZ          1.4840   22.7970   19.5125 N.4       3 LYC4        0.0000 
     15 NZ          1.5260   22.0080   18.5900 N.4      11 LYL4        0.0000 
     16 N           1.4840   22.7970   19.5125 N.am      2 SEC2        0.0000 
     17 N           1.5260   22.0080   18.5900 N.am     10 SEL2        0.0000 
     18 N           1.4420   23.5860   20.4350 N.am      6 SEP2        0.0000 
     19 N           0.1240   22.0775   17.5740 N.am      2 SEC2        0.0000 
     20 N          -1.2780   22.1470   16.5580 N.am      6 SEP2        0.0000 
     21 N           0.5795   23.3100   18.2045 N.am      2 SEC2        0.0000 
     22 N          -0.3670   24.6120   17.8190 N.am      6 SEP2        0.0000 
     23 NZ          2.1955   18.9895   17.9895 N.4       3 LYC4        0.0000 
     24 NZ          2.2800   20.0340   17.1010 N.4      11 LYL4        0.0000 
     25 NZ          2.1110   17.9450   18.8780 N.4       7 LYP4        0.0000 
     26 N           2.6690   20.1655   15.4685 N.am      2 SEC2        0.0000 
     27 N           2.2800   20.0340   17.1010 N.am     10 SEL2        0.0000 
     28 N           3.0580   20.2970   13.8360 N.am      6 SEP2        0.0000 
     29 N           1.3735   20.1190   16.0825 N.am      2 SEC2        0.0000 
     30 N           0.4670   20.2040   15.0640 N.am      6 SEP2        0.0000 
     31 N           2.1955   18.9895   17.9895 N.am      2 SEC2        0.0000 
     32 N           2.1110   17.9450   18.8780 N.am      6 SEP2        0.0000 
     33 N           4.9055   20.6380   18.3645 N.am      2 SEC2        0.0000 
     34 N           3.9310   21.3990   18.7500 N.am     10 SEL2        0.0000 
     35 N           0.1305   23.8865   14.8520 N.am      2 SEC2        0.0000 
     36 N           1.5230   23.6740   15.0850 N.am     10 SEL2        0.0000 
     37 N          -1.2620   24.0990   14.6190 N.am      6 SEP2        0.0000 
     38 N           1.2985   24.4735   14.1240 N.am      2 SEC2        0.0000 
     39 N           1.0740   25.2730   13.1630 N.am      6 SEP2        0.0000 
     40 NZ          2.6450   24.8940   18.6200 N.4       3 LYC4        0.0000 
     41 NZ          2.1330   24.7460   17.2950 N.4      11 LYL4        0.0000 
     42 N           2.6450   24.8940   18.6200 N.am      2 SEC2        0.0000 
     43 N           2.1330   24.7460   17.2950 N.am     10 SEL2        0.0000 
     44 N           3.1570   25.0420   19.9450 N.am      6 SEP2        0.0000 
     45 N           3.0255   21.3460   15.2330 N.am      2 SEC2        0.0000 
     46 N           2.9930   22.3950   16.6300 N.am     10 SEL2        0.0000 
     47 CA          6.6150   28.1380   15.2705 C.3       4 GLC5        0.0000 
     48 CA          5.2690   26.3850   14.8920 C.3      12 GLL5        0.0000 
     49 CA          7.9610   29.8910   15.6490 C.3       8 GLP5        0.0000 
     50 CA          2.7290   28.3870   13.3790 C.3       4 GLC5        0.0000 
     51 CA          4.2640   26.9980   13.8900 C.3      12 GLL5        0.0000 
     52 CA          1.1940   29.7760   12.8680 C.3       8 GLP5        0.0000 
     53 O           4.6370   29.4255   13.9225 O.2       1 ALC1        0.0000 
     54 O           3.8560   28.3170   14.2340 O.2       9 ALL1        0.0000 
     55 O           5.4180   30.5340   13.6110 O.2       5 ALP1        0.0000 
     56 CA          3.7560   28.5540   11.6725 C.3       4 GLC5        0.0000 
     57 CA          4.9660   26.8670   12.5240 C.3      12 GLL5        0.0000 
     58 CA          2.5460   30.2410   10.8210 C.3       8 GLP5        0.0000 
     59 CA          3.4485   27.2525   11.2830 C.3       4 GLC5        0.0000 
     60 CA          1.9310   27.6380   10.0420 C.3       8 GLP5        0.0000 
     61 O           5.5385   29.2815   12.8530 O.2       1 ALC1        0.0000 
     62 O           5.6590   28.0290   12.0950 O.2       9 ALL1        0.0000 
     63 CA          7.3385   24.4665   11.7205 C.3       4 GLC5        0.0000 
     64 CA          5.8960   25.6990   12.6630 C.3      12 GLL5        0.0000 
     65 CA          8.7810   23.2340   10.7780 C.3       8 GLP5        0.0000 
     66 CA          2.4085   21.6845    8.7065 C.3       4 GLC5        0.0000 
     67 CA          4.0660   22.0640    9.6500 C.3      12 GLL5        0.0000 
     68 CA          0.7510   21.3050    7.7630 C.3       8 GLP5        0.0000 
     69 CA          5.0585   22.2990    7.7695 C.3       4 GLC5        0.0000 
     70 CA          6.0510   22.5340    5.8890 C.3       8 GLP5        0.0000 
     71 O           3.7690   19.9905    8.4170 O.2       1 ALC1        0.0000 
     72 O           3.6300   20.7840    9.5750 O.2       9 ALL1        0.0000 
     73 O           3.9080   19.1970    7.2590 O.2       5 ALP1        0.0000 
     74 O           3.5505   19.9315   10.7795 O.2       1 ALC1        0.0000 
     75 O           3.4710   19.0790   11.9840 O.2       5 ALP1        0.0000 
     76 N           3.7885   22.2465    7.2590 N.am      2 SEC2        0.0000 
     77 N           4.0690   22.8400    8.5080 N.am     10 SEL2        0.0000 
     78 N           3.5080   21.6530    6.0100 N.am      6 SEP2        0.0000 
     79 CA          3.0960   25.3125    8.8275 C.3       4 GLC5        0.0000 
     80 CA          4.5070   24.1430    8.5690 C.3      12 GLL5        0.0000 
     81 CA          1.6850   26.4820    9.0860 C.3       8 GLP5        0.0000 
     82 CA          2.9975   23.5840    7.3265 C.3       4 GLC5        0.0000 
     83 CA          1.4880   23.0250    6.0840 C.3       8 GLP5        0.0000 
     84 CA          5.2790   23.3385    7.2290 C.3       4 GLC5        0.0000 
     85 CA          6.1895   23.4675    9.1095 C.3       4 GLC5        0.0000 
     86 CA          7.8720   22.7920    9.6500 C.3       8 GLP5        0.0000 
     87 CA          3.3210   25.2610    9.9355 C.3       4 GLC5        0.0000 
     88 CA          4.9570   24.0400   10.7850 C.3      12 GLL5        0.0000 
     89 CA          6.2845   25.6190   16.6265 C.3       4 GLC5        0.0000 
     90 CA          7.6210   25.2760   17.8070 C.3       8 GLP5        0.0000 
     91 CA          7.2530   27.0980   12.2782 C.3       4 GLC5        0.0000 
     92 CA          9.0750   27.9130   11.9630 C.3       8 GLP5        0.0000 
     93 CA          3.1052   21.6685   11.7520 C.3       4 GLC5        0.0000 
     94 CA          4.5270   22.6820   10.8740 C.3      12 GLL5        0.0000 
     95 CA          1.9140   20.9640   13.2420 C.3       8 GLP5        0.0000 
     96 CA          6.2494   22.9993   10.0868 C.3       4 GLC5        0.0000 
@<TRIPOS>BOND
@<TRIPOS>SUBSTRUCTURE
     1 ALC1       53 GROUP        1 X    ALC  0     ROOT ALC X 1
     2 SEC2        8 GROUP        1 X    SEC  0     **** SEC X 2
     3 LYC4       11 GROUP        1 X    LYC  0     **** LYC X 4
     4 GLC5        1 GROUP        1 X    GLC  0     **** GLC X 6
     5 ALP1       55 GROUP        1 Y    ALP  0     ROOT ALP Y 8
     6 SEP2       10 GROUP        1 Y    SEP  0     **** SEP Y 9
     7 LYP4       13 GROUP        1 Y    LYP  0     **** LYP Y 11
     8 GLP5        3 GROUP        1 Y    GLP  0     **** GLP Y 13
     9 ALL1       54 GROUP        1 Z    ALL  0     ROOT ALL Z 15
    10 SEL2        9 GROUP        1 Z    SEL  0     **** SEL Z 16
    11 LYL4       12 GROUP        1 Z    LYL  0     **** LYL Z 18
    12 GLL5        2 GROUP        1 Z    GLL  0     **** GLL Z 20
@<TRIPOS>SET

