#    Name: 1njf_AGS_2_ligand
#    Modification time : Mon Mar 24 18:22:16 2014

@<TRIPOS>MOLECULE
1njf_AGS_2_ligand
   43    45     1     0     0
SMALL
NO_CHARGES


@<TRIPOS>ATOM
      1 PG          4.1950   21.3520   20.3870 P.3       1 AGS302      0.0000 
      2 S1G         3.7490   19.7610   20.9420 S.3       1 AGS302      0.0000 
      3 O2G         5.6460   21.5840   20.7770 O.co2     1 AGS302      0.0000 
      4 O3G         3.2560   22.3910   21.1360 O.co2     1 AGS302      0.0000 
      5 PB          2.5710   21.3840   17.7480 P.3       1 AGS302      0.0000 
      6 O1B         1.5260   22.0080   18.5900 O.co2     1 AGS302      0.0000 
      7 O2B         2.2800   20.0340   17.1010 O.co2     1 AGS302      0.0000 
      8 O3B         3.9310   21.3990   18.7500 O.3       1 AGS302      0.0000 
      9 PA          2.5590   23.8960   16.1310 P.3       1 AGS302      0.0000 
     10 O1A         1.5230   23.6740   15.0850 O.co2     1 AGS302      0.0000 
     11 O2A         2.1330   24.7460   17.2950 O.co2     1 AGS302      0.0000 
     12 O3A         2.9930   22.3950   16.6300 O.3       1 AGS302      0.0000 
     13 O5'         3.9690   24.3420   15.4670 O.3       1 AGS302      0.0000 
     14 C5'         4.6270   25.5390   16.0000 C.3       1 AGS302      0.0000 
     15 C4'         5.2690   26.3850   14.8920 C.3       1 AGS302      0.0000 
     16 O4'         6.0890   25.4650   14.0770 O.3       1 AGS302      0.0000 
     17 C3'         4.2640   26.9980   13.8900 C.3       1 AGS302      0.0000 
     18 O3'         3.8560   28.3170   14.2340 O.3       1 AGS302      0.0000 
     19 C2'         4.9660   26.8670   12.5240 C.3       1 AGS302      0.0000 
     20 O2'         5.6590   28.0290   12.0950 O.3       1 AGS302      0.0000 
     21 C1'         5.8960   25.6990   12.6630 C.3       1 AGS302      0.0000 
     22 N9          5.3450   24.4130   12.0490 N.pl3     1 AGS302      0.0000 
     23 C8          5.1400   23.2700   12.8080 C.2       1 AGS302      0.0000 
     24 N7          4.6620   22.2230   12.1570 N.2       1 AGS302      0.0000 
     25 C5          4.5270   22.6820   10.8740 C.ar      1 AGS302      0.0000 
     26 C6          4.0660   22.0640    9.6500 C.ar      1 AGS302      0.0000 
     27 N6          3.6300   20.7840    9.5750 N.pl3     1 AGS302      0.0000 
     28 N1          4.0690   22.8400    8.5080 N.ar      1 AGS302      0.0000 
     29 C2          4.5070   24.1430    8.5690 C.ar      1 AGS302      0.0000 
     30 N3          4.9580   24.8220    9.6540 N.ar      1 AGS302      0.0000 
     31 C4          4.9570   24.0400   10.7850 C.ar      1 AGS302      0.0000 
     32 H           5.4153   25.2632   16.7164 H         1 AGS302      0.0000 
     33 H           3.9055   26.1733   16.5365 H         1 AGS302      0.0000 
     34 H           5.8753   27.1405   15.2992 H         1 AGS302      0.0000 
     35 H           3.4165   26.2948   13.8610 H         1 AGS302      0.0000 
     36 H           4.1908   26.5676   11.8072 H         1 AGS302      0.0000 
     37 H           6.8372   25.9290   12.1995 H         1 AGS302      0.0000 
     38 H           5.3534   23.2701   13.7981 H         1 AGS302      0.0000 
     39 H           3.1714   20.4270   10.3887 H         1 AGS302      0.0000 
     40 H           3.8053   20.3093    8.7125 H         1 AGS302      0.0000 
     41 H           4.4865   24.6921    7.6251 H         1 AGS302      0.0000 
     42 H           4.2400   28.9013   13.5191 H         1 AGS302      0.0000 
     43 H           5.3936   28.7426   12.7434 H         1 AGS302      0.0000 
@<TRIPOS>BOND
     1    2    1 1    
     2    3    1 ar   
     3    4    1 ar   
     4    8    1 1    
     5    6    5 ar   
     6    7    5 ar   
     7    8    5 1    
     8   12    5 1    
     9   10    9 ar   
    10   11    9 ar   
    11   12    9 1    
    12   13    9 1    
    13   14   13 1    
    14   15   14 1    
    15   32   14 1    
    16   33   14 1    
    17   16   15 1    
    18   17   15 1    
    19   34   15 1    
    20   21   16 1    
    21   18   17 1    
    22   19   17 1    
    23   35   17 1    
    24   42   18 1    
    25   20   19 1    
    26   21   19 1    
    27   36   19 1    
    28   43   20 1    
    29   22   21 1    
    30   37   21 1    
    31   23   22 1    
    32   31   22 1    
    33   24   23 2    
    34   38   23 1    
    35   25   24 1    
    36   26   25 ar   
    37   31   25 ar   
    38   27   26 1    
    39   28   26 ar   
    40   39   27 1    
    41   40   27 1    
    42   29   28 ar   
    43   30   29 ar   
    44   41   29 1    
    45   31   30 ar   
@<TRIPOS>SUBSTRUCTURE
     1 AGS302      1 GROUP   
@<TRIPOS>SET

