#    Name: 3owa_FAD_4_INTS_M
#    Modification time : Tue Mar 25 05:26:13 2014

@<TRIPOS>MOLECULE
3owa_FAD_4_INTS_M
  120     0    12     0     0
SMALL
NO_CHARGES


@<TRIPOS>ATOM
      1 NZ        -24.8160  -52.6150   41.7125 N.4       3 LYC4        0.0000 
      2 NZ        -25.4530  -51.8670   42.7360 N.4      11 LYL4        0.0000 
      3 NZ        -22.9090  -53.4360   41.0870 N.4       7 LYP4        0.0000 
      4 N         -24.8160  -52.6150   41.7125 N.am      2 SEC2        0.0000 
      5 N         -25.4530  -51.8670   42.7360 N.am     10 SEL2        0.0000 
      6 N         -24.1790  -53.3630   40.6890 N.am      6 SEP2        0.0000 
      7 N         -24.0145  -52.4295   42.5205 N.am      2 SEC2        0.0000 
      8 N         -22.5760  -52.9920   42.3050 N.am      6 SEP2        0.0000 
      9 N         -24.9780  -52.7480   46.4285 N.am      2 SEC2        0.0000 
     10 N         -25.6500  -52.3180   45.2190 N.am     10 SEL2        0.0000 
     11 N         -24.3060  -53.1780   47.6380 N.am      6 SEP2        0.0000 
     12 N         -26.3220  -52.2470   46.4090 N.am      2 SEC2        0.0000 
     13 N         -26.9940  -52.1760   47.5990 N.am      6 SEP2        0.0000 
     14 CA        -27.2555  -48.4655   43.0305 C.3       4 GLC5        0.0000 
     15 CA        -28.0740  -50.4500   42.8850 C.3      12 GLL5        0.0000 
     16 CA        -26.4370  -46.4810   43.1760 C.3       8 GLP5        0.0000 
     17 CA        -31.5855  -50.4175   42.5865 C.3       4 GLC5        0.0000 
     18 CA        -29.5800  -50.2850   43.1230 C.3      12 GLL5        0.0000 
     19 CA        -33.5910  -50.5500   42.0500 C.3       8 GLP5        0.0000 
     20 CA        -30.3990  -48.7650   41.8095 C.3       4 GLC5        0.0000 
     21 CA        -31.2180  -47.2450   40.4960 C.3       8 GLP5        0.0000 
     22 N         -30.3915  -49.5890   47.7960 N.am      2 SEC2        0.0000 
     23 N         -30.7900  -49.8710   46.5090 N.am     10 SEL2        0.0000 
     24 N         -29.9930  -49.3070   49.0830 N.am      6 SEP2        0.0000 
     25 CA        -32.1895  -51.0350   43.3600 C.3       4 GLC5        0.0000 
     26 CA        -30.7880  -51.5200   44.6700 C.3      12 GLL5        0.0000 
     27 CA        -33.5820  -54.8780   48.4330 C.3       4 GLC5        0.0000 
     28 CA        -32.2250  -55.5740   46.9570 C.3      12 GLL5        0.0000 
     29 CA        -34.9390  -54.1820   49.9090 C.3       8 GLP5        0.0000 
     30 N         -34.8220  -55.9415   47.2450 N.am      2 SEC2        0.0000 
     31 N         -33.5730  -55.3010   46.8630 N.am     10 SEL2        0.0000 
     32 N         -36.0710  -56.5820   47.6270 N.am      6 SEP2        0.0000 
     33 CA        -34.5380  -55.0705   44.8370 C.3       4 GLC5        0.0000 
     34 CA        -34.0250  -54.1590   46.2430 C.3      12 GLL5        0.0000 
     35 CA        -35.0510  -55.9820   43.4310 C.3       8 GLP5        0.0000 
     36 CA        -35.7165  -53.0200   45.9230 C.3       4 GLC5        0.0000 
     37 CA        -37.4080  -51.8810   45.6030 C.3       8 GLP5        0.0000 
     38 CA        -34.4820  -54.1705   48.0760 C.3       4 GLC5        0.0000 
     39 N         -18.0885  -49.3485   49.8360 N.am      2 SEC2        0.0000 
     40 N         -17.6190  -48.2330   50.4380 N.am     10 SEL2        0.0000 
     41 N         -18.5580  -50.4640   49.2340 N.am      6 SEP2        0.0000 
     42 N         -15.6170  -50.8620   51.8265 N.am      2 SEC2        0.0000 
     43 N         -16.6750  -49.7640   51.7740 N.am     10 SEL2        0.0000 
     44 N         -14.5590  -51.9600   51.8790 N.am      6 SEP2        0.0000 
     45 N         -16.5765  -51.0020   50.7845 N.am      2 SEC2        0.0000 
     46 N         -16.4780  -52.2400   49.7950 N.am      6 SEP2        0.0000 
     47 N         -17.6165  -50.1140   50.5040 N.am      2 SEC2        0.0000 
     48 O         -14.5690  -47.9275   52.4855 O.2       1 ALC1        0.0000 
     49 O         -15.8160  -47.6430   51.9380 O.2       9 ALL1        0.0000 
     50 O         -13.3220  -48.2120   53.0330 O.2       5 ALP1        0.0000 
     51 N         -14.0800  -44.6820   51.2490 N.am      2 SEC2        0.0000 
     52 N         -15.0700  -45.4980   51.9590 N.am     10 SEL2        0.0000 
     53 N         -13.0900  -43.8660   50.5390 N.am      6 SEP2        0.0000 
     54 N         -15.1965  -43.8510   51.5835 N.am      2 SEC2        0.0000 
     55 N         -15.3230  -42.2040   51.2080 N.am      6 SEP2        0.0000 
     56 N         -16.1020  -43.4435   50.6235 N.am      2 SEC2        0.0000 
     57 N         -16.8810  -44.6830   50.0390 N.am     10 SEL2        0.0000 
     58 CA        -19.9065  -40.1110   45.7935 C.3       4 GLC5        0.0000 
     59 CA        -18.5950  -41.1810   47.1300 C.3      12 GLL5        0.0000 
     60 CA        -21.2180  -39.0410   44.4570 C.3       8 GLP5        0.0000 
     61 CA        -18.6635  -41.3630   44.9290 C.3       4 GLC5        0.0000 
     62 CA        -18.7320  -41.5450   42.7280 C.3       8 GLP5        0.0000 
     63 CA        -17.6125  -39.9320   45.8915 C.3       4 GLC5        0.0000 
     64 CA        -16.6300  -38.6830   44.6530 C.3       8 GLP5        0.0000 
     65 CA        -18.7020  -39.4745   48.1130 C.3       4 GLC5        0.0000 
     66 CA        -18.8090  -37.7680   49.0960 C.3       8 GLP5        0.0000 
     67 CA        -19.6000  -41.0870   49.0490 C.3       4 GLC5        0.0000 
     68 CA        -20.6050  -40.9930   50.9680 C.3       8 GLP5        0.0000 
     69 CA        -21.7175  -44.1500   44.7920 C.3       4 GLC5        0.0000 
     70 CA        -20.5120  -43.2390   45.9620 C.3      12 GLL5        0.0000 
     71 CA        -22.9230  -45.0610   43.6220 C.3       8 GLP5        0.0000 
     72 CA        -19.6220  -42.3920   44.3450 C.3       4 GLC5        0.0000 
     73 CA        -19.3275  -44.7815   45.0815 C.3       4 GLC5        0.0000 
     74 CA        -18.1430  -46.3240   44.2010 C.3       8 GLP5        0.0000 
     75 CA        -20.9830  -44.6125   49.1765 C.3       4 GLC5        0.0000 
     76 CA        -19.5330  -44.8970   47.5150 C.3      12 GLL5        0.0000 
     77 CA        -22.4330  -44.3280   50.8380 C.3       8 GLP5        0.0000 
     78 CA        -18.6305  -49.2305   48.3015 C.3       4 GLC5        0.0000 
     79 CA        -19.5760  -47.6300   48.4400 C.3      12 GLL5        0.0000 
     80 CA        -17.6850  -50.8310   48.1630 C.3       8 GLP5        0.0000 
     81 CA        -21.7490  -45.8420   49.7970 C.3       4 GLC5        0.0000 
     82 CA        -21.0650  -47.3560   48.7560 C.3      12 GLL5        0.0000 
     83 CA        -21.0480  -47.8835   45.8575 C.3       4 GLC5        0.0000 
     84 CA        -21.9390  -48.1290   47.7570 C.3      12 GLL5        0.0000 
     85 CA        -20.1570  -47.6380   43.9580 C.3       8 GLP5        0.0000 
     86 CA        -23.1250  -51.0140   47.0300 C.3       4 GLC5        0.0000 
     87 CA        -24.1900  -49.1730   47.2200 C.3      12 GLL5        0.0000 
     88 CA        -22.0600  -52.8550   46.8400 C.3       8 GLP5        0.0000 
     89 CA        -26.1955  -48.7015   47.5285 C.3       4 GLC5        0.0000 
     90 CA        -28.2010  -48.2300   47.8370 C.3       8 GLP5        0.0000 
     91 N         -23.6800  -47.1940   44.0700 N.am      2 SEC2        0.0000 
     92 N         -23.2390  -48.4520   44.5320 N.am     10 SEL2        0.0000 
     93 N         -24.1210  -45.9360   43.6080 N.am      6 SEP2        0.0000 
     94 NZ        -22.8500  -52.1260   42.5325 N.4       3 LYC4        0.0000 
     95 NZ        -22.7910  -50.8160   43.9780 N.4      11 LYL4        0.0000 
     96 CA        -29.3820  -51.2563   41.3895 C.3       4 GLC5        0.0000 
     97 CA        -29.9370  -52.1450   39.7750 C.3       8 GLP5        0.0000 
     98 CA        -29.0772  -49.0643   46.3607 C.3       4 GLC5        0.0000 
     99 CA        -29.8300  -49.3880   44.3410 C.3      12 GLL5        0.0000 
    100 CA        -31.0304  -54.1804   48.1189 C.3       4 GLC5        0.0000 
    101 CA        -31.3080  -54.6710   46.4160 C.3      12 GLL5        0.0000 
    102 CA        -30.2840  -54.0390   49.9970 C.3       8 GLP5        0.0000 
    103 CA        -17.0675  -44.7400   47.4282 C.3       4 GLC5        0.0000 
    104 CA        -17.7800  -44.3300   49.0460 C.3      12 GLL5        0.0000 
    105 CA        -16.3590  -45.8070   46.0490 C.3       8 GLP5        0.0000 
    106 CA        -17.7235  -44.4548   46.6780 C.3       4 GLC5        0.0000 
    107 CA        -18.6420  -42.6230   47.5700 C.3      12 GLL5        0.0000 
    108 CA        -20.6018  -41.2940   47.6670 C.3       4 GLC5        0.0000 
    109 CA        -22.5850  -40.6860   47.9840 C.3       8 GLP5        0.0000 
    110 CA        -16.4765  -42.1201   46.7754 C.3       4 GLC5        0.0000 
    111 CA        -14.5520  -42.2400   45.9510 C.3       8 GLP5        0.0000 
    112 CA        -21.4810  -42.5177   46.6870 C.3       4 GLC5        0.0000 
    113 CA        -19.5340  -43.5820   47.0440 C.3      12 GLL5        0.0000 
    114 CA        -22.9390  -41.6250   46.8710 C.3       8 GLP5        0.0000 
    115 CA        -17.7285  -45.4485   47.0332 C.3       4 GLC5        0.0000 
    116 CA        -19.7037  -47.3415   46.6805 C.3       4 GLC5        0.0000 
    117 CA        -19.0870  -47.1900   44.7630 C.3       8 GLP5        0.0000 
    118 CA        -24.4800  -46.9335   47.3387 C.3       4 GLC5        0.0000 
    119 CA        -23.2660  -48.6050   48.3150 C.3      12 GLL5        0.0000 
    120 CA        -25.2320  -44.9780   46.9100 C.3       8 GLP5        0.0000 
@<TRIPOS>BOND
@<TRIPOS>SUBSTRUCTURE
     1 ALC1       48 GROUP        1 X    ALC  0     ROOT ALC X 1
     2 SEC2        4 GROUP        1 X    SEC  0     **** SEC X 2
     3 LYC4        1 GROUP        1 X    LYC  0     **** LYC X 4
     4 GLC5       14 GROUP        1 X    GLC  0     **** GLC X 6
     5 ALP1       50 GROUP        1 Y    ALP  0     ROOT ALP Y 8
     6 SEP2        6 GROUP        1 Y    SEP  0     **** SEP Y 9
     7 LYP4        3 GROUP        1 Y    LYP  0     **** LYP Y 11
     8 GLP5       16 GROUP        1 Y    GLP  0     **** GLP Y 13
     9 ALL1       49 GROUP        1 Z    ALL  0     ROOT ALL Z 15
    10 SEL2        5 GROUP        1 Z    SEL  0     **** SEL Z 16
    11 LYL4        2 GROUP        1 Z    LYL  0     **** LYL Z 18
    12 GLL5       15 GROUP        1 Z    GLL  0     **** GLL Z 20
@<TRIPOS>SET

