#    Name: 3owa_FAD_4_ligand
#    Modification time : Tue Mar 25 05:26:13 2014

@<TRIPOS>MOLECULE
3owa_FAD_4_ligand
   84    89     1     0     0
SMALL
NO_CHARGES


@<TRIPOS>ATOM
      1 PA        -25.8970  -51.3880   44.0950 P.3       1 FAD601      0.0000 
      2 O1A       -25.4530  -51.8670   42.7360 O.co2     1 FAD601      0.0000 
      3 O2A       -25.6500  -52.3180   45.2190 O.co2     1 FAD601      0.0000 
      4 O5B       -27.4600  -51.0280   44.0190 O.3       1 FAD601      0.0000 
      5 C5B       -28.0740  -50.4500   42.8850 C.3       1 FAD601      0.0000 
      6 C4B       -29.5800  -50.2850   43.1230 C.3       1 FAD601      0.0000 
      7 O4B       -30.1420  -51.5550   43.4190 O.3       1 FAD601      0.0000 
      8 C3B       -29.8300  -49.3880   44.3410 C.3       1 FAD601      0.0000 
      9 O3B       -31.0100  -48.6580   44.1490 O.3       1 FAD601      0.0000 
     10 C2B       -30.0770  -50.4090   45.4280 C.3       1 FAD601      0.0000 
     11 O2B       -30.7900  -49.8710   46.5090 O.3       1 FAD601      0.0000 
     12 C1B       -30.7880  -51.5200   44.6700 C.3       1 FAD601      0.0000 
     13 N9A       -30.7130  -52.8200   45.3640 N.pl3     1 FAD601      0.0000 
     14 C8A       -29.5820  -53.5290   45.7030 C.2       1 FAD601      0.0000 
     15 N7A       -29.9610  -54.6590   46.3370 N.2       1 FAD601      0.0000 
     16 C5A       -31.3080  -54.6710   46.4160 C.ar      1 FAD601      0.0000 
     17 C6A       -32.2250  -55.5740   46.9570 C.ar      1 FAD601      0.0000 
     18 N6A       -31.8210  -56.7590   47.4350 N.pl3     1 FAD601      0.0000 
     19 N1A       -33.5730  -55.3010   46.8630 N.ar      1 FAD601      0.0000 
     20 C2A       -34.0250  -54.1590   46.2430 C.ar      1 FAD601      0.0000 
     21 N3A       -33.1230  -53.2800   45.6970 N.ar      1 FAD601      0.0000 
     22 C4A       -31.7870  -53.5210   45.7950 C.ar      1 FAD601      0.0000 
     23 N1        -17.6190  -48.2330   50.4380 N.2       1 FAD601      0.0000 
     24 C2        -16.6920  -48.5910   51.4000 C.2       1 FAD601      0.0000 
     25 O2        -16.6750  -49.7640   51.7740 O.2       1 FAD601      0.0000 
     26 N3        -15.8160  -47.6430   51.9380 N.am      1 FAD601      0.0000 
     27 C4        -15.8570  -46.3290   51.4890 C.2       1 FAD601      0.0000 
     28 O4        -15.0700  -45.4980   51.9590 O.2       1 FAD601      0.0000 
     29 C4X       -16.8160  -45.9760   50.5130 C.2       1 FAD601      0.0000 
     30 N5        -16.8810  -44.6830   50.0390 N.2       1 FAD601      0.0000 
     31 C5X       -17.7800  -44.3300   49.0460 C.ar      1 FAD601      0.0000 
     32 C6        -17.7720  -43.0160   48.5690 C.ar      1 FAD601      0.0000 
     33 C7        -18.6420  -42.6230   47.5700 C.ar      1 FAD601      0.0000 
     34 C7M       -18.5950  -41.1810   47.1300 C.3       1 FAD601      0.0000 
     35 C8        -19.5340  -43.5820   47.0440 C.ar      1 FAD601      0.0000 
     36 C8M       -20.5120  -43.2390   45.9620 C.3       1 FAD601      0.0000 
     37 C9        -19.5330  -44.8970   47.5150 C.ar      1 FAD601      0.0000 
     38 C9A       -18.6630  -45.2830   48.5200 C.ar      1 FAD601      0.0000 
     39 N10       -18.6480  -46.5880   49.0130 N.pl3     1 FAD601      0.0000 
     40 C10       -17.6980  -46.9380   49.9750 C.2       1 FAD601      0.0000 
     41 C1'       -19.5760  -47.6300   48.4400 C.3       1 FAD601      0.0000 
     42 C2'       -21.0650  -47.3560   48.7560 C.3       1 FAD601      0.0000 
     43 O2'       -21.4290  -47.6230   50.0980 O.3       1 FAD601      0.0000 
     44 C3'       -21.9390  -48.1290   47.7570 C.3       1 FAD601      0.0000 
     45 O3'       -22.1670  -47.3020   46.6420 O.3       1 FAD601      0.0000 
     46 C4'       -23.2660  -48.6050   48.3150 C.3       1 FAD601      0.0000 
     47 O4'       -23.0150  -49.5820   49.3210 O.3       1 FAD601      0.0000 
     48 C5'       -24.1900  -49.1730   47.2200 C.3       1 FAD601      0.0000 
     49 O5'       -23.5420  -50.0780   46.3460 O.3       1 FAD601      0.0000 
     50 P         -23.6150  -49.8730   44.7850 P.3       1 FAD601      0.0000 
     51 O1P       -23.2390  -48.4520   44.5320 O.co2     1 FAD601      0.0000 
     52 O2P       -22.7910  -50.8160   43.9780 O.co2     1 FAD601      0.0000 
     53 O3P       -25.1780  -49.9790   44.3580 O.3       1 FAD601      0.0000 
     54 H         -27.9508  -51.0700   41.9852 H         1 FAD601      0.0000 
     55 H         -27.6678  -49.4542   42.6555 H         1 FAD601      0.0000 
     56 H         -30.0240  -49.8377   42.2705 H         1 FAD601      0.0000 
     57 H         -28.9822  -48.8466   44.5517 H         1 FAD601      0.0000 
     58 H         -29.0984  -50.7987   45.7064 H         1 FAD601      0.0000 
     59 H         -31.8199  -51.2129   44.5518 H         1 FAD601      0.0000 
     60 H         -28.6822  -53.2526   45.5133 H         1 FAD601      0.0000 
     61 H         -30.8343  -56.9214   47.4320 H         1 FAD601      0.0000 
     62 H         -32.5424  -57.3747   47.7519 H         1 FAD601      0.0000 
     63 H         -35.0367  -53.9656   46.1894 H         1 FAD601      0.0000 
     64 H         -15.1453  -47.9217   52.6633 H         1 FAD601      0.0000 
     65 H         -17.1058  -42.3367   48.9723 H         1 FAD601      0.0000 
     66 H         -20.1882  -45.5820   47.1069 H         1 FAD601      0.0000 
     67 H         -19.3157  -48.6198   48.8396 H         1 FAD601      0.0000 
     68 H         -19.4579  -47.6731   47.3485 H         1 FAD601      0.0000 
     69 H         -21.2277  -46.2769   48.5181 H         1 FAD601      0.0000 
     70 H         -21.3651  -49.0147   47.4468 H         1 FAD601      0.0000 
     71 H         -23.7715  -47.7382   48.7520 H         1 FAD601      0.0000 
     72 H         -24.6138  -48.3017   46.6728 H         1 FAD601      0.0000 
     73 H         -25.0522  -49.6465   47.7402 H         1 FAD601      0.0000 
     74 H         -17.6939  -40.9298   46.7765 H         1 FAD601      0.0000 
     75 H         -19.2574  -40.9921   46.4050 H         1 FAD601      0.0000 
     76 H         -18.7990  -40.5560   47.8835 H         1 FAD601      0.0000 
     77 H         -20.0523  -42.9174   45.1342 H         1 FAD601      0.0000 
     78 H         -21.0685  -44.0277   45.7007 H         1 FAD601      0.0000 
     79 H         -21.1425  -42.5168   46.2465 H         1 FAD601      0.0000 
     80 H         -31.6078  -48.9295   44.9033 H         1 FAD601      0.0000 
     81 H         -31.2186  -50.6576   46.9534 H         1 FAD601      0.0000 
     82 H         -22.0848  -48.3760   50.0432 H         1 FAD601      0.0000 
     83 H         -22.5433  -47.9092   45.9422 H         1 FAD601      0.0000 
     84 H         -23.7475  -49.4581   49.9904 H         1 FAD601      0.0000 
@<TRIPOS>BOND
     1    2    1 ar   
     2    3    1 ar   
     3    4    1 1    
     4   53    1 1    
     5    5    4 1    
     6    6    5 1    
     7   54    5 1    
     8   55    5 1    
     9    7    6 1    
    10    8    6 1    
    11   56    6 1    
    12   12    7 1    
    13    9    8 1    
    14   10    8 1    
    15   57    8 1    
    16   80    9 1    
    17   11   10 1    
    18   12   10 1    
    19   58   10 1    
    20   81   11 1    
    21   13   12 1    
    22   59   12 1    
    23   14   13 1    
    24   22   13 1    
    25   15   14 2    
    26   60   14 1    
    27   16   15 1    
    28   17   16 ar   
    29   22   16 ar   
    30   18   17 1    
    31   19   17 ar   
    32   61   18 1    
    33   62   18 1    
    34   20   19 ar   
    35   21   20 ar   
    36   63   20 1    
    37   22   21 ar   
    38   24   23 1    
    39   40   23 2    
    40   25   24 2    
    41   26   24 am   
    42   27   26 am   
    43   64   26 1    
    44   28   27 2    
    45   29   27 1    
    46   30   29 2    
    47   40   29 1    
    48   31   30 1    
    49   32   31 ar   
    50   38   31 ar   
    51   33   32 ar   
    52   65   32 1    
    53   34   33 1    
    54   35   33 ar   
    55   74   34 1    
    56   75   34 1    
    57   76   34 1    
    58   36   35 1    
    59   37   35 ar   
    60   77   36 1    
    61   78   36 1    
    62   79   36 1    
    63   38   37 ar   
    64   66   37 1    
    65   39   38 1    
    66   40   39 1    
    67   41   39 1    
    68   42   41 1    
    69   67   41 1    
    70   68   41 1    
    71   43   42 1    
    72   44   42 1    
    73   69   42 1    
    74   82   43 1    
    75   45   44 1    
    76   46   44 1    
    77   70   44 1    
    78   83   45 1    
    79   47   46 1    
    80   48   46 1    
    81   71   46 1    
    82   84   47 1    
    83   49   48 1    
    84   72   48 1    
    85   73   48 1    
    86   50   49 1    
    87   51   50 ar   
    88   52   50 ar   
    89   53   50 1    
@<TRIPOS>SUBSTRUCTURE
     1 FAD601      1 GROUP   
@<TRIPOS>SET

