#    Name: 2yex_YEX_1_INTS_M
#    Modification time : Tue Mar 25 08:46:09 2014

@<TRIPOS>MOLECULE
2yex_YEX_1_INTS_M
   46     0     9     0     0
SMALL
NO_CHARGES


@<TRIPOS>ATOM
      1 CA          2.3185   41.1320   12.0725 C.3       3 GLC5        0.0000 
      2 CA          2.4230   38.9140   12.1120 C.3       9 GLL5        0.0000 
      3 CA          2.2140   43.3500   12.0330 C.3       6 GLP5        0.0000 
      4 CA          3.5600   37.1620   12.7575 C.3       3 GLC5        0.0000 
      5 CA          4.6970   35.4100   13.4030 C.3       6 GLP5        0.0000 
      6 CA          0.5210   37.7010    9.2625 C.3       3 GLC5        0.0000 
      7 CA          1.4080   36.7870   10.7240 C.3       9 GLL5        0.0000 
      8 CA         -0.3660   38.6150    7.8010 C.3       6 GLP5        0.0000 
      9 CA         -2.2605   33.2215   11.3285 C.3       3 GLC5        0.0000 
     10 CA         -2.2280   35.1240   12.3000 C.3       9 GLL5        0.0000 
     11 CA         -2.2930   31.3190   10.3570 C.3       6 GLP5        0.0000 
     12 CA          4.0610   39.5690    8.0690 C.3       3 GLC5        0.0000 
     13 CA          4.9480   38.6150    9.4710 C.3       9 GLL5        0.0000 
     14 CA          3.1740   40.5230    6.6670 C.3       6 GLP5        0.0000 
     15 CA          3.9375   40.4650    8.9815 C.3       3 GLC5        0.0000 
     16 CA          4.2910   39.1030   10.5760 C.3       9 GLL5        0.0000 
     17 CA          3.5840   41.8270    7.3870 C.3       6 GLP5        0.0000 
     18 CA          3.5465   41.8210   11.6480 C.3       3 GLC5        0.0000 
     19 CA          4.8790   40.2920   11.2630 C.3       9 GLL5        0.0000 
     20 CA          4.9915   41.1220    9.3860 C.3       3 GLC5        0.0000 
     21 CA          5.1040   41.9520    7.5090 C.3       6 GLP5        0.0000 
     22 O          -0.5075   34.1140   11.2975 O.2       1 ALC1        0.0000 
     23 O          -1.0360   35.4500   11.7240 O.2       7 ALL1        0.0000 
     24 O           0.0210   32.7780   10.8710 O.2       4 ALP1        0.0000 
     25 O           3.8260   34.7485    6.6550 O.2       1 ALC1        0.0000 
     26 O           4.0120   35.8380    7.4850 O.2       7 ALL1        0.0000 
     27 O           3.6400   33.6590    5.8250 O.2       4 ALP1        0.0000 
     28 N           1.5940   33.8220    8.2290 N.am      2 SEC2        0.0000 
     29 N           1.9880   35.1330    8.3900 N.am      8 SEL2        0.0000 
     30 N           1.2000   32.5110    8.0680 N.am      5 SEP2        0.0000 
     31 CA          2.4740   37.9432   14.1823 C.3       3 GLC5        0.0000 
     32 CA          1.2570   38.3050   12.5270 C.3       9 GLL5        0.0000 
     33 CA          3.1080   37.2770   16.0450 C.3       6 GLP5        0.0000 
     34 CA         -1.5775   37.8568   11.1523 C.3       3 GLC5        0.0000 
     35 CA         -0.5160   36.5900   12.2800 C.3       9 GLL5        0.0000 
     36 CA         -2.1890   38.9240    9.5430 C.3       6 GLP5        0.0000 
     37 CA          3.5300   36.0125   10.7362 C.3       3 GLC5        0.0000 
     38 CA          5.0680   34.9330   10.9660 C.3       6 GLP5        0.0000 
     39 CA          0.6050   39.1239   10.8679 C.3       3 GLC5        0.0000 
     40 CA          0.7320   37.2260   11.8460 C.3       9 GLL5        0.0000 
     41 CA         -0.0760   40.3300    9.6530 C.3       6 GLP5        0.0000 
     42 CA          1.3830   39.1333   10.1453 C.3       3 GLC5        0.0000 
     43 CA          3.1080   38.4760   10.9860 C.3       9 GLL5        0.0000 
     44 CA         -0.7126   34.9881   13.5633 C.3       3 GLC5        0.0000 
     45 CA         -0.1220   33.7680   14.6000 C.3       6 GLP5        0.0000 
     46 CA          4.6959   36.8176   10.5460 C.3       3 GLC5        0.0000 
@<TRIPOS>BOND
@<TRIPOS>SUBSTRUCTURE
     1 ALC1       22 GROUP        1 X    ALC  0     ROOT ALC X 1
     2 SEC2       28 GROUP        1 X    SEC  0     **** SEC X 2
     3 GLC5        1 GROUP        1 X    GLC  0     **** GLC X 6
     4 ALP1       24 GROUP        1 Y    ALP  0     ROOT ALP Y 8
     5 SEP2       30 GROUP        1 Y    SEP  0     **** SEP Y 9
     6 GLP5        3 GROUP        1 Y    GLP  0     **** GLP Y 13
     7 ALL1       23 GROUP        1 Z    ALL  0     ROOT ALL Z 15
     8 SEL2       29 GROUP        1 Z    SEL  0     **** SEL Z 16
     9 GLL5        2 GROUP        1 Z    GLL  0     **** GLL Z 20
@<TRIPOS>SET

