#    Name: 2yex_YEX_1_ligand
#    Modification time : Tue Mar 25 08:46:09 2014

@<TRIPOS>MOLECULE
2yex_YEX_1_ligand
   32    35     1     0     0
SMALL
NO_CHARGES


@<TRIPOS>ATOM
      1 C1         -2.4900   36.0680   13.2500 C.2       1 YEX1278     0.0000 
      2 C7          1.2570   38.3050   12.5270 C.ar      1 YEX1278     0.0000 
      3 C8          2.4230   38.9140   12.1120 C.ar      1 YEX1278     0.0000 
      4 C2         -1.4160   36.9890   13.2430 C.2       1 YEX1278     0.0000 
      5 C19         1.4080   36.7870   10.7240 C.ar      1 YEX1278     0.0000 
      6 C5         -2.2280   35.1240   12.3000 C.2       1 YEX1278     0.0000 
      7 C6          0.7320   37.2260   11.8460 C.ar      1 YEX1278     0.0000 
      8 C9          3.1080   38.4760   10.9860 C.ar      1 YEX1278     0.0000 
      9 C18         2.5760   37.3970   10.2890 C.ar      1 YEX1278     0.0000 
     10 C3         -0.5160   36.5900   12.2800 C.2       1 YEX1278     0.0000 
     11 C11         4.9480   38.6150    9.4710 C.2       1 YEX1278     0.0000 
     12 C10         4.2910   39.1030   10.5760 C.2       1 YEX1278     0.0000 
     13 C12         4.3940   37.5220    8.8330 C.2       1 YEX1278     0.0000 
     14 C15         2.9610   35.8730    8.3440 C.2       1 YEX1278     0.0000 
     15 C20         4.8790   40.2920   11.2630 C.3       1 YEX1278     0.0000 
     16 N13         4.9330   36.9000    7.7660 N.2       1 YEX1278     0.0000 
     17 N4         -1.0360   35.4500   11.7240 N.pl3     1 YEX1278     0.0000 
     18 N14         4.0120   35.8380    7.4850 N.am      1 YEX1278     0.0000 
     19 N17         3.2370   36.9520    9.2060 N.am      1 YEX1278     0.0000 
     20 O16         1.9880   35.1330    8.3900 O.2       1 YEX1278     0.0000 
     21 H          -3.2402   36.1224   13.8211 H         1 YEX1278     0.0000 
     22 H           0.7641   38.6659   13.3693 H         1 YEX1278     0.0000 
     23 H           2.8010   39.7194   12.6515 H         1 YEX1278     0.0000 
     24 H          -1.3480   37.7423   13.8107 H         1 YEX1278     0.0000 
     25 H           1.0325   35.9754   10.1876 H         1 YEX1278     0.0000 
     26 H          -2.7763   34.3767   12.0807 H         1 YEX1278     0.0000 
     27 H           5.8062   39.0389    9.1349 H         1 YEX1278     0.0000 
     28 H          -0.6065   34.9417   11.0102 H         1 YEX1278     0.0000 
     29 H           4.1567   35.2052    6.7727 H         1 YEX1278     0.0000 
     30 H           5.1019   40.0965   12.2180 H         1 YEX1278     0.0000 
     31 H           5.7230   40.5964   10.8214 H         1 YEX1278     0.0000 
     32 H           4.2507   41.0699   11.2620 H         1 YEX1278     0.0000 
@<TRIPOS>BOND
     1    4    1 1    
     2    6    1 2    
     3   21    1 1    
     4    3    2 ar   
     5    7    2 ar   
     6   22    2 1    
     7    8    3 ar   
     8   23    3 1    
     9   10    4 2    
    10   24    4 1    
    11    7    5 ar   
    12    9    5 ar   
    13   25    5 1    
    14   17    6 1    
    15   26    6 1    
    16   10    7 1    
    17    9    8 ar   
    18   12    8 1    
    19   19    9 1    
    20   17   10 1    
    21   12   11 2    
    22   13   11 1    
    23   27   11 1    
    24   15   12 1    
    25   16   13 2    
    26   19   13 1    
    27   18   14 am   
    28   19   14 am   
    29   20   14 2    
    30   30   15 1    
    31   31   15 1    
    32   32   15 1    
    33   18   16 1    
    34   28   17 1    
    35   29   18 1    
@<TRIPOS>SUBSTRUCTURE
     1 YEX1278     1 GROUP   
@<TRIPOS>SET

