#    Name: 4n48_SAM_1_INTS_M
#    Modification time : Tue Mar 25 12:42:50 2014

@<TRIPOS>MOLECULE
4n48_SAM_1_INTS_M
   82     0    12     0     0
SMALL
NO_CHARGES


@<TRIPOS>ATOM
      1 OD1        47.6390   -5.5960  -19.3370 O.co2     3 ASC3        0.0000 
      2 OD1        48.8430   -4.9550  -19.8620 O.co2    11 ASL3        0.0000 
      3 OD1        46.4350   -6.2370  -18.8120 O.co2     7 ASP3        0.0000 
      4 O          47.6390   -5.5960  -19.3370 O.2       1 ALC1        0.0000 
      5 O          48.8430   -4.9550  -19.8620 O.2       9 ALL1        0.0000 
      6 O          46.4350   -6.2370  -18.8120 O.2       5 ALP1        0.0000 
      7 CA         50.5695   -3.8655  -18.5945 C.3       4 GLC5        0.0000 
      8 CA         50.0490   -5.5720  -19.3230 C.3      12 GLL5        0.0000 
      9 CA         51.0900   -2.1590  -17.8660 C.3       8 GLP5        0.0000 
     10 CA         48.0545   -4.7320  -18.9340 C.3       4 GLC5        0.0000 
     11 CA         46.0600   -3.8920  -18.5450 C.3       8 GLP5        0.0000 
     12 N          52.1295   -8.3295  -20.1730 N.am      2 SEC2        0.0000 
     13 N          51.8870   -6.8370  -20.2110 N.am     10 SEL2        0.0000 
     14 N          52.3720   -9.8220  -20.1350 N.am      6 SEP2        0.0000 
     15 N          53.2240   -6.0345  -20.2665 N.am      2 SEC2        0.0000 
     16 N          54.5610   -5.2320  -20.3220 N.am      6 SEP2        0.0000 
     17 N          52.4470   -6.4990  -21.3960 N.am      2 SEC2        0.0000 
     18 N          53.0070   -6.1610  -22.5810 N.am      6 SEP2        0.0000 
     19 N          50.3950   -5.8185  -22.7300 N.am      2 SEC2        0.0000 
     20 N          50.1870   -6.3780  -21.4950 N.am     10 SEL2        0.0000 
     21 N          50.6030   -5.2590  -23.9650 N.am      6 SEP2        0.0000 
     22 CA         50.0185   -4.0625  -17.4605 C.3       4 GLC5        0.0000 
     23 CA         48.9470   -5.9660  -17.0550 C.3      12 GLL5        0.0000 
     24 CA         47.5035   -4.9290  -17.8000 C.3       4 GLC5        0.0000 
     25 CA         47.3610   -5.3395  -12.7050 C.3       4 GLC5        0.0000 
     26 CA         48.9170   -5.2730  -14.1780 C.3      12 GLL5        0.0000 
     27 CA         45.8050   -5.4060  -11.2320 C.3       8 GLP5        0.0000 
     28 CA         49.6495   -2.1515  -14.5095 C.3       4 GLC5        0.0000 
     29 CA         49.8740   -4.1810  -13.8200 C.3      12 GLL5        0.0000 
     30 CA         49.4250   -0.1220  -15.1990 C.3       8 GLP5        0.0000 
     31 N          47.7190   -3.7790  -12.5990 N.am      2 SEC2        0.0000 
     32 N          49.2480   -3.1870  -13.0230 N.am     10 SEL2        0.0000 
     33 N          46.1900   -4.3710  -12.1750 N.am      6 SEP2        0.0000 
     34 CA         52.9575   -5.4280  -12.4955 C.3       4 GLC5        0.0000 
     35 CA         50.9600   -4.7250  -13.0520 C.3      12 GLL5        0.0000 
     36 CA         54.9550   -6.1310  -11.9390 C.3       8 GLP5        0.0000 
     37 O          52.5240   -5.2960  -15.0755 O.2       1 ALC1        0.0000 
     38 O          52.1440   -4.6520  -13.7860 O.2       9 ALL1        0.0000 
     39 O          52.9040   -5.9400  -16.3650 O.2       5 ALP1        0.0000 
     40 O          53.3555   -3.0310  -12.1270 O.2       1 ALC1        0.0000 
     41 O          52.3370   -3.6650  -11.5120 O.2       9 ALL1        0.0000 
     42 O          54.3740   -2.3970  -12.7420 O.2       5 ALP1        0.0000 
     43 CA         49.8785   -1.4030  -13.7400 C.3       4 GLC5        0.0000 
     44 CA         50.3320   -2.6840  -12.2810 C.3      12 GLL5        0.0000 
     45 CA         50.8915   -0.6295   -9.0070 C.3       4 GLC5        0.0000 
     46 CA         49.4700   -0.1580   -9.9340 C.3      12 GLL5        0.0000 
     47 CA         52.3130   -1.1010   -8.0800 C.3       8 GLP5        0.0000 
     48 CA         51.2390    0.5720   -9.2990 C.3       4 GLC5        0.0000 
     49 CA         49.5610    1.2150   -9.5800 C.3      12 GLL5        0.0000 
     50 CA         52.9170   -0.0710   -9.0180 C.3       8 GLP5        0.0000 
     51 CA         50.9175    2.9020   -9.1450 C.3       4 GLC5        0.0000 
     52 CA         52.2740    4.5890   -8.7100 C.3       8 GLP5        0.0000 
     53 CA         48.4955    2.6310  -10.3190 C.3       4 GLC5        0.0000 
     54 CA         47.4300    4.0470  -11.0580 C.3       8 GLP5        0.0000 
     55 O          49.5405    2.8730   -7.7080 O.2       1 ALC1        0.0000 
     56 O          48.9480    1.7150   -8.3470 O.2       9 ALL1        0.0000 
     57 O          50.1330    4.0310   -7.0690 O.2       5 ALP1        0.0000 
     58 N          50.2050    3.5235  -10.1455 N.am      2 SEC2        0.0000 
     59 N          50.2210    2.0470  -10.3930 N.am     10 SEL2        0.0000 
     60 N          50.1890    5.0000   -9.8980 N.am      6 SEP2        0.0000 
     61 CA         49.2260    1.4490  -12.5370 C.3       4 GLC5        0.0000 
     62 CA         50.8020    1.5990  -11.5410 C.3      12 GLL5        0.0000 
     63 CA         47.6500    1.2990  -13.5330 C.3       8 GLP5        0.0000 
     64 CA         52.2275    1.4235  -12.9030 C.3       4 GLC5        0.0000 
     65 CA         53.6530    1.2480  -14.2650 C.3       8 GLP5        0.0000 
     66 CA         51.8595    0.7640  -10.2795 C.3       4 GLC5        0.0000 
     67 CA         51.5380    3.0940  -10.1255 C.3       4 GLC5        0.0000 
     68 CA         49.6235    3.2990  -11.6045 C.3       4 GLC5        0.0000 
     69 CA         48.4450    4.9990  -11.6680 C.3       8 GLP5        0.0000 
     70 N          52.4160    0.3285  -11.9710 N.am      2 SEC2        0.0000 
     71 N          50.7390    0.2990  -11.9090 N.am     10 SEL2        0.0000 
     72 N          54.0930    0.3580  -12.0330 N.am      6 SEP2        0.0000 
     73 CA         51.5015   -0.3300  -10.0740 C.3       4 GLC5        0.0000 
     74 CA         50.0860   -0.5890  -11.1300 C.3      12 GLL5        0.0000 
     75 CA         49.3685   -7.6280  -19.9200 C.3       4 GLC5        0.0000 
     76 CA         49.7190   -6.5100  -18.2130 C.3      12 GLL5        0.0000 
     77 CA         48.8530   -9.2150  -21.0720 C.3       8 GLP5        0.0000 
     78 CA         47.6278   -3.6885  -13.9115 C.3       4 GLC5        0.0000 
     79 CA         45.8600   -2.6500  -13.8240 C.3       8 GLP5        0.0000 
     80 CA         47.6098    0.7977   -9.9895 C.3       4 GLC5        0.0000 
     81 CA         45.7040    1.0670  -10.2220 C.3       8 GLP5        0.0000 
     82 CA         48.7254    0.6344  -11.9883 C.3       4 GLC5        0.0000 
@<TRIPOS>BOND
@<TRIPOS>SUBSTRUCTURE
     1 ALC1        4 GROUP        1 X    ALC  0     ROOT ALC X 1
     2 SEC2       12 GROUP        1 X    SEC  0     **** SEC X 2
     3 ASC3        1 GROUP        1 X    ASC  0     **** ASC X 3
     4 GLC5        7 GROUP        1 X    GLC  0     **** GLC X 6
     5 ALP1        6 GROUP        1 Y    ALP  0     ROOT ALP Y 8
     6 SEP2       14 GROUP        1 Y    SEP  0     **** SEP Y 9
     7 ASP3        3 GROUP        1 Y    ASP  0     **** ASP Y 10
     8 GLP5        9 GROUP        1 Y    GLP  0     **** GLP Y 13
     9 ALL1        5 GROUP        1 Z    ALL  0     ROOT ALL Z 15
    10 SEL2       13 GROUP        1 Z    SEL  0     **** SEL Z 16
    11 ASL3        2 GROUP        1 Z    ASL  0     **** ASL Z 17
    12 GLL5        8 GROUP        1 Z    GLL  0     **** GLL Z 20
@<TRIPOS>SET

