#    Name: 4n48_SAM_1_ligand
#    Modification time : Tue Mar 25 12:42:50 2014

@<TRIPOS>MOLECULE
4n48_SAM_1_ligand
   50    52     1     0     0
SMALL
NO_CHARGES


@<TRIPOS>ATOM
      1 N          48.8430   -4.9550  -19.8620 N.4       1 SAM601      0.0000 
      2 CA         50.0490   -5.5720  -19.3230 C.3       1 SAM601      0.0000 
      3 C          50.7330   -6.3010  -20.4050 C.2       1 SAM601      0.0000 
      4 O          51.8870   -6.8370  -20.2110 O.co2     1 SAM601      0.0000 
      5 OXT        50.1870   -6.3780  -21.4950 O.co2     1 SAM601      0.0000 
      6 CB         49.7190   -6.5100  -18.2130 C.3       1 SAM601      0.0000 
      7 CG         48.9470   -5.9660  -17.0550 C.3       1 SAM601      0.0000 
      8 SD         49.6410   -6.3020  -15.4070 S.3       1 SAM601      0.0000 
      9 CE         49.3720   -7.9450  -15.0060 C.3       1 SAM601      0.0000 
     10 C5'        48.9170   -5.2730  -14.1780 C.3       1 SAM601      0.0000 
     11 C4'        49.8740   -4.1810  -13.8200 C.3       1 SAM601      0.0000 
     12 O4'        49.2480   -3.1870  -13.0230 O.3       1 SAM601      0.0000 
     13 C3'        50.9600   -4.7250  -13.0520 C.3       1 SAM601      0.0000 
     14 O3'        52.1440   -4.6520  -13.7860 O.3       1 SAM601      0.0000 
     15 C2'        51.0210   -3.8760  -11.8510 C.3       1 SAM601      0.0000 
     16 O2'        52.3370   -3.6650  -11.5120 O.3       1 SAM601      0.0000 
     17 C1'        50.3320   -2.6840  -12.2810 C.3       1 SAM601      0.0000 
     18 N9         49.8700   -1.9080  -11.2310 N.pl3     1 SAM601      0.0000 
     19 C8         49.1420   -2.3140  -10.1550 C.2       1 SAM601      0.0000 
     20 N7         48.9070   -1.2500   -9.3740 N.2       1 SAM601      0.0000 
     21 C5         49.4700   -0.1580   -9.9340 C.ar      1 SAM601      0.0000 
     22 C6         49.5610    1.2150   -9.5800 C.ar      1 SAM601      0.0000 
     23 N6         48.9480    1.7150   -8.3470 N.pl3     1 SAM601      0.0000 
     24 N1         50.2210    2.0470  -10.3930 N.ar      1 SAM601      0.0000 
     25 C2         50.8020    1.5990  -11.5410 C.ar      1 SAM601      0.0000 
     26 N3         50.7390    0.2990  -11.9090 N.ar      1 SAM601      0.0000 
     27 C4         50.0860   -0.5890  -11.1300 C.ar      1 SAM601      0.0000 
     28 H          50.7141   -4.8023  -18.9453 H         1 SAM601      0.0000 
     29 H          50.6746   -6.9633  -17.8261 H         1 SAM601      0.0000 
     30 H          49.1578   -7.3894  -18.6372 H         1 SAM601      0.0000 
     31 H          47.9416   -6.3811  -16.9563 H         1 SAM601      0.0000 
     32 H          48.8735   -4.8763  -17.0419 H         1 SAM601      0.0000 
     33 H          48.7189   -5.9495  -13.3777 H         1 SAM601      0.0000 
     34 H          48.0237   -4.9248  -14.6452 H         1 SAM601      0.0000 
     35 H          50.2603   -3.7467  -14.7338 H         1 SAM601      0.0000 
     36 H          50.7182   -5.7267  -12.7522 H         1 SAM601      0.0000 
     37 H          50.4483   -4.3633  -11.0830 H         1 SAM601      0.0000 
     38 H          50.9856   -2.1287  -12.9465 H         1 SAM601      0.0000 
     39 H          48.8495   -3.2199   -9.9922 H         1 SAM601      0.0000 
     40 H          48.1173    1.2459   -8.0470 H         1 SAM601      0.0000 
     41 H          49.4104    2.4845   -7.9063 H         1 SAM601      0.0000 
     42 H          51.3113    2.2846  -12.1535 H         1 SAM601      0.0000 
     43 H          48.7315   -5.1472  -20.8370 H         1 SAM601      0.0000 
     44 H          48.0191   -5.2858  -19.4019 H         1 SAM601      0.0000 
     45 H          48.8568   -3.9604  -19.7590 H         1 SAM601      0.0000 
     46 H          49.8007   -8.5631  -15.6649 H         1 SAM601      0.0000 
     47 H          49.7429   -8.1731  -14.1058 H         1 SAM601      0.0000 
     48 H          48.3973   -8.1677  -14.9864 H         1 SAM601      0.0000 
     49 H          51.9770   -5.2054  -14.6020 H         1 SAM601      0.0000 
     50 H          52.7291   -3.1744  -12.2902 H         1 SAM601      0.0000 
@<TRIPOS>BOND
     1    2    1 1    
     2   43    1 1    
     3   44    1 1    
     4   45    1 1    
     5    3    2 1    
     6    6    2 1    
     7   28    2 1    
     8    4    3 ar   
     9    5    3 ar   
    10    7    6 1    
    11   29    6 1    
    12   30    6 1    
    13    8    7 1    
    14   31    7 1    
    15   32    7 1    
    16    9    8 1    
    17   10    8 1    
    18   46    9 1    
    19   47    9 1    
    20   48    9 1    
    21   11   10 1    
    22   33   10 1    
    23   34   10 1    
    24   12   11 1    
    25   13   11 1    
    26   35   11 1    
    27   17   12 1    
    28   14   13 1    
    29   15   13 1    
    30   36   13 1    
    31   49   14 1    
    32   16   15 1    
    33   17   15 1    
    34   37   15 1    
    35   50   16 1    
    36   18   17 1    
    37   38   17 1    
    38   19   18 1    
    39   27   18 1    
    40   20   19 2    
    41   39   19 1    
    42   21   20 1    
    43   22   21 ar   
    44   27   21 ar   
    45   23   22 1    
    46   24   22 ar   
    47   40   23 1    
    48   41   23 1    
    49   25   24 ar   
    50   26   25 ar   
    51   42   25 1    
    52   27   26 ar   
@<TRIPOS>SUBSTRUCTURE
     1 SAM601      1 GROUP   
@<TRIPOS>SET

