#    Name: 4m6q_20T_1_INTS_M
#    Modification time : Tue Mar 25 11:54:41 2014

@<TRIPOS>MOLECULE
4m6q_20T_1_INTS_M
   71     0     9     0     0
SMALL
NO_CHARGES


@<TRIPOS>ATOM
      1 CA         17.4000    6.1125   -5.8140 C.3       3 GLC5        0.0000 
      2 CA         16.4900    4.4970   -4.7080 C.3       9 GLL5        0.0000 
      3 CA         18.3100    7.7280   -6.9200 C.3       6 GLP5        0.0000 
      4 CA         14.7275    7.8940   -3.1570 C.3       3 GLC5        0.0000 
      5 CA         15.2610    7.7420   -1.1370 C.3       9 GLL5        0.0000 
      6 CA         14.1940    8.0460   -5.1770 C.3       6 GLP5        0.0000 
      7 CA         15.9570    5.7195    2.7025 C.3       3 GLC5        0.0000 
      8 CA         15.8820    7.0730    1.4700 C.3       9 GLL5        0.0000 
      9 CA         16.0320    4.3660    3.9350 C.3       6 GLP5        0.0000 
     10 CA         15.2075    4.9430    1.8715 C.3       3 GLC5        0.0000 
     11 CA         15.1810    6.1890    0.6730 C.3       9 GLL5        0.0000 
     12 CA         15.2340    3.6970    3.0700 C.3       6 GLP5        0.0000 
     13 CA         18.2425   10.5250    2.6495 C.3       3 GLC5        0.0000 
     14 CA         17.0520    9.2710    1.7890 C.3       9 GLL5        0.0000 
     15 CA         19.4330   11.7790    3.5100 C.3       6 GLP5        0.0000 
     16 O          17.5980    9.0025    4.1300 O.2       1 ALC1        0.0000 
     17 O          16.5510    9.4720    3.1410 O.2       7 ALL1        0.0000 
     18 O          18.6450    8.5330    5.1190 O.2       4 ALP1        0.0000 
     19 CA         12.3305   11.7575    3.5180 C.3       3 GLC5        0.0000 
     20 CA         13.8240   11.3050    4.8070 C.3       9 GLL5        0.0000 
     21 CA         10.8370   12.2100    2.2290 C.3       6 GLP5        0.0000 
     22 CA         11.9435    8.2335    9.7000 C.3       3 GLC5        0.0000 
     23 CA         10.9890    9.6090   11.1230 C.3       9 GLL5        0.0000 
     24 CA         12.8980    6.8580    8.2770 C.3       6 GLP5        0.0000 
     25 CA         10.9355    7.5385   11.2900 C.3       3 GLC5        0.0000 
     26 CA         10.8820    5.4680   11.4570 C.3       6 GLP5        0.0000 
     27 N           8.7090    6.5235   12.6465 N.am      2 SEC2        0.0000 
     28 N           7.7540    7.6330   11.7500 N.am      8 SEL2        0.0000 
     29 N           9.6640    5.4140   13.5430 N.am      5 SEP2        0.0000 
     30 N           9.6260    6.7235   13.5020 N.am      2 SEC2        0.0000 
     31 N           9.5880    8.0330   13.4610 N.am      8 SEL2        0.0000 
     32 O           8.6540   10.0425    7.8575 O.2       1 ALC1        0.0000 
     33 O           8.9900   10.7790    8.7860 O.2       7 ALL1        0.0000 
     34 O           8.3180    9.3060    6.9290 O.2       4 ALP1        0.0000 
     35 O           9.0805   13.1740    7.4445 O.2       1 ALC1        0.0000 
     36 O          10.2630   13.0350    8.4100 O.2       7 ALL1        0.0000 
     37 O           7.8980   13.3130    6.4790 O.2       4 ALP1        0.0000 
     38 CA         17.7340    1.3110    0.7215 C.3       3 GLC5        0.0000 
     39 CA         18.0120    2.3040   -0.7510 C.3       9 GLL5        0.0000 
     40 CA         17.4560    0.3180    2.1940 C.3       6 GLP5        0.0000 
     41 CA         18.4770    5.1880   -4.0295 C.3       3 GLC5        0.0000 
     42 CA         17.4720    3.7630   -4.0680 C.3       9 GLL5        0.0000 
     43 CA         19.9730    6.2460   -3.6710 C.3       6 GLP5        0.0000 
     44 CA         14.9199    6.3986   -4.3309 C.3       3 GLC5        0.0000 
     45 CA         15.3360    4.7550   -2.6220 C.3       9 GLL5        0.0000 
     46 CA         16.9891    6.2919   -2.9324 C.3       3 GLC5        0.0000 
     47 CA         15.4210    4.9980   -3.9870 C.3       9 GLL5        0.0000 
     48 CA         18.3520    7.8900   -2.7200 C.3       6 GLP5        0.0000 
     49 CA         16.7065    7.5120   -1.8003 C.3       3 GLC5        0.0000 
     50 CA         14.9800    9.8280   -1.3455 C.3       3 GLC5        0.0000 
     51 CA         14.3490   11.4720   -1.9520 C.3       6 GLP5        0.0000 
     52 CA         17.2318    8.1750   -1.2045 C.3       3 GLC5        0.0000 
     53 CA         15.9610    8.6260   -0.3410 C.3       9 GLL5        0.0000 
     54 CA         13.2275    6.7408    0.3231 C.3       3 GLC5        0.0000 
     55 CA         11.3340    6.8200    0.7500 C.3       6 GLP5        0.0000 
     56 CA         16.7894   10.6367    0.7025 C.3       3 GLC5        0.0000 
     57 CA         16.9970   12.4080    0.3550 C.3       6 GLP5        0.0000 
     58 CA         13.6312    8.7235    7.6677 C.3       3 GLC5        0.0000 
     59 CA         14.9150   10.1470    7.0260 C.3       9 GLL5        0.0000 
     60 CA         11.3213    9.6547    7.4277 C.3       3 GLC5        0.0000 
     61 CA         10.4060   10.6740    8.9080 C.3       9 GLL5        0.0000 
     62 CA         11.9130    8.0410    6.3040 C.3       6 GLP5        0.0000 
     63 CA         19.3764    4.7767   -2.8849 C.3       3 GLC5        0.0000 
     64 CA         19.6250    3.4950   -1.8420 C.3       9 GLL5        0.0000 
     65 CA         17.8089    0.6385   -1.9000 C.3       3 GLC5        0.0000 
     66 CA         18.4720    2.7190   -2.0050 C.3       9 GLL5        0.0000 
     67 CA         17.2890   -0.9530   -2.2340 C.3       6 GLP5        0.0000 
     68 CA         20.4348    1.7999   -1.0016 C.3       3 GLC5        0.0000 
     69 CA         22.2960    1.0350   -0.5720 C.3       6 GLP5        0.0000 
     70 CA         19.7416    3.8478   -0.3841 C.3       3 GLC5        0.0000 
     71 CA         20.9530    4.9900    0.5690 C.3       6 GLP5        0.0000 
@<TRIPOS>BOND
@<TRIPOS>SUBSTRUCTURE
     1 ALC1       16 GROUP        1 X    ALC  0     ROOT ALC X 1
     2 SEC2       27 GROUP        1 X    SEC  0     **** SEC X 2
     3 GLC5        1 GROUP        1 X    GLC  0     **** GLC X 6
     4 ALP1       18 GROUP        1 Y    ALP  0     ROOT ALP Y 8
     5 SEP2       29 GROUP        1 Y    SEP  0     **** SEP Y 9
     6 GLP5        3 GROUP        1 Y    GLP  0     **** GLP Y 13
     7 ALL1       17 GROUP        1 Z    ALL  0     ROOT ALL Z 15
     8 SEL2       28 GROUP        1 Z    SEL  0     **** SEL Z 16
     9 GLL5        2 GROUP        1 Z    GLL  0     **** GLL Z 20
@<TRIPOS>SET

