#    Name: 4m6q_20T_1_ligand
#    Modification time : Tue Mar 25 11:54:41 2014

@<TRIPOS>MOLECULE
4m6q_20T_1_ligand
   67    71     1     0     0
SMALL
NO_CHARGES


@<TRIPOS>ATOM
      1 C1         16.4900    4.4970   -4.7080 C.ar      1 20T601      0.0000 
      2 C2         17.4720    3.7630   -4.0680 C.ar      1 20T601      0.0000 
      3 C3         17.3970    3.5210   -2.7060 C.ar      1 20T601      0.0000 
      4 C4         16.3270    4.0240   -1.9830 C.ar      1 20T601      0.0000 
      5 C5         15.3360    4.7550   -2.6220 C.ar      1 20T601      0.0000 
      6 C6         15.4210    4.9980   -3.9870 C.ar      1 20T601      0.0000 
      7 S7         13.9970    5.3940   -1.6600 S.o2      1 20T601      0.0000 
      8 O8         13.1540    6.1500   -2.5220 O.2       1 20T601      0.0000 
      9 O9         13.5410    4.3080   -0.8690 O.2       1 20T601      0.0000 
     10 C10        14.8610    6.5260   -0.6240 C.ar      1 20T601      0.0000 
     11 C11        15.2610    7.7420   -1.1370 C.ar      1 20T601      0.0000 
     12 C12        15.9610    8.6260   -0.3410 C.ar      1 20T601      0.0000 
     13 C13        16.2620    8.2940    0.9630 C.ar      1 20T601      0.0000 
     14 C14        15.8820    7.0730    1.4700 C.ar      1 20T601      0.0000 
     15 C15        15.1810    6.1890    0.6730 C.ar      1 20T601      0.0000 
     16 C16        17.0520    9.2710    1.7890 C.3       1 20T601      0.0000 
     17 N17        16.5510    9.4720    3.1410 N.am      1 20T601      0.0000 
     18 C18        15.4390   10.2020    3.3050 C.2       1 20T601      0.0000 
     19 O19        14.8690   10.6680    2.3370 O.2       1 20T601      0.0000 
     20 C20        14.9120   10.4460    4.6560 C.ar      1 20T601      0.0000 
     21 C21        15.4800    9.8460    5.7810 C.ar      1 20T601      0.0000 
     22 C22        14.9150   10.1470    7.0260 C.ar      1 20T601      0.0000 
     23 C23        15.1960    9.7480    8.4010 C.2       1 20T601      0.0000 
     24 N24        14.3370   10.3470    9.1660 N.2       1 20T601      0.0000 
     25 N25        13.4690   11.1380    8.4080 N.pl3     1 20T601      0.0000 
     26 C26        13.8140   11.0310    7.0910 C.ar      1 20T601      0.0000 
     27 N27        13.3230   11.5670    5.9800 N.ar      1 20T601      0.0000 
     28 C28        13.8240   11.3050    4.8070 C.ar      1 20T601      0.0000 
     29 C29        12.3900   11.9800    8.9500 C.3       1 20T601      0.0000 
     30 C31        11.0530   11.8630    8.1950 C.3       1 20T601      0.0000 
     31 C33        10.4060   10.6740    8.9080 C.3       1 20T601      0.0000 
     32 C35        10.8290   10.9280   10.3680 C.3       1 20T601      0.0000 
     33 O37        12.1040   11.6100   10.3180 O.3       1 20T601      0.0000 
     34 C38        10.9890    9.6090   11.1230 C.3       1 20T601      0.0000 
     35 O39         9.7840    8.8640   10.9900 O.3       1 20T601      0.0000 
     36 P40         8.7700    8.6060   12.2020 P.3       1 20T601      0.0000 
     37 O41         7.7540    7.6330   11.7500 O.co2     1 20T601      0.0000 
     38 O42         9.5880    8.0330   13.4610 O.co2     1 20T601      0.0000 
     39 O43         8.0290    9.9810   12.5930 O.co2     1 20T601      0.0000 
     40 O44         8.9900   10.7790    8.7860 O.3       1 20T601      0.0000 
     41 O45        10.2630   13.0350    8.4100 O.3       1 20T601      0.0000 
     42 C46        18.4720    2.7190   -2.0050 C.3       1 20T601      0.0000 
     43 F47        18.8190    1.5930   -2.7570 F         1 20T601      0.0000 
     44 F48        19.6250    3.4950   -1.8420 F         1 20T601      0.0000 
     45 F49        18.0120    2.3040   -0.7510 F         1 20T601      0.0000 
     46 H          16.5545    4.6708   -5.7218 H         1 20T601      0.0000 
     47 H          18.2705    3.3907   -4.6105 H         1 20T601      0.0000 
     48 H          16.2667    3.8550   -0.9680 H         1 20T601      0.0000 
     49 H          14.6910    5.5483   -4.4571 H         1 20T601      0.0000 
     50 H          15.0381    7.9905   -2.1121 H         1 20T601      0.0000 
     51 H          16.2596    9.5378   -0.7234 H         1 20T601      0.0000 
     52 H          16.1179    6.8165    2.4396 H         1 20T601      0.0000 
     53 H          14.8959    5.2706    1.0530 H         1 20T601      0.0000 
     54 H          17.0829   10.2444    1.2429 H         1 20T601      0.0000 
     55 H          18.1126    8.9232    1.8209 H         1 20T601      0.0000 
     56 H          17.0690    9.0479    3.9044 H         1 20T601      0.0000 
     57 H          16.2660    9.2204    5.7022 H         1 20T601      0.0000 
     58 H          15.9071    9.1477    8.6032 H         1 20T601      0.0000 
     59 H          13.4278   11.7307    3.9291 H         1 20T601      0.0000 
     60 H          12.6794   13.0295    8.9237 H         1 20T601      0.0000 
     61 H          11.2362   11.6169    7.2103 H         1 20T601      0.0000 
     62 H          10.8275    9.7987    8.5738 H         1 20T601      0.0000 
     63 H          10.0888   11.5250   10.8378 H         1 20T601      0.0000 
     64 H          11.2113    9.8461   12.1651 H         1 20T601      0.0000 
     65 H          11.8453    9.0827   10.6970 H         1 20T601      0.0000 
     66 H           8.8003   10.6084    7.8191 H         1 20T601      0.0000 
     67 H           9.6737   13.1011    7.6048 H         1 20T601      0.0000 
@<TRIPOS>BOND
     1    2    1 ar   
     2    6    1 ar   
     3   46    1 1    
     4    3    2 ar   
     5   47    2 1    
     6    4    3 ar   
     7   42    3 1    
     8    5    4 ar   
     9   48    4 1    
    10    6    5 ar   
    11    7    5 1    
    12   49    6 1    
    13    8    7 2    
    14    9    7 2    
    15   10    7 1    
    16   11   10 ar   
    17   15   10 ar   
    18   12   11 ar   
    19   50   11 1    
    20   13   12 ar   
    21   51   12 1    
    22   14   13 ar   
    23   16   13 1    
    24   15   14 ar   
    25   52   14 1    
    26   53   15 1    
    27   17   16 1    
    28   54   16 1    
    29   55   16 1    
    30   18   17 am   
    31   56   17 1    
    32   19   18 2    
    33   20   18 1    
    34   21   20 ar   
    35   28   20 ar   
    36   22   21 ar   
    37   57   21 1    
    38   23   22 1    
    39   26   22 ar   
    40   24   23 2    
    41   58   23 1    
    42   25   24 1    
    43   26   25 1    
    44   29   25 1    
    45   27   26 ar   
    46   28   27 ar   
    47   59   28 1    
    48   30   29 1    
    49   33   29 1    
    50   60   29 1    
    51   31   30 1    
    52   41   30 1    
    53   61   30 1    
    54   32   31 1    
    55   40   31 1    
    56   62   31 1    
    57   33   32 1    
    58   34   32 1    
    59   63   32 1    
    60   35   34 1    
    61   64   34 1    
    62   65   34 1    
    63   36   35 1    
    64   37   36 ar   
    65   38   36 ar   
    66   39   36 ar   
    67   66   40 1    
    68   67   41 1    
    69   43   42 1    
    70   44   42 1    
    71   45   42 1    
@<TRIPOS>SUBSTRUCTURE
     1 20T601      1 GROUP   
@<TRIPOS>SET

