#    Name: 3s3i_CQ0_1_INTS_M
#    Modification time : Tue Mar 25 12:08:06 2014

@<TRIPOS>MOLECULE
3s3i_CQ0_1_INTS_M
   72     0     9     0     0
SMALL
NO_CHARGES


@<TRIPOS>ATOM
      1 CA          8.9200   29.6495   31.9550 C.3       3 GLC5        0.0000 
      2 CA          6.9830   29.5440   31.0730 C.3       9 GLL5        0.0000 
      3 CA         10.8570   29.7550   32.8370 C.3       6 GLP5        0.0000 
      4 CA          7.6750   29.0680   27.8130 C.3       3 GLC5        0.0000 
      5 CA          5.9750   28.5320   29.0960 C.3       9 GLL5        0.0000 
      6 CA          9.3750   29.6040   26.5300 C.3       6 GLP5        0.0000 
      7 CA          2.4795   31.4625   28.1770 C.3       3 GLC5        0.0000 
      8 CA          2.9530   31.6830   30.0050 C.3       9 GLL5        0.0000 
      9 CA          2.0060   31.2420   26.3490 C.3       6 GLP5        0.0000 
     10 CA          1.8685   30.5575   33.6840 C.3       3 GLC5        0.0000 
     11 CA          1.1850   30.2370   31.7010 C.3       9 GLL5        0.0000 
     12 CA          2.5520   30.8780   35.6670 C.3       6 GLP5        0.0000 
     13 CA          0.6815   30.1005   29.5505 C.3       3 GLC5        0.0000 
     14 CA          0.1780   29.9640   27.4000 C.3       6 GLP5        0.0000 
     15 CA          2.7355   29.1295   33.5065 C.3       3 GLC5        0.0000 
     16 CA          2.4980   29.8150   31.5450 C.3       9 GLL5        0.0000 
     17 CA          2.9730   28.4440   35.4680 C.3       6 GLP5        0.0000 
     18 CA          4.1165   30.9710   34.1530 C.3       3 GLC5        0.0000 
     19 CA          5.6810   31.0640   32.6390 C.3       9 GLL5        0.0000 
     20 CA          4.6175   32.4980   32.9780 C.3       3 GLC5        0.0000 
     21 CA          3.5540   33.9320   33.3170 C.3       6 GLP5        0.0000 
     22 CA          6.3700   29.7620   33.8405 C.3       3 GLC5        0.0000 
     23 CA          7.0590   28.4600   35.0420 C.3       6 GLP5        0.0000 
     24 O           7.5165   26.0920   28.9340 O.2       1 ALC1        0.0000 
     25 O           6.8520   26.6460   27.7280 O.2       7 ALL1        0.0000 
     26 O           8.1810   25.5380   30.1400 O.2       4 ALP1        0.0000 
     27 CA          6.8705   23.9620   27.1490 C.3       3 GLC5        0.0000 
     28 CA          6.9360   25.7480   26.5820 C.3       9 GLL5        0.0000 
     29 CA          6.8050   22.1760   27.7160 C.3       6 GLP5        0.0000 
     30 CA          8.2760   28.0315   25.9090 C.3       3 GLC5        0.0000 
     31 CA          7.1770   26.4590   25.2880 C.3       9 GLL5        0.0000 
     32 CA          9.9410   25.4700   24.6945 C.3       3 GLC5        0.0000 
     33 CA          8.3000   25.6460   25.9180 C.3       9 GLL5        0.0000 
     34 CA         11.5820   25.2940   23.4710 C.3       6 GLP5        0.0000 
     35 CA          9.4070   27.1985   26.4870 C.3       3 GLC5        0.0000 
     36 CA         10.5140   28.7510   27.0560 C.3       6 GLP5        0.0000 
     37 CA          7.7995   23.6805   26.1435 C.3       3 GLC5        0.0000 
     38 CA          7.2990   21.7150   26.3690 C.3       6 GLP5        0.0000 
     39 N           4.3975   27.2260   25.9460 N.am      2 SEC2        0.0000 
     40 N           5.1540   27.8980   26.9440 N.am      8 SEL2        0.0000 
     41 N           3.6410   26.5540   24.9480 N.am      5 SEP2        0.0000 
     42 CA         -4.3460   34.0070   30.3890 C.3       3 GLC5        0.0000 
     43 CA         -2.9280   32.7050   31.1570 C.3       9 GLL5        0.0000 
     44 CA         -5.7640   35.3090   29.6210 C.3       6 GLP5        0.0000 
     45 CA         -1.2425   31.8760   34.9240 C.3       3 GLC5        0.0000 
     46 CA         -1.7000   31.7690   33.1000 C.3       9 GLL5        0.0000 
     47 CA         -0.7850   31.9830   36.7480 C.3       6 GLP5        0.0000 
     48 CA         -1.0510   30.1615   29.2225 C.3       3 GLC5        0.0000 
     49 CA         -2.2800   30.3590   31.0450 C.3       9 GLL5        0.0000 
     50 CA          6.3745   28.2333   31.9895 C.3       3 GLC5        0.0000 
     51 CA          5.7790   30.1950   31.3990 C.3       9 GLL5        0.0000 
     52 CA          6.3680   26.5970   32.7430 C.3       6 GLP5        0.0000 
     53 CA          8.7243   28.9290   29.5175 C.3       3 GLC5        0.0000 
     54 CA         10.4090   28.7080   28.5370 C.3       6 GLP5        0.0000 
     55 CA          5.5505   28.0945   31.3750 C.3       3 GLC5        0.0000 
     56 CA          4.6760   30.0220   30.5650 C.3       9 GLL5        0.0000 
     57 CA          6.4518   27.6205   31.1262 C.3       3 GLC5        0.0000 
     58 CA          3.3590   32.5210   31.8398 C.3       3 GLC5        0.0000 
     59 CA          3.3750   30.5370   30.7200 C.3       9 GLL5        0.0000 
     60 CA          4.5246   32.4031   30.0974 C.3       3 GLC5        0.0000 
     61 CA          5.5600   33.8250   29.8710 C.3       6 GLP5        0.0000 
     62 CA          6.4905   32.0964   31.0578 C.3       3 GLC5        0.0000 
     63 CA          6.9500   33.7260   30.1780 C.3       6 GLP5        0.0000 
     64 CA          8.9085   25.2620   27.6495 C.3       3 GLC5        0.0000 
     65 CA         10.1990   24.8270   29.0490 C.3       6 GLP5        0.0000 
     66 CA          5.4147   25.5762   25.5005 C.3       3 GLC5        0.0000 
     67 CA          3.7730   25.0490   25.0660 C.3       6 GLP5        0.0000 
     68 CA          8.0667   26.7297   23.8460 C.3       3 GLC5        0.0000 
     69 CA          8.3950   27.4070   22.0890 C.3       6 GLP5        0.0000 
     70 CA         -1.0527   33.9161   32.1966 C.3       3 GLC5        0.0000 
     71 CA         -1.8340   31.7700   31.5840 C.3       9 GLL5        0.0000 
     72 CA         -0.0650   35.8290   32.1580 C.3       6 GLP5        0.0000 
@<TRIPOS>BOND
@<TRIPOS>SUBSTRUCTURE
     1 ALC1       24 GROUP        1 X    ALC  0     ROOT ALC X 1
     2 SEC2       39 GROUP        1 X    SEC  0     **** SEC X 2
     3 GLC5        1 GROUP        1 X    GLC  0     **** GLC X 6
     4 ALP1       26 GROUP        1 Y    ALP  0     ROOT ALP Y 8
     5 SEP2       41 GROUP        1 Y    SEP  0     **** SEP Y 9
     6 GLP5        3 GROUP        1 Y    GLP  0     **** GLP Y 13
     7 ALL1       25 GROUP        1 Z    ALL  0     ROOT ALL Z 15
     8 SEL2       40 GROUP        1 Z    SEL  0     **** SEL Z 16
     9 GLL5        2 GROUP        1 Z    GLL  0     **** GLL Z 20
@<TRIPOS>SET

