#    Name: 3s3i_CQ0_1_ligand
#    Modification time : Tue Mar 25 12:08:06 2014

@<TRIPOS>MOLECULE
3s3i_CQ0_1_ligand
   50    53     1     0     0
SMALL
NO_CHARGES


@<TRIPOS>ATOM
      1 CAA         6.9830   29.5440   31.0730 C.ar      1 CQ01        0.0000 
      2 CAB         5.7790   30.1950   31.3990 C.ar      1 CQ01        0.0000 
      3 CAC         4.6760   30.0220   30.5650 C.ar      1 CQ01        0.0000 
      4 CAD         4.7900   29.1620   29.4490 C.ar      1 CQ01        0.0000 
      5 CAE         5.9750   28.5320   29.0960 C.ar      1 CQ01        0.0000 
      6 CAF         7.0960   28.7560   29.9230 C.ar      1 CQ01        0.0000 
      7 CAG         3.3750   30.5370   30.7200 C.2       1 CQ01        0.0000 
      8 CAH         2.9530   31.6830   30.0050 C.2       1 CQ01        0.0000 
      9 CAI         1.6500   32.1350   30.1510 C.2       1 CQ01        0.0000 
     10 NAJ         0.7880   31.4550   31.0080 N.pl3     1 CQ01        0.0000 
     11 CAK         1.1850   30.2370   31.7010 C.2       1 CQ01        0.0000 
     12 CAL         2.4980   29.8150   31.5450 C.2       1 CQ01        0.0000 
     13 NAM         0.9610   33.1870   29.6460 N.2       1 CQ01        0.0000 
     14 NAN        -0.2490   33.1940   30.0380 N.2       1 CQ01        0.0000 
     15 CAO        -0.4660   32.1710   30.9040 C.2       1 CQ01        0.0000 
     16 CAP        -1.8340   31.7700   31.5840 C.3       1 CQ01        0.0000 
     17 CAQ         5.6810   31.0640   32.6390 C.3       1 CQ01        0.0000 
     18 CAR         5.9630   27.6530   27.8240 C.2       1 CQ01        0.0000 
     19 NAS         6.8520   26.6460   27.7280 N.am      1 CQ01        0.0000 
     20 CAT         6.9360   25.7480   26.5820 C.3       1 CQ01        0.0000 
     21 CAU         7.1770   26.4590   25.2880 C.3       1 CQ01        0.0000 
     22 CAV         8.3000   25.6460   25.9180 C.3       1 CQ01        0.0000 
     23 OAW         5.1540   27.8980   26.9440 O.2       1 CQ01        0.0000 
     24 CAX        -2.9280   32.7050   31.1570 C.3       1 CQ01        0.0000 
     25 CAY        -1.7000   31.7690   33.1000 C.3       1 CQ01        0.0000 
     26 CAZ        -2.2800   30.3590   31.0450 C.3       1 CQ01        0.0000 
     27 H           7.7988   29.6526   31.6986 H         1 CQ01        0.0000 
     28 H           3.9342   28.9996   28.8682 H         1 CQ01        0.0000 
     29 H           7.9990   28.3350   29.6741 H         1 CQ01        0.0000 
     30 H           3.6112   32.1636   29.3906 H         1 CQ01        0.0000 
     31 H           0.5153   29.7483   32.2584 H         1 CQ01        0.0000 
     32 H           2.8350   28.9752   32.0302 H         1 CQ01        0.0000 
     33 H           7.5434   26.4595   28.4982 H         1 CQ01        0.0000 
     34 H           6.4645   24.9559   26.3963 H         1 CQ01        0.0000 
     35 H           7.3475   27.3748   25.4725 H         1 CQ01        0.0000 
     36 H           6.8075   25.9402   24.5836 H         1 CQ01        0.0000 
     37 H           8.3376   24.8163   25.4680 H         1 CQ01        0.0000 
     38 H           8.8776   26.2510   26.3569 H         1 CQ01        0.0000 
     39 H           5.8682   30.5442   33.4725 H         1 CQ01        0.0000 
     40 H           6.3327   31.8221   32.6137 H         1 CQ01        0.0000 
     41 H           4.7701   31.4638   32.7413 H         1 CQ01        0.0000 
     42 H          -2.7295   33.6508   31.4139 H         1 CQ01        0.0000 
     43 H          -3.0617   32.6923   30.1661 H         1 CQ01        0.0000 
     44 H          -3.8048   32.4658   31.5741 H         1 CQ01        0.0000 
     45 H          -1.0038   31.1219   33.4109 H         1 CQ01        0.0000 
     46 H          -1.4410   32.6690   33.4505 H         1 CQ01        0.0000 
     47 H          -2.5571   31.5153   33.5484 H         1 CQ01        0.0000 
     48 H          -1.6034   29.6520   31.2507 H         1 CQ01        0.0000 
     49 H          -3.1453   30.0633   31.4499 H         1 CQ01        0.0000 
     50 H          -2.4069   30.3635   30.0531 H         1 CQ01        0.0000 
@<TRIPOS>BOND
     1    2    1 ar   
     2    6    1 ar   
     3   27    1 1    
     4    3    2 ar   
     5   17    2 1    
     6    4    3 ar   
     7    7    3 1    
     8    5    4 ar   
     9   28    4 1    
    10    6    5 ar   
    11   18    5 1    
    12   29    6 1    
    13    8    7 2    
    14   12    7 1    
    15    9    8 1    
    16   30    8 1    
    17   10    9 1    
    18   13    9 2    
    19   11   10 1    
    20   15   10 1    
    21   12   11 2    
    22   31   11 1    
    23   32   12 1    
    24   14   13 1    
    25   15   14 2    
    26   16   15 1    
    27   24   16 1    
    28   25   16 1    
    29   26   16 1    
    30   39   17 1    
    31   40   17 1    
    32   41   17 1    
    33   19   18 am   
    34   23   18 2    
    35   20   19 1    
    36   33   19 1    
    37   21   20 1    
    38   22   20 1    
    39   34   20 1    
    40   22   21 1    
    41   35   21 1    
    42   36   21 1    
    43   37   22 1    
    44   38   22 1    
    45   42   24 1    
    46   43   24 1    
    47   44   24 1    
    48   45   25 1    
    49   46   25 1    
    50   47   25 1    
    51   48   26 1    
    52   49   26 1    
    53   50   26 1    
@<TRIPOS>SUBSTRUCTURE
     1 CQ01        1 GROUP   
@<TRIPOS>SET

