#    Name: 4fo4_IMP_1_INTS_M
#    Modification time : Mon Mar 24 20:24:32 2014

@<TRIPOS>MOLECULE
4fo4_IMP_1_INTS_M
   52     0     9     0     0
SMALL
NO_CHARGES


@<TRIPOS>ATOM
      1 N           9.8835   37.8215   10.0495 N.am      2 SEC2        0.0000 
      2 N           9.0820   38.8460   10.5350 N.am      8 SEL2        0.0000 
      3 N          10.6850   36.7970    9.5640 N.am      5 SEP2        0.0000 
      4 N           9.5055   38.6470    8.8865 N.am      2 SEC2        0.0000 
      5 N           9.9290   38.4480    7.2380 N.am      5 SEP2        0.0000 
      6 N           6.6870   39.7875    7.9905 N.am      2 SEC2        0.0000 
      7 N           7.4930   39.0470    8.6910 N.am      8 SEL2        0.0000 
      8 N           5.8810   40.5280    7.2900 N.am      5 SEP2        0.0000 
      9 N           8.7110   38.7475    7.9645 N.am      2 SEC2        0.0000 
     10 N           7.2440   38.0440    7.9775 N.am      2 SEC2        0.0000 
     11 N           6.9950   37.0410    7.2640 N.am      5 SEP2        0.0000 
     12 N           5.9475   40.8925   10.3260 N.am      2 SEC2        0.0000 
     13 N           7.2720   40.4970   10.8260 N.am      8 SEL2        0.0000 
     14 N           4.6230   41.2880    9.8260 N.am      5 SEP2        0.0000 
     15 N           7.4025   40.9210   12.1310 N.am      2 SEC2        0.0000 
     16 N           7.5330   41.3450   13.4360 N.am      5 SEP2        0.0000 
     17 CA          8.5025   36.5225    9.5915 C.3       3 GLC5        0.0000 
     18 CA          6.8090   36.7210   10.8640 C.3       9 GLL5        0.0000 
     19 CA         10.1960   36.3240    8.3190 C.3       6 GLP5        0.0000 
     20 CA          7.8665   33.7375   10.9665 C.3       3 GLC5        0.0000 
     21 CA          6.1680   34.5220   11.9070 C.3       9 GLL5        0.0000 
     22 CA          9.5650   32.9530   10.0260 C.3       6 GLP5        0.0000 
     23 O           7.7635   34.6290   13.6180 O.2       1 ALC1        0.0000 
     24 O           7.3590   34.1210   12.5970 O.2       7 ALL1        0.0000 
     25 O           8.1680   35.1370   14.6390 O.2       4 ALP1        0.0000 
     26 O           7.0920   33.9255   14.1710 O.2       1 ALC1        0.0000 
     27 O           6.8250   33.7300   15.7450 O.2       4 ALP1        0.0000 
     28 O           6.6035   34.7550   14.3780 O.2       1 ALC1        0.0000 
     29 O           5.0390   34.3730   14.1170 O.2       7 ALL1        0.0000 
     30 O           5.9320   34.0515   14.9310 O.2       1 ALC1        0.0000 
     31 N           1.7580   32.9225    8.1540 N.am      2 SEC2        0.0000 
     32 N           2.1300   33.6520    9.3110 N.am      8 SEL2        0.0000 
     33 N           1.3860   32.1930    6.9970 N.am      5 SEP2        0.0000 
     34 CA          1.3040   34.4390    7.9735 C.3       3 GLC5        0.0000 
     35 CA          1.1860   34.4370    9.8620 C.3       9 GLL5        0.0000 
     36 CA          1.4220   34.4410    6.0850 C.3       6 GLP5        0.0000 
     37 N          -0.8805   33.0235    8.1570 N.am      2 SEC2        0.0000 
     38 N          -0.6940   34.3280    8.4840 N.am      8 SEL2        0.0000 
     39 N          -1.0670   31.7190    7.8300 N.am      5 SEP2        0.0000 
     40 O          -1.9575   36.1825   10.0625 O.2       1 ALC1        0.0000 
     41 O          -0.7660   35.6040   10.2880 O.2       7 ALL1        0.0000 
     42 O          -3.1490   36.7610    9.8370 O.2       4 ALP1        0.0000 
     43 CA          0.9715   37.0775   11.1010 C.3       3 GLC5        0.0000 
     44 CA          1.7550   35.0220   10.9990 C.3       9 GLL5        0.0000 
     45 CA          0.1880   39.1330   11.2030 C.3       6 GLP5        0.0000 
     46 CA          6.9422   37.7250   12.8487 C.3       3 GLC5        0.0000 
     47 CA          7.4920   39.0760   14.3200 C.3       6 GLP5        0.0000 
     48 CA          6.4701   34.5520    9.8861 C.3       3 GLC5        0.0000 
     49 CA          5.9760   36.0270   11.8910 C.3       9 GLL5        0.0000 
     50 CA          6.6600   33.6560    8.1300 C.3       6 GLP5        0.0000 
     51 CA          2.0978   35.9127    9.4023 C.3       3 GLC5        0.0000 
     52 CA          2.7250   37.0960    8.3740 C.3       6 GLP5        0.0000 
@<TRIPOS>BOND
@<TRIPOS>SUBSTRUCTURE
     1 ALC1       23 GROUP        1 X    ALC  0     ROOT ALC X 1
     2 SEC2        1 GROUP        1 X    SEC  0     **** SEC X 2
     3 GLC5       17 GROUP        1 X    GLC  0     **** GLC X 6
     4 ALP1       25 GROUP        1 Y    ALP  0     ROOT ALP Y 8
     5 SEP2        3 GROUP        1 Y    SEP  0     **** SEP Y 9
     6 GLP5       19 GROUP        1 Y    GLP  0     **** GLP Y 13
     7 ALL1       24 GROUP        1 Z    ALL  0     ROOT ALL Z 15
     8 SEL2        2 GROUP        1 Z    SEL  0     **** SEL Z 16
     9 GLL5       18 GROUP        1 Z    GLL  0     **** GLL Z 20
@<TRIPOS>SET

