#    Name: 4fo4_IMP_1_ligand
#    Modification time : Mon Mar 24 20:24:32 2014

@<TRIPOS>MOLECULE
4fo4_IMP_1_ligand
   34    36     1     0     0
SMALL
NO_CHARGES


@<TRIPOS>ATOM
      1 P           7.6620   39.1070   10.2600 P.3       1 IMP501      0.0000 
      2 O1P         9.0820   38.8460   10.5350 O.co2     1 IMP501      0.0000 
      3 O2P         7.4930   39.0470    8.6910 O.co2     1 IMP501      0.0000 
      4 O3P         7.2720   40.4970   10.8260 O.co2     1 IMP501      0.0000 
      5 O5'         6.7130   38.1250   11.0760 O.3       1 IMP501      0.0000 
      6 C5'         6.8090   36.7210   10.8640 C.3       1 IMP501      0.0000 
      7 C4'         5.9760   36.0270   11.8910 C.3       1 IMP501      0.0000 
      8 O4'         4.5670   36.1910   11.6750 O.3       1 IMP501      0.0000 
      9 C3'         6.1680   34.5220   11.9070 C.3       1 IMP501      0.0000 
     10 O3'         7.3590   34.1210   12.5970 O.3       1 IMP501      0.0000 
     11 C2'         4.9550   34.0980   12.6950 C.3       1 IMP501      0.0000 
     12 O2'         5.0390   34.3730   14.1170 O.3       1 IMP501      0.0000 
     13 C1'         3.8720   35.0620   12.2250 C.3       1 IMP501      0.0000 
     14 N9          2.9870   34.5810   11.1220 N.pl3     1 IMP501      0.0000 
     15 C8          3.2330   33.7140   10.1230 C.2       1 IMP501      0.0000 
     16 N7          2.1300   33.6520    9.3110 N.2       1 IMP501      0.0000 
     17 C5          1.1860   34.4370    9.8620 C.2       1 IMP501      0.0000 
     18 C6         -0.1060   34.7670    9.5050 C.2       1 IMP501      0.0000 
     19 O6         -0.6940   34.3280    8.4840 O.2       1 IMP501      0.0000 
     20 N1         -0.7660   35.6040   10.2880 N.am      1 IMP501      0.0000 
     21 C2         -0.1890   36.1420   11.4110 C.2       1 IMP501      0.0000 
     22 N3          1.0670   35.8990   11.7970 N.2       1 IMP501      0.0000 
     23 C4          1.7550   35.0220   10.9990 C.2       1 IMP501      0.0000 
     24 H           7.8428   36.3710   10.9571 H         1 IMP501      0.0000 
     25 H           6.4452   36.4396    9.8699 H         1 IMP501      0.0000 
     26 H           6.2315   36.3890   12.8859 H         1 IMP501      0.0000 
     27 H           6.0786   34.1541   10.9303 H         1 IMP501      0.0000 
     28 H           4.6581   33.1364   12.4672 H         1 IMP501      0.0000 
     29 H           3.2866   35.3794   13.0611 H         1 IMP501      0.0000 
     30 H           4.0455   33.2121    9.9875 H         1 IMP501      0.0000 
     31 H          -1.7579   35.8774   10.0633 H         1 IMP501      0.0000 
     32 H          -0.7938   36.7938   12.0037 H         1 IMP501      0.0000 
     33 H           7.1950   34.3570   13.5547 H         1 IMP501      0.0000 
     34 H           5.9134   33.9824   14.4048 H         1 IMP501      0.0000 
@<TRIPOS>BOND
     1    2    1 ar   
     2    3    1 ar   
     3    4    1 ar   
     4    5    1 1    
     5    6    5 1    
     6    7    6 1    
     7   24    6 1    
     8   25    6 1    
     9    8    7 1    
    10    9    7 1    
    11   26    7 1    
    12   13    8 1    
    13   10    9 1    
    14   11    9 1    
    15   27    9 1    
    16   33   10 1    
    17   12   11 1    
    18   13   11 1    
    19   28   11 1    
    20   34   12 1    
    21   14   13 1    
    22   29   13 1    
    23   15   14 1    
    24   23   14 1    
    25   16   15 2    
    26   30   15 1    
    27   17   16 1    
    28   18   17 1    
    29   23   17 2    
    30   19   18 2    
    31   20   18 am   
    32   21   20 1    
    33   31   20 1    
    34   22   21 2    
    35   32   21 1    
    36   23   22 1    
@<TRIPOS>SUBSTRUCTURE
     1 IMP501      1 GROUP   
@<TRIPOS>SET

