#    Name: 2p9i_ADP_2_INTS_M
#    Modification time : Mon Mar 24 18:32:20 2014

@<TRIPOS>MOLECULE
2p9i_ADP_2_INTS_M
   70     0    12     0     0
SMALL
NO_CHARGES


@<TRIPOS>ATOM
      1 NZ        -23.8975   27.3745   23.8575 N.4       3 LYC4        0.0000 
      2 NZ        -23.6010   28.6030   24.3280 N.4      11 LYL4        0.0000 
      3 NZ        -24.1940   26.1460   23.3870 N.4       7 LYP4        0.0000 
      4 N         -23.8975   27.3745   23.8575 N.am      2 SEC2        0.0000 
      5 N         -23.6010   28.6030   24.3280 N.am     10 SEL2        0.0000 
      6 N         -24.1940   26.1460   23.3870 N.am      6 SEP2        0.0000 
      7 NZ        -22.6465   27.1440   23.6960 N.4       3 LYC4        0.0000 
      8 NZ        -21.0990   28.1420   24.0050 N.4      11 LYL4        0.0000 
      9 N         -20.0415   28.6540   23.2280 N.am      2 SEC2        0.0000 
     10 N         -21.0990   28.1420   24.0050 N.am     10 SEL2        0.0000 
     11 N         -18.9840   29.1660   22.4510 N.am      6 SEP2        0.0000 
     12 N         -20.3480   27.2580   23.1960 N.am      2 SEC2        0.0000 
     13 N         -19.5970   26.3740   22.3870 N.am      6 SEP2        0.0000 
     14 N         -21.4810   30.6105   23.3305 N.am      2 SEC2        0.0000 
     15 N         -21.8840   30.4720   24.7300 N.am     10 SEL2        0.0000 
     16 N         -21.0780   30.7490   21.9310 N.am      6 SEP2        0.0000 
     17 N         -21.0265   30.4225   26.1845 N.am      2 SEC2        0.0000 
     18 N         -20.1690   30.3730   27.6390 N.am      6 SEP2        0.0000 
     19 N         -24.3930   27.3255   28.8120 N.am      2 SEC2        0.0000 
     20 N         -24.1660   27.5920   27.2860 N.am     10 SEL2        0.0000 
     21 N         -24.6200   27.0590   30.3380 N.am      6 SEP2        0.0000 
     22 NZ        -23.3920   26.1155   24.6795 N.4       3 LYC4        0.0000 
     23 NZ        -22.5900   26.0850   25.9720 N.4      11 LYL4        0.0000 
     24 N         -23.3920   26.1155   24.6795 N.am      2 SEC2        0.0000 
     25 N         -22.5900   26.0850   25.9720 N.am     10 SEL2        0.0000 
     26 N         -21.1000   29.4450   27.0155 N.am      2 SEC2        0.0000 
     27 N         -22.0310   28.5170   26.3920 N.am     10 SEL2        0.0000 
     28 N         -23.2955   26.9745   29.3095 N.am      2 SEC2        0.0000 
     29 N         -21.9710   26.8900   28.2810 N.am     10 SEL2        0.0000 
     30 CA        -19.6525   25.7415   26.6010 C.3       4 GLC5        0.0000 
     31 CA        -20.5740   26.5850   28.2350 C.3      12 GLL5        0.0000 
     32 CA        -18.7310   24.8980   24.9670 C.3       8 GLP5        0.0000 
     33 CA        -19.4250   27.9355   27.3940 C.3       4 GLC5        0.0000 
     34 CA        -18.2760   29.2860   26.5530 C.3       8 GLP5        0.0000 
     35 CA        -21.1140   28.9780   29.0240 C.3       4 GLC5        0.0000 
     36 CA        -19.8790   27.2350   29.4340 C.3      12 GLL5        0.0000 
     37 CA        -22.3490   30.7210   28.6140 C.3       8 GLP5        0.0000 
     38 CA        -19.2970   28.7535   28.5345 C.3       4 GLC5        0.0000 
     39 CA        -18.7150   30.2720   27.6350 C.3       8 GLP5        0.0000 
     40 CA        -18.0045   25.7585   27.6350 C.3       4 GLC5        0.0000 
     41 CA        -18.3980   26.8570   29.5070 C.3      12 GLL5        0.0000 
     42 CA        -17.6110   24.6600   25.7630 C.3       8 GLP5        0.0000 
     43 CA        -18.3370   28.0715   28.0300 C.3       4 GLC5        0.0000 
     44 CA        -17.8805   28.6855   30.5475 C.3       4 GLC5        0.0000 
     45 CA        -17.3630   30.5140   31.5880 C.3       8 GLP5        0.0000 
     46 O         -16.9025   28.2905   28.7880 O.2       1 ALC1        0.0000 
     47 O         -17.6770   27.8910   30.1820 O.2       9 ALL1        0.0000 
     48 O         -16.1280   28.6900   27.3940 O.2       5 ALP1        0.0000 
     49 N         -16.6290   26.2290   32.0165 N.am      2 SEC2        0.0000 
     50 N         -17.1940   25.4100   31.0200 N.am     10 SEL2        0.0000 
     51 N         -16.0640   27.0480   33.0130 N.am      6 SEP2        0.0000 
     52 O         -17.1990   24.0215   31.1885 O.2       1 ALC1        0.0000 
     53 O         -17.1940   25.4100   31.0200 O.2       9 ALL1        0.0000 
     54 O         -17.2040   22.6330   31.3570 O.2       5 ALP1        0.0000 
     55 CA        -21.6540   26.1150   31.2880 C.3       4 GLC5        0.0000 
     56 CA        -19.4880   26.0430   31.3960 C.3      12 GLL5        0.0000 
     57 CA        -23.8200   26.1870   31.1800 C.3       8 GLP5        0.0000 
     58 CA        -19.1070   23.9670   34.6740 C.3       4 GLC5        0.0000 
     59 CA        -20.4200   25.4780   35.6830 C.3      12 GLL5        0.0000 
     60 CA        -17.7940   22.4560   33.6650 C.3       8 GLP5        0.0000 
     61 CA        -21.4115   27.1705   34.5810 C.3       4 GLC5        0.0000 
     62 CA        -22.4030   28.8630   33.4790 C.3       8 GLP5        0.0000 
     63 CA        -22.5725   24.8785   35.6795 C.3       4 GLC5        0.0000 
     64 CA        -24.7250   24.2790   35.6760 C.3       8 GLP5        0.0000 
     65 CA        -22.0725   25.5245   32.3100 C.3       4 GLC5        0.0000 
     66 CA        -20.3250   24.8620   33.4400 C.3      12 GLL5        0.0000 
     67 CA        -22.0233   26.5485   30.0072 C.3       4 GLC5        0.0000 
     68 CA        -22.9292   23.8867   35.0123 C.3       4 GLC5        0.0000 
     69 CA        -20.9470   23.6470   33.6970 C.3      12 GLL5        0.0000 
     70 CA        -19.2616   23.3171   33.7796 C.3       4 GLC5        0.0000 
@<TRIPOS>BOND
@<TRIPOS>SUBSTRUCTURE
     1 ALC1       46 GROUP        1 X    ALC  0     ROOT ALC X 1
     2 SEC2        4 GROUP        1 X    SEC  0     **** SEC X 2
     3 LYC4        1 GROUP        1 X    LYC  0     **** LYC X 4
     4 GLC5       30 GROUP        1 X    GLC  0     **** GLC X 6
     5 ALP1       48 GROUP        1 Y    ALP  0     ROOT ALP Y 8
     6 SEP2        6 GROUP        1 Y    SEP  0     **** SEP Y 9
     7 LYP4        3 GROUP        1 Y    LYP  0     **** LYP Y 11
     8 GLP5       32 GROUP        1 Y    GLP  0     **** GLP Y 13
     9 ALL1       47 GROUP        1 Z    ALL  0     ROOT ALL Z 15
    10 SEL2        5 GROUP        1 Z    SEL  0     **** SEL Z 16
    11 LYL4        2 GROUP        1 Z    LYL  0     **** LYL Z 18
    12 GLL5       31 GROUP        1 Z    GLL  0     **** GLL Z 20
@<TRIPOS>SET

