#    Name: 2p9i_ADP_2_ligand
#    Modification time : Mon Mar 24 18:32:20 2014

@<TRIPOS>MOLECULE
2p9i_ADP_2_ligand
   39    41     1     0     0
SMALL
NO_CHARGES


@<TRIPOS>ATOM
      1 PB        -22.1410   29.0210   24.8640 P.3       1 ADP402      0.0000 
      2 O1B       -23.6010   28.6030   24.3280 O.co2     1 ADP402      0.0000 
      3 O2B       -21.0990   28.1420   24.0050 O.co2     1 ADP402      0.0000 
      4 O3B       -21.8840   30.4720   24.7300 O.co2     1 ADP402      0.0000 
      5 PA        -22.7850   27.1980   26.9270 P.3       1 ADP402      0.0000 
      6 O1A       -24.1660   27.5920   27.2860 O.co2     1 ADP402      0.0000 
      7 O2A       -22.5900   26.0850   25.9720 O.co2     1 ADP402      0.0000 
      8 O3A       -22.0310   28.5170   26.3920 O.3       1 ADP402      0.0000 
      9 O5'       -21.9710   26.8900   28.2810 O.3       1 ADP402      0.0000 
     10 C5'       -20.5740   26.5850   28.2350 C.3       1 ADP402      0.0000 
     11 C4'       -19.8790   27.2350   29.4340 C.3       1 ADP402      0.0000 
     12 O4'       -20.4970   26.7160   30.6260 O.3       1 ADP402      0.0000 
     13 C3'       -18.3980   26.8570   29.5070 C.3       1 ADP402      0.0000 
     14 O3'       -17.6770   27.8910   30.1820 O.3       1 ADP402      0.0000 
     15 C2'       -18.4520   25.5940   30.3650 C.3       1 ADP402      0.0000 
     16 O2'       -17.1940   25.4100   31.0200 O.3       1 ADP402      0.0000 
     17 C1'       -19.4880   26.0430   31.3960 C.3       1 ADP402      0.0000 
     18 N9        -20.0920   24.9050   32.1260 N.pl3     1 ADP402      0.0000 
     19 C8        -20.5390   23.7760   31.5870 C.2       1 ADP402      0.0000 
     20 N7        -21.0610   23.0030   32.5380 N.2       1 ADP402      0.0000 
     21 C5        -20.9470   23.6470   33.6970 C.ar      1 ADP402      0.0000 
     22 C6        -21.3200   23.3420   35.0000 C.ar      1 ADP402      0.0000 
     23 N6        -21.9200   22.1890   35.2840 N.pl3     1 ADP402      0.0000 
     24 N1        -21.0530   24.2720   36.0120 N.ar      1 ADP402      0.0000 
     25 C2        -20.4200   25.4780   35.6830 C.ar      1 ADP402      0.0000 
     26 N3        -20.0810   25.7310   34.4280 N.ar      1 ADP402      0.0000 
     27 C4        -20.3250   24.8620   33.4400 C.ar      1 ADP402      0.0000 
     28 H         -20.1035   26.9706   27.3270 H         1 ADP402      0.0000 
     29 H         -20.3910   25.5087   28.2862 H         1 ADP402      0.0000 
     30 H         -19.9744   28.2862   29.3769 H         1 ADP402      0.0000 
     31 H         -18.0597   26.6192   28.5594 H         1 ADP402      0.0000 
     32 H         -18.8117   24.8149   29.8237 H         1 ADP402      0.0000 
     33 H         -19.0157   26.7253   32.0676 H         1 ADP402      0.0000 
     34 H         -20.4927   23.5451   30.6351 H         1 ADP402      0.0000 
     35 H         -22.1184   21.5929   34.5060 H         1 ADP402      0.0000 
     36 H         -22.1184   22.0224   36.2499 H         1 ADP402      0.0000 
     37 H         -20.2311   26.1531   36.4503 H         1 ADP402      0.0000 
     38 H         -17.0128   28.2229   29.5121 H         1 ADP402      0.0000 
     39 H         -17.1383   24.4283   31.2020 H         1 ADP402      0.0000 
@<TRIPOS>BOND
     1    2    1 ar   
     2    3    1 ar   
     3    4    1 ar   
     4    8    1 1    
     5    6    5 ar   
     6    7    5 ar   
     7    8    5 1    
     8    9    5 1    
     9   10    9 1    
    10   11   10 1    
    11   28   10 1    
    12   29   10 1    
    13   12   11 1    
    14   13   11 1    
    15   30   11 1    
    16   17   12 1    
    17   14   13 1    
    18   15   13 1    
    19   31   13 1    
    20   38   14 1    
    21   16   15 1    
    22   17   15 1    
    23   32   15 1    
    24   39   16 1    
    25   18   17 1    
    26   33   17 1    
    27   19   18 1    
    28   27   18 1    
    29   20   19 2    
    30   34   19 1    
    31   21   20 1    
    32   22   21 ar   
    33   27   21 ar   
    34   23   22 1    
    35   24   22 ar   
    36   35   23 1    
    37   36   23 1    
    38   25   24 ar   
    39   26   25 ar   
    40   37   25 1    
    41   27   26 ar   
@<TRIPOS>SUBSTRUCTURE
     1 ADP402      1 GROUP   
@<TRIPOS>SET

