#    Name: 3ls8_AJZ_2_INTS_M
#    Modification time : Mon Mar 24 22:10:01 2014

@<TRIPOS>MOLECULE
3ls8_AJZ_2_INTS_M
   64     0     9     0     0
SMALL
NO_CHARGES


@<TRIPOS>ATOM
      1 N         -33.9340   68.1910  -31.1815 N.am      2 SEC2        0.0000 
      2 N         -34.8680   67.3920  -30.8770 N.am      8 SEL2        0.0000 
      3 N         -33.0000   68.9900  -31.4860 N.am      5 SEP2        0.0000 
      4 N         -33.4990   66.5695  -30.6725 N.am      2 SEC2        0.0000 
      5 N         -32.1300   65.7470  -30.4680 N.am      5 SEP2        0.0000 
      6 O         -35.1785   66.9615  -29.7435 O.2       1 ALC1        0.0000 
      7 O         -34.8680   67.3920  -30.8770 O.2       7 ALL1        0.0000 
      8 O         -35.4890   66.5310  -28.6100 O.2       4 ALP1        0.0000 
      9 CA        -36.6810   66.4770  -29.6135 C.3       3 GLC5        0.0000 
     10 CA        -35.8970   65.2380  -31.2670 C.3       9 GLL5        0.0000 
     11 CA        -37.4650   67.7160  -27.9600 C.3       6 GLP5        0.0000 
     12 CA        -32.6275   66.5170  -32.9650 C.3       3 GLC5        0.0000 
     13 CA        -34.5790   66.3380  -32.9740 C.3       9 GLL5        0.0000 
     14 CA        -30.6760   66.6960  -32.9560 C.3       6 GLP5        0.0000 
     15 CA        -32.9170   71.4195  -35.0700 C.3       3 GLC5        0.0000 
     16 CA        -32.5260   70.2550  -36.5300 C.3       9 GLL5        0.0000 
     17 CA        -33.3080   72.5840  -33.6100 C.3       6 GLP5        0.0000 
     18 CA        -32.0000   72.1185  -37.1640 C.3       3 GLC5        0.0000 
     19 CA        -31.4740   73.9820  -37.7980 C.3       6 GLP5        0.0000 
     20 CA        -30.5585   70.5220  -36.0845 C.3       3 GLC5        0.0000 
     21 CA        -28.5910   70.7890  -35.6390 C.3       6 GLP5        0.0000 
     22 CA        -31.0875   71.3755  -38.6570 C.3       3 GLC5        0.0000 
     23 CA        -31.5530   69.5320  -38.4950 C.3       9 GLL5        0.0000 
     24 CA        -30.6220   73.2190  -38.8190 C.3       6 GLP5        0.0000 
     25 CA        -29.7525   70.3080  -37.6675 C.3       3 GLC5        0.0000 
     26 CA        -27.9520   71.0840  -36.8400 C.3       6 GLP5        0.0000 
     27 CA        -34.9285   68.0735  -37.5355 C.3       3 GLC5        0.0000 
     28 CA        -33.4490   69.0640  -36.4090 C.3       9 GLL5        0.0000 
     29 CA        -36.4080   67.0830  -38.6620 C.3       6 GLP5        0.0000 
     30 CA        -33.8935   69.8495  -34.5110 C.3       3 GLC5        0.0000 
     31 CA        -34.3380   70.6350  -32.6130 C.3       6 GLP5        0.0000 
     32 CA        -34.2825   67.6175  -38.5635 C.3       3 GLC5        0.0000 
     33 CA        -32.1570   68.1520  -38.4650 C.3       9 GLL5        0.0000 
     34 N         -32.5645   71.3750  -38.9480 N.am      2 SEC2        0.0000 
     35 N         -32.4800   70.4550  -37.9510 N.am      8 SEL2        0.0000 
     36 N         -32.6490   72.2950  -39.9450 N.am      5 SEP2        0.0000 
     37 CA        -34.4630   66.1765  -38.9030 C.3       3 GLC5        0.0000 
     38 CA        -32.5180   65.2700  -39.1440 C.3       9 GLL5        0.0000 
     39 CA        -32.6077   64.9635  -34.4798 C.3       3 GLC5        0.0000 
     40 CA        -34.7890   65.2750  -33.8450 C.3       9 GLL5        0.0000 
     41 CA        -30.7050   64.6260  -34.4780 C.3       6 GLP5        0.0000 
     42 CA        -34.8636   66.4284  -37.8697 C.3       3 GLC5        0.0000 
     43 CA        -33.5430   64.2780  -37.1130 C.3       9 GLL5        0.0000 
     44 CA        -32.0121   65.1999  -35.7777 C.3       3 GLC5        0.0000 
     45 CA        -33.2980   66.6450  -36.7990 C.3       9 GLL5        0.0000 
     46 CA        -37.4853   63.8400  -33.5843 C.3       3 GLC5        0.0000 
     47 CA        -35.5630   64.1850  -33.4250 C.3       9 GLL5        0.0000 
     48 CA        -39.1340   63.5040  -34.3860 C.3       6 GLP5        0.0000 
     49 CA        -36.2107   66.7615  -33.4327 C.3       3 GLC5        0.0000 
     50 CA        -37.5440   67.9890  -33.5610 C.3       6 GLP5        0.0000 
     51 CA        -33.9195   65.3195  -31.0306 C.3       3 GLC5        0.0000 
     52 CA        -32.7960   64.5790  -29.8340 C.3       6 GLP5        0.0000 
     53 CA        -31.6202   68.7597  -35.1767 C.3       3 GLC5        0.0000 
     54 CA        -30.2530   67.8600  -33.8840 C.3       6 GLP5        0.0000 
     55 CA        -33.0420   68.9760  -40.1745 C.3       3 GLC5        0.0000 
     56 CA        -34.2290   69.1100  -41.8690 C.3       6 GLP5        0.0000 
     57 CA        -30.2185   68.1365  -37.7560 C.3       3 GLC5        0.0000 
     58 CA        -28.5820   67.4310  -37.0320 C.3       6 GLP5        0.0000 
     59 CA        -36.7756   66.6271  -31.7694 C.3       3 GLC5        0.0000 
     60 CA        -35.1170   66.3260  -31.6940 C.3       9 GLL5        0.0000 
     61 CA        -37.9910   67.7400  -31.8400 C.3       6 GLP5        0.0000 
     62 CA        -33.8914   64.0058  -31.9464 C.3       3 GLC5        0.0000 
     63 CA        -36.1100   64.1670  -32.1400 C.3       9 GLL5        0.0000 
     64 CA        -32.4700   63.2860  -30.5790 C.3       6 GLP5        0.0000 
@<TRIPOS>BOND
@<TRIPOS>SUBSTRUCTURE
     1 ALC1        6 GROUP        1 X    ALC  0     ROOT ALC X 1
     2 SEC2        1 GROUP        1 X    SEC  0     **** SEC X 2
     3 GLC5        9 GROUP        1 X    GLC  0     **** GLC X 6
     4 ALP1        8 GROUP        1 Y    ALP  0     ROOT ALP Y 8
     5 SEP2        3 GROUP        1 Y    SEP  0     **** SEP Y 9
     6 GLP5       11 GROUP        1 Y    GLP  0     **** GLP Y 13
     7 ALL1        7 GROUP        1 Z    ALL  0     ROOT ALL Z 15
     8 SEL2        2 GROUP        1 Z    SEL  0     **** SEL Z 16
     9 GLL5       10 GROUP        1 Z    GLL  0     **** GLL Z 20
@<TRIPOS>SET

