#    Name: 3ls8_AJZ_2_ligand
#    Modification time : Mon Mar 24 22:10:01 2014

@<TRIPOS>MOLECULE
3ls8_AJZ_2_ligand
   37    40     1     0     0
SMALL
NO_CHARGES


@<TRIPOS>ATOM
      1 N1        -33.8460   66.5150  -35.5860 N.ar      1 AJZ1004     0.0000 
      2 C2        -34.2320   65.3270  -35.1180 C.ar      1 AJZ1004     0.0000 
      3 N3        -34.0790   64.2250  -35.8770 N.ar      1 AJZ1004     0.0000 
      4 C4        -33.5430   64.2780  -37.1130 C.ar      1 AJZ1004     0.0000 
      5 C5        -33.1380   65.5270  -37.5990 C.ar      1 AJZ1004     0.0000 
      6 C6        -33.2980   66.6450  -36.7990 C.ar      1 AJZ1004     0.0000 
      7 OAA       -34.8680   67.3920  -30.8770 O.3       1 AJZ1004     0.0000 
      8 CAB       -36.1100   64.1670  -32.1400 C.ar      1 AJZ1004     0.0000 
      9 CAC       -32.7630   63.5990  -39.1620 C.2       1 AJZ1004     0.0000 
     10 CAD       -35.8970   65.2380  -31.2670 C.ar      1 AJZ1004     0.0000 
     11 CAE       -35.5630   64.1850  -33.4250 C.ar      1 AJZ1004     0.0000 
     12 CAF       -33.3190   63.2730  -37.9870 C.2       1 AJZ1004     0.0000 
     13 CAG       -34.5790   66.3380  -32.9740 C.ar      1 AJZ1004     0.0000 
     14 CAH       -32.5260   70.2550  -36.5300 C.3       1 AJZ1004     0.0000 
     15 CAI       -31.5530   69.5320  -38.4950 C.3       1 AJZ1004     0.0000 
     16 CAJ       -33.4490   69.0640  -36.4090 C.3       1 AJZ1004     0.0000 
     17 CAK       -32.1570   68.1520  -38.4650 C.3       1 AJZ1004     0.0000 
     18 OAN       -32.4800   70.4550  -37.9510 O.3       1 AJZ1004     0.0000 
     19 SAO       -32.5180   65.2700  -39.1440 S.3       1 AJZ1004     0.0000 
     20 CAP       -35.1170   66.3260  -31.6940 C.ar      1 AJZ1004     0.0000 
     21 CAQ       -34.7890   65.2750  -33.8450 C.ar      1 AJZ1004     0.0000 
     22 NAV       -32.9420   67.9270  -37.2170 N.3       1 AJZ1004     0.0000 
     23 H         -36.6723   63.3622  -31.8340 H         1 AJZ1004     0.0000 
     24 H         -32.5004   63.1768  -39.9191 H         1 AJZ1004     0.0000 
     25 H         -36.3012   65.2328  -30.3316 H         1 AJZ1004     0.0000 
     26 H         -35.7271   63.3991  -34.0646 H         1 AJZ1004     0.0000 
     27 H         -33.5649   62.3062  -37.7572 H         1 AJZ1004     0.0000 
     28 H         -34.0148   67.1477  -33.2841 H         1 AJZ1004     0.0000 
     29 H         -31.5716   69.9944  -36.1314 H         1 AJZ1004     0.0000 
     30 H         -32.9643   71.0847  -36.0230 H         1 AJZ1004     0.0000 
     31 H         -31.3017   69.7725  -39.5353 H         1 AJZ1004     0.0000 
     32 H         -30.6180   69.5083  -37.9220 H         1 AJZ1004     0.0000 
     33 H         -34.4480   69.3518  -36.7509 H         1 AJZ1004     0.0000 
     34 H         -33.5200   68.7744  -35.3560 H         1 AJZ1004     0.0000 
     35 H         -31.3543   67.4066  -38.5372 H         1 AJZ1004     0.0000 
     36 H         -32.8078   68.0253  -39.3400 H         1 AJZ1004     0.0000 
     37 H         -35.5066   67.2882  -30.1145 H         1 AJZ1004     0.0000 
@<TRIPOS>BOND
     1    2    1 ar   
     2    6    1 ar   
     3    3    2 ar   
     4   21    2 1    
     5    4    3 ar   
     6    5    4 ar   
     7   12    4 1    
     8    6    5 ar   
     9   19    5 1    
    10   22    6 1    
    11   20    7 1    
    12   37    7 1    
    13   10    8 ar   
    14   11    8 ar   
    15   23    8 1    
    16   12    9 2    
    17   19    9 1    
    18   24    9 1    
    19   20   10 ar   
    20   25   10 1    
    21   21   11 ar   
    22   26   11 1    
    23   27   12 1    
    24   20   13 ar   
    25   21   13 ar   
    26   28   13 1    
    27   16   14 1    
    28   18   14 1    
    29   29   14 1    
    30   30   14 1    
    31   17   15 1    
    32   18   15 1    
    33   31   15 1    
    34   32   15 1    
    35   22   16 1    
    36   33   16 1    
    37   34   16 1    
    38   22   17 1    
    39   35   17 1    
    40   36   17 1    
@<TRIPOS>SUBSTRUCTURE
     1 AJZ1004     1 GROUP   
@<TRIPOS>SET

