#    Name: 1x8l_OXR_1_INTS_M
#    Modification time : Mon Apr  7 15:08:05 2014

@<TRIPOS>MOLECULE
1x8l_OXR_1_INTS_M
   59     0     9     0     0
SMALL
NO_CHARGES


@<TRIPOS>ATOM
      1 CA         26.1955  -11.5805   41.3880 C.3       3 GLC5        0.0000 
      2 CA         24.7130  -10.5410   41.9320 C.3       9 GLL5        0.0000 
      3 CA         27.6780  -12.6200   40.8440 C.3       6 GLP5        0.0000 
      4 CA         24.8215  -11.4670   44.4545 C.3       3 GLC5        0.0000 
      5 CA         23.7300  -11.4300   42.6680 C.3       9 GLL5        0.0000 
      6 CA         25.9130  -11.5040   46.2410 C.3       6 GLP5        0.0000 
      7 CA         21.0730  -10.7550   45.6610 C.3       3 GLC5        0.0000 
      8 CA         21.8440  -10.8980   44.1820 C.3       9 GLL5        0.0000 
      9 CA         20.3020  -10.6120   47.1400 C.3       6 GLP5        0.0000 
     10 CA         21.8205   -9.1705   45.1590 C.3       3 GLC5        0.0000 
     11 CA         21.7970   -7.4430   46.1360 C.3       6 GLP5        0.0000 
     12 CA         21.3220  -13.6685   40.6790 C.3       3 GLC5        0.0000 
     13 CA         21.4340  -12.1860   42.0310 C.3       9 GLL5        0.0000 
     14 CA         21.2100  -15.1510   39.3270 C.3       6 GLP5        0.0000 
     15 CA         22.6435  -13.4160   43.0460 C.3       3 GLC5        0.0000 
     16 CA         23.8530  -14.6460   44.0610 C.3       6 GLP5        0.0000 
     17 CA         19.9640  -13.8230   42.2310 C.3       3 GLC5        0.0000 
     18 CA         18.4940  -15.4600   42.4310 C.3       6 GLP5        0.0000 
     19 CA         22.0145   -5.8875   40.4250 C.3       3 GLC5        0.0000 
     20 CA         22.3230   -7.7350   40.6470 C.3       9 GLL5        0.0000 
     21 CA         21.7060   -4.0400   40.2030 C.3       6 GLP5        0.0000 
     22 CA         22.7250   -6.7980   38.7750 C.3       3 GLC5        0.0000 
     23 CA         23.1270   -5.8610   36.9030 C.3       6 GLP5        0.0000 
     24 CA         19.3535   -9.9645   39.8215 C.3       3 GLC5        0.0000 
     25 CA         19.5850   -8.6470   41.5130 C.3       9 GLL5        0.0000 
     26 CA         19.1220  -11.2820   38.1300 C.3       6 GLP5        0.0000 
     27 CA         19.9545   -6.6110   41.8550 C.3       3 GLC5        0.0000 
     28 CA         20.3240   -4.5750   42.1970 C.3       6 GLP5        0.0000 
     29 CA         11.3415   -6.2950   40.7695 C.3       3 GLC5        0.0000 
     30 CA         13.3670   -6.1880   41.5490 C.3       9 GLL5        0.0000 
     31 CA          9.3160   -6.4020   39.9900 C.3       6 GLP5        0.0000 
     32 CA         13.6305   -5.3225   43.5695 C.3       3 GLC5        0.0000 
     33 CA         13.8940   -4.4570   45.5900 C.3       6 GLP5        0.0000 
     34 CA         15.0930   -2.9680   39.2790 C.3       3 GLC5        0.0000 
     35 CA         14.0110   -4.6650   39.7020 C.3       9 GLL5        0.0000 
     36 CA         16.1750   -1.2710   38.8560 C.3       6 GLP5        0.0000 
     37 CA         10.9550   -5.2505   39.8090 C.3       3 GLC5        0.0000 
     38 CA         12.5940   -4.0990   39.6280 C.3       9 GLL5        0.0000 
     39 N          10.9300   -5.3700   39.9920 N.am      2 SEC2        0.0000 
     40 N          11.6650   -4.9770   38.9950 N.am      8 SEL2        0.0000 
     41 N          10.1950   -5.7630   40.9890 N.am      5 SEP2        0.0000 
     42 N          10.9130   -5.0735   37.7870 N.am      2 SEC2        0.0000 
     43 N          10.1610   -5.1700   36.5790 N.am      5 SEP2        0.0000 
     44 N          11.3445   -3.6680   38.2950 N.am      2 SEC2        0.0000 
     45 N          11.0240   -2.3590   37.5950 N.am      5 SEP2        0.0000 
     46 O          12.2290   -6.4325   38.2365 O.2       1 ALC1        0.0000 
     47 O          11.6650   -4.9770   38.9950 O.2       7 ALL1        0.0000 
     48 O          12.7930   -7.8880   37.4780 O.2       4 ALP1        0.0000 
     49 CA         23.1336  -12.8590   43.7485 C.3       3 GLC5        0.0000 
     50 CA         22.2390  -11.0620   42.7120 C.3       9 GLL5        0.0000 
     51 CA         14.2485   -7.7308   40.2510 C.3       3 GLC5        0.0000 
     52 CA         15.7470   -6.1100   40.5310 C.3       9 GLL5        0.0000 
     53 CA         12.5600   -8.8030   39.6450 C.3       6 GLP5        0.0000 
     54 CA         17.7569   -5.5400   40.4134 C.3       3 GLC5        0.0000 
     55 CA         19.2270   -4.3360   39.9990 C.3       6 GLP5        0.0000 
     56 CA         13.2489   -7.0449   40.0119 C.3       3 GLC5        0.0000 
     57 CA         13.4236   -3.0840   40.9450 C.3       3 GLC5        0.0000 
     58 CA         14.3620   -5.6290   40.5620 C.3       9 GLL5        0.0000 
     59 CA         13.4570   -1.5450   42.0100 C.3       6 GLP5        0.0000 
@<TRIPOS>BOND
@<TRIPOS>SUBSTRUCTURE
     1 ALC1       46 GROUP        1 X    ALC  0     ROOT ALC X 1
     2 SEC2       39 GROUP        1 X    SEC  0     **** SEC X 2
     3 GLC5        1 GROUP        1 X    GLC  0     **** GLC X 6
     4 ALP1       48 GROUP        1 Y    ALP  0     ROOT ALP Y 8
     5 SEP2       41 GROUP        1 Y    SEP  0     **** SEP Y 9
     6 GLP5        3 GROUP        1 Y    GLP  0     **** GLP Y 13
     7 ALL1       47 GROUP        1 Z    ALL  0     ROOT ALL Z 15
     8 SEL2       40 GROUP        1 Z    SEL  0     **** SEL Z 16
     9 GLL5        2 GROUP        1 Z    GLL  0     **** GLL Z 20
@<TRIPOS>SET

