#    Name: 1x8l_OXR_1_ligand
#    Modification time : Mon Apr  7 15:08:05 2014

@<TRIPOS>MOLECULE
1x8l_OXR_1_ligand
   50    50     1     0     0
SMALL
NO_CHARGES


@<TRIPOS>ATOM
      1 O2         24.9080   -8.6040   40.6980 O.2       1 OXR1102     0.0000 
      2 C4         24.1270   -9.3240   41.2940 C.2       1 OXR1102     0.0000 
      3 C3         24.7130  -10.5410   41.9320 C.3       1 OXR1102     0.0000 
      4 C2         23.7300  -11.4300   42.6680 C.3       1 OXR1102     0.0000 
      5 C1         22.2390  -11.0620   42.7120 C.3       1 OXR1102     0.0000 
      6 C17        21.8440  -10.8980   44.1820 C.3       1 OXR1102     0.0000 
      7 C16        21.4340  -12.1860   42.0310 C.3       1 OXR1102     0.0000 
      8 C5         22.7050   -9.0000   41.3530 C.2       1 OXR1102     0.0000 
      9 C18        22.3230   -7.7350   40.6470 C.3       1 OXR1102     0.0000 
     10 C6         21.8140   -9.7890   41.9980 C.2       1 OXR1102     0.0000 
     11 C7         20.3400   -9.5520   42.1280 C.2       1 OXR1102     0.0000 
     12 C8         19.5850   -8.6470   41.5130 C.2       1 OXR1102     0.0000 
     13 C9         18.1210   -8.5300   41.7560 C.2       1 OXR1102     0.0000 
     14 C19        17.3320   -9.3820   42.7260 C.3       1 OXR1102     0.0000 
     15 C10        17.5260   -7.5490   41.0660 C.2       1 OXR1102     0.0000 
     16 C11        16.1270   -7.2070   41.1830 C.2       1 OXR1102     0.0000 
     17 C12        15.7470   -6.1100   40.5310 C.2       1 OXR1102     0.0000 
     18 C13        14.3620   -5.6290   40.5620 C.2       1 OXR1102     0.0000 
     19 C20        13.3670   -6.1880   41.5490 C.3       1 OXR1102     0.0000 
     20 C14        14.0110   -4.6650   39.7020 C.2       1 OXR1102     0.0000 
     21 C15        12.5940   -4.0990   39.6280 C.3       1 OXR1102     0.0000 
     22 O1         11.6650   -4.9770   38.9950 O.3       1 OXR1102     0.0000 
     23 H          25.5129  -10.2346   42.6446 H         1 OXR1102     0.0000 
     24 H          25.2281  -11.1522   41.1557 H         1 OXR1102     0.0000 
     25 H          24.0857  -11.5505   43.7352 H         1 OXR1102     0.0000 
     26 H          23.8129  -12.4782   42.2503 H         1 OXR1102     0.0000 
     27 H          19.8828  -10.2417   42.8322 H         1 OXR1102     0.0000 
     28 H          19.9683   -7.9650   40.8248 H         1 OXR1102     0.0000 
     29 H          18.0789   -6.9619   40.3803 H         1 OXR1102     0.0000 
     30 H          15.5290   -7.7917   41.7308 H         1 OXR1102     0.0000 
     31 H          16.4087   -5.5374   39.9670 H         1 OXR1102     0.0000 
     32 H          14.6702   -4.2338   39.0269 H         1 OXR1102     0.0000 
     33 H          12.6544   -3.1234   39.0981 H         1 OXR1102     0.0000 
     34 H          12.2792   -3.8574   40.6667 H         1 OXR1102     0.0000 
     35 H          21.9874  -11.7405   44.7013 H         1 OXR1102     0.0000 
     36 H          22.3773  -10.1818   44.6322 H         1 OXR1102     0.0000 
     37 H          20.8798  -10.6524   44.2823 H         1 OXR1102     0.0000 
     38 H          21.7065  -12.3125   41.0772 H         1 OXR1102     0.0000 
     39 H          21.5608  -13.0648   42.4910 H         1 OXR1102     0.0000 
     40 H          20.4527  -11.9933   42.0324 H         1 OXR1102     0.0000 
     41 H          22.7928   -6.9396   41.0299 H         1 OXR1102     0.0000 
     42 H          22.5506   -7.7695   39.6739 H         1 OXR1102     0.0000 
     43 H          21.3415   -7.5551   40.7122 H         1 OXR1102     0.0000 
     44 H          17.3875  -10.3538   42.4969 H         1 OXR1102     0.0000 
     45 H          17.6650   -9.2824   43.6637 H         1 OXR1102     0.0000 
     46 H          16.3625   -9.1372   42.7317 H         1 OXR1102     0.0000 
     47 H          13.2402   -7.1729   41.4311 H         1 OXR1102     0.0000 
     48 H          13.6588   -6.0411   42.4941 H         1 OXR1102     0.0000 
     49 H          12.4673   -5.7628   41.4506 H         1 OXR1102     0.0000 
     50 H          12.2289   -5.6689   38.5443 H         1 OXR1102     0.0000 
@<TRIPOS>BOND
     1    2    1 2    
     2    3    2 1    
     3    8    2 1    
     4    4    3 1    
     5   23    3 1    
     6   24    3 1    
     7    5    4 1    
     8   25    4 1    
     9   26    4 1    
    10    6    5 1    
    11    7    5 1    
    12   10    5 1    
    13   35    6 1    
    14   36    6 1    
    15   37    6 1    
    16   38    7 1    
    17   39    7 1    
    18   40    7 1    
    19    9    8 1    
    20   10    8 2    
    21   41    9 1    
    22   42    9 1    
    23   43    9 1    
    24   11   10 1    
    25   12   11 2    
    26   27   11 1    
    27   13   12 1    
    28   28   12 1    
    29   14   13 1    
    30   15   13 2    
    31   44   14 1    
    32   45   14 1    
    33   46   14 1    
    34   16   15 1    
    35   29   15 1    
    36   17   16 2    
    37   30   16 1    
    38   18   17 1    
    39   31   17 1    
    40   19   18 1    
    41   20   18 2    
    42   47   19 1    
    43   48   19 1    
    44   49   19 1    
    45   21   20 1    
    46   32   20 1    
    47   22   21 1    
    48   33   21 1    
    49   34   21 1    
    50   50   22 1    
@<TRIPOS>SUBSTRUCTURE
     1 OXR1102     1 GROUP   
@<TRIPOS>SET

