#    Name: 4a6r_TA8_1_INTS_M
#    Modification time : Tue Mar 25 05:12:17 2014

@<TRIPOS>MOLECULE
4a6r_TA8_1_INTS_M
   28     0     6     0     0
SMALL
NO_CHARGES


@<TRIPOS>ATOM
      1 N          30.7275   10.1720   17.5255 N.am      1 SEC2        0.0000 
      2 N          30.6000   11.4460   17.4860 N.am      5 SEL2        0.0000 
      3 N          30.8550    8.8980   17.5650 N.am      3 SEP2        0.0000 
      4 N          29.2440   14.8915   20.6370 N.am      1 SEC2        0.0000 
      5 N          29.9820   15.0140   19.3840 N.am      5 SEL2        0.0000 
      6 N          28.5060   14.7690   21.8900 N.am      3 SEP2        0.0000 
      7 N          30.3020   13.9420   20.1985 N.am      1 SEC2        0.0000 
      8 N          30.6220   12.8700   21.0130 N.am      3 SEP2        0.0000 
      9 CA         31.7405   16.8935   20.2265 C.3       2 GLC5        0.0000 
     10 CA         33.2160   15.6070   19.3060 C.3       6 GLL5        0.0000 
     11 CA         30.2650   18.1800   21.1470 C.3       4 GLP5        0.0000 
     12 CA         38.2755   13.3715   19.7580 C.3       2 GLC5        0.0000 
     13 CA         36.5440   12.8620   20.7820 C.3       6 GLL5        0.0000 
     14 CA         40.0070   13.8810   18.7340 C.3       4 GLP5        0.0000 
     15 CA         32.4705   13.7280   21.4815 C.3       2 GLC5        0.0000 
     16 CA         34.3210   13.9140   20.6960 C.3       6 GLL5        0.0000 
     17 CA         30.6200   13.5420   22.2670 C.3       4 GLP5        0.0000 
     18 N          37.5875   13.2310   23.3380 N.am      1 SEC2        0.0000 
     19 N          35.9690   13.3540   23.8330 N.am      5 SEL2        0.0000 
     20 N          39.2060   13.1080   22.8430 N.am      3 SEP2        0.0000 
     21 N          33.9510   11.8135   21.6730 N.am      1 SEC2        0.0000 
     22 N          34.1870   12.3940   22.9940 N.am      5 SEL2        0.0000 
     23 N          33.7150   11.2330   20.3520 N.am      3 SEP2        0.0000 
     24 CA         31.6627   14.3567   20.6175 C.3       2 GLC5        0.0000 
     25 CA         32.1950   14.7360   18.6300 C.3       6 GLL5        0.0000 
     26 CA         34.4039   11.7147   20.6317 C.3       2 GLC5        0.0000 
     27 CA         35.5450   13.6920   21.5240 C.3       6 GLL5        0.0000 
     28 CA         33.6250    9.8340   20.3390 C.3       4 GLP5        0.0000 
@<TRIPOS>BOND
@<TRIPOS>SUBSTRUCTURE
     1 SEC2        1 GROUP        1 X    SEC  0     ROOT SEC X 2
     2 GLC5        9 GROUP        1 X    GLC  0     **** GLC X 6
     3 SEP2        3 GROUP        1 Y    SEP  0     ROOT SEP Y 9
     4 GLP5       11 GROUP        1 Y    GLP  0     **** GLP Y 13
     5 SEL2        2 GROUP        1 Z    SEL  0     ROOT SEL Z 16
     6 GLL5       10 GROUP        1 Z    GLL  0     **** GLL Z 20
@<TRIPOS>SET

