#    Name: 4a6r_TA8_1_ligand
#    Modification time : Tue Mar 25 05:12:18 2014

@<TRIPOS>MOLECULE
4a6r_TA8_1_ligand
   34    33     1     0     0
SMALL
NO_CHARGES


@<TRIPOS>ATOM
      1 O42        30.6000   11.4460   17.4860 O.co2     1 TA81460     0.0000 
      2 O41        32.7820   11.5200   17.6240 O.co2     1 TA81460     0.0000 
      3 C4         31.6920   12.0310   17.2530 C.2       1 TA81460     0.0000 
      4 C41        31.7090   13.3480   16.5580 C.3       1 TA81460     0.0000 
      5 C32        32.5450   14.4020   17.2130 C.3       1 TA81460     0.0000 
      6 C3         30.8800   15.4350   18.6210 C.2       1 TA81460     0.0000 
      7 O31        29.9820   15.0140   19.3840 O.co2     1 TA81460     0.0000 
      8 O32        30.6760   16.4360   17.8630 O.co2     1 TA81460     0.0000 
      9 C22        33.2160   15.6070   19.3060 C.3       1 TA81460     0.0000 
     10 C2         35.5270   15.9210   20.1360 C.2       1 TA81460     0.0000 
     11 O21        35.6340   17.0650   19.6230 O.co2     1 TA81460     0.0000 
     12 O22        36.2950   15.5860   21.0750 O.co2     1 TA81460     0.0000 
     13 C10        36.5440   12.8620   20.7820 C.3       1 TA81460     0.0000 
     14 C11        35.5450   13.6920   21.5240 C.3       1 TA81460     0.0000 
     15 C12        34.3210   13.9140   20.6960 C.3       1 TA81460     0.0000 
     16 C1         35.2150   13.1120   22.8520 C.2       1 TA81460     0.0000 
     17 O12        35.9690   13.3540   23.8330 O.co2     1 TA81460     0.0000 
     18 O11        34.1870   12.3940   22.9940 O.co2     1 TA81460     0.0000 
     19 C21        34.5120   14.9440   19.6380 C.3       1 TA81460     0.0000 
     20 C31        32.1950   14.7360   18.6300 C.3       1 TA81460     0.0000 
     21 H          30.6636   13.7246   16.4624 H         1 TA81460     0.0000 
     22 H          32.0650   13.2044   15.5109 H         1 TA81460     0.0000 
     23 H          32.4955   15.3362   16.5992 H         1 TA81460     0.0000 
     24 H          33.6187   14.0903   17.1703 H         1 TA81460     0.0000 
     25 H          33.4150   16.4942   18.6585 H         1 TA81460     0.0000 
     26 H          32.7692   16.0237   20.2402 H         1 TA81460     0.0000 
     27 H          36.0096   14.6888   21.6961 H         1 TA81460     0.0000 
     28 H          33.4857   14.2155   21.3557 H         1 TA81460     0.0000 
     29 H          34.0206   12.9578   20.2278 H         1 TA81460     0.0000 
     30 H          34.9064   14.4569   18.7522 H         1 TA81460     0.0000 
     31 H          32.0835   13.8144   19.1922 H         1 TA81460     0.0000 
     32 H          36.8335   13.3013   19.9316 H         1 TA81460     0.0000 
     33 H          37.3687   12.7007   21.3241 H         1 TA81460     0.0000 
     34 H          36.1739   11.9657   20.5376 H         1 TA81460     0.0000 
@<TRIPOS>BOND
     1    3    1 ar   
     2    3    2 ar   
     3    4    3 1    
     4    5    4 1    
     5   21    4 1    
     6   22    4 1    
     7   20    5 1    
     8   23    5 1    
     9   24    5 1    
    10    7    6 ar   
    11    8    6 ar   
    12   20    6 1    
    13   19    9 1    
    14   20    9 1    
    15   25    9 1    
    16   26    9 1    
    17   11   10 ar   
    18   12   10 ar   
    19   19   10 1    
    20   14   13 1    
    21   32   13 1    
    22   33   13 1    
    23   34   13 1    
    24   15   14 1    
    25   16   14 1    
    26   27   14 1    
    27   19   15 1    
    28   28   15 1    
    29   29   15 1    
    30   17   16 ar   
    31   18   16 ar   
    32   30   19 1    
    33   31   20 1    
@<TRIPOS>SUBSTRUCTURE
     1 TA81460     1 GROUP   
@<TRIPOS>SET

