#    Name: 3ZWI_1_CAVITY_N1_6.mol2
#    Modification time : Tue Mar 11 15:44:33 2014

@<TRIPOS>MOLECULE
3ZWI_1_CAVITY_N1_6.mol2
   34     0     4     0     0
SMALL
NO_CHARGES


@<TRIPOS>ATOM
      1 CZ         14.4970   30.0679   44.9324 C.ar      2 PHE5        0.0000 
      2 CZ         13.5828   30.2848   46.1017 C.ar      2 PHE5        0.0000 
      3 CA         15.7021   30.8030   41.8897 C.3       3 GLY6        0.0000 
      4 CA         14.7879   31.0198   43.0591 C.3       3 GLY6        0.0000 
      5 DU         13.8738   31.2367   44.2284 H         4 CUB7        0.0000 
      6 CA         12.9597   31.4536   45.3977 C.3       3 GLY6        0.0000 
      7 DU         14.1647   32.1886   42.3551 H         4 CUB7        0.0000 
      8 DU         13.2506   32.4055   43.5244 H         4 CUB7        0.0000 
      9 O          13.5415   33.3574   41.6511 O.2       1 ALA2        0.0000 
     10 DU         12.6274   33.5743   42.8205 H         4 CUB7        0.0000 
     11 CA         13.7750   30.1050   42.4369 C.3       3 GLY6        0.0000 
     12 CA         12.8609   30.3219   43.6062 C.3       3 GLY6        0.0000 
     13 CA         11.9467   30.5388   44.7755 C.3       3 GLY6        0.0000 
     14 CA         13.1518   31.2738   41.7329 C.3       3 GLY6        0.0000 
     15 CA         12.2377   31.4907   42.9022 C.3       3 GLY6        0.0000 
     16 DU         11.6145   32.6595   42.1983 H         4 CUB7        0.0000 
     17 O          10.9913   33.8283   41.4943 O.2       1 ALA2        0.0000 
     18 CA          9.1630   34.2620   43.8330 C.3       3 GLY6        0.0000 
     19 O          10.3681   34.9971   40.7904 O.2       1 ALA2        0.0000 
     20 CA         12.1389   30.3590   41.1107 C.3       3 GLY6        0.0000 
     21 CA         11.2248   30.5759   42.2801 C.3       3 GLY6        0.0000 
     22 CA         10.3106   30.7928   43.4494 C.3       3 GLY6        0.0000 
     23 N          11.5157   31.5278   40.4068 N.2       1 ALA2        0.0000 
     24 CA         10.6016   31.7447   41.5761 C.3       3 GLY6        0.0000 
     25 N           9.6874   31.9615   42.7454 N.2       1 ALA2        0.0000 
     26 N           9.9784   32.9135   40.8721 N.2       1 ALA2        0.0000 
     27 N           9.0643   33.1303   42.0415 N.2       1 ALA2        0.0000 
     28 CA          9.3552   34.0823   40.1682 C.3       3 GLY6        0.0000 
     29 CA         12.0401   29.2273   39.3192 C.3       3 GLY6        0.0000 
     30 CA         11.1260   29.4442   40.4885 C.3       3 GLY6        0.0000 
     31 N          12.3311   30.1792   37.4459 N.2       1 ALA2        0.0000 
     32 N          11.4169   30.3961   38.6153 N.2       1 ALA2        0.0000 
     33 CA         10.5028   30.6130   39.7846 C.3       3 GLY6        0.0000 
     34 N           9.8796   31.7818   39.0806 N.2       1 ALA2        0.0000 
@<TRIPOS>BOND
@<TRIPOS>SUBSTRUCTURE
     1 ALA2        9 GROUP   
     2 PHE5        1 GROUP   
     3 GLY6        3 GROUP   
     4 CUB7        5 GROUP   
@<TRIPOS>SET

