#    Name: 3zwi_ASC_1_INTS_M
#    Modification time : Tue Mar 25 04:02:28 2014

@<TRIPOS>MOLECULE
3zwi_ASC_1_INTS_M
    6     0     3     0     0
SMALL
NO_CHARGES


@<TRIPOS>ATOM
      1 CA         18.2170   28.8275   42.2645 C.3       1 GLC5        0.0000 
      2 CA         18.2020   30.7740   42.6390 C.3       3 GLL5        0.0000 
      3 CA         18.2320   26.8810   41.8900 C.3       2 GLP5        0.0000 
      4 CA         16.2435   30.2256   41.2469 C.3       1 GLC5        0.0000 
      5 CA         17.1420   31.8650   42.7340 C.3       3 GLL5        0.0000 
      6 CA         15.1610   29.2740   39.7240 C.3       2 GLP5        0.0000 
@<TRIPOS>BOND
@<TRIPOS>SUBSTRUCTURE
     1 GLC5        1 GROUP        1 X    GLC  0     ROOT GLC X 6
     2 GLP5        3 GROUP        1 Y    GLP  0     ROOT GLP Y 13
     3 GLL5        2 GROUP        1 Z    GLL  0     ROOT GLL Z 20
@<TRIPOS>SET

