#    Name: 3zwi_ASC_1_ligand
#    Modification time : Tue Mar 25 04:02:28 2014

@<TRIPOS>MOLECULE
3zwi_ASC_1_ligand
   20    20     1     0     0
SMALL
NO_CHARGES


@<TRIPOS>ATOM
      1 C1         14.7100   31.4730   45.0600 C.2       1 ASC156      0.0000 
      2 C2         14.1880   32.5090   44.3020 C.2       1 ASC156      0.0000 
      3 C3         14.7580   32.4780   43.0740 C.2       1 ASC156      0.0000 
      4 C4         15.7580   31.2960   43.0670 C.3       1 ASC156      0.0000 
      5 C5         17.1420   31.8650   42.7340 C.3       1 ASC156      0.0000 
      6 C6         18.2020   30.7740   42.6390 C.3       1 ASC156      0.0000 
      7 O1         14.3790   31.1650   46.2070 O.2       1 ASC156      0.0000 
      8 O2         13.2220   33.3200   44.7960 O.3       1 ASC156      0.0000 
      9 O3         14.6030   33.2150   41.9500 O.3       1 ASC156      0.0000 
     10 O4         15.7020   30.8360   44.4040 O.3       1 ASC156      0.0000 
     11 O5         17.5130   32.8620   43.7120 O.3       1 ASC156      0.0000 
     12 O6         19.4330   31.4230   42.2300 O.3       1 ASC156      0.0000 
     13 H          15.4507   30.6055   42.3638 H         1 ASC156      0.0000 
     14 H          17.0647   32.3380   41.7433 H         1 ASC156      0.0000 
     15 H          17.8781   30.0438   41.9101 H         1 ASC156      0.0000 
     16 H          18.3032   30.3088   43.6099 H         1 ASC156      0.0000 
     17 H          13.1721   33.0993   45.7701 H         1 ASC156      0.0000 
     18 H          15.3808   33.8434   41.9434 H         1 ASC156      0.0000 
     19 H          16.9909   33.6772   43.4612 H         1 ASC156      0.0000 
     20 H          19.4452   32.2910   42.7265 H         1 ASC156      0.0000 
@<TRIPOS>BOND
     1    2    1 1    
     2    7    1 2    
     3   10    1 1    
     4    3    2 2    
     5    8    2 1    
     6    4    3 1    
     7    9    3 1    
     8    5    4 1    
     9   10    4 1    
    10   13    4 1    
    11    6    5 1    
    12   11    5 1    
    13   14    5 1    
    14   12    6 1    
    15   15    6 1    
    16   16    6 1    
    17   17    8 1    
    18   18    9 1    
    19   19   11 1    
    20   20   12 1    
@<TRIPOS>SUBSTRUCTURE
     1 ASC156      1 GROUP   
@<TRIPOS>SET

