#    Name: 4ap7_F47_1_INTS_M
#    Modification time : Tue Mar 25 06:00:22 2014

@<TRIPOS>MOLECULE
4ap7_F47_1_INTS_M
   47     0     6     0     0
SMALL
NO_CHARGES


@<TRIPOS>ATOM
      1 N          17.0565   12.1325   36.2350 N.am      1 SEC2        0.0000 
      2 N          17.6670   11.2910   37.2000 N.am      5 SEL2        0.0000 
      3 N          16.4460   12.9740   35.2700 N.am      3 SEP2        0.0000 
      4 CA         19.6515   12.9060   41.1745 C.3       2 GLC5        0.0000 
      5 CA         18.2290   12.4830   42.6270 C.3       6 GLL5        0.0000 
      6 CA         21.0740   13.3290   39.7220 C.3       4 GLP5        0.0000 
      7 CA         24.0570    9.9380   38.2400 C.3       2 GLC5        0.0000 
      8 CA         22.9390    8.5490   38.9250 C.3       6 GLL5        0.0000 
      9 CA         25.1750   11.3270   37.5550 C.3       4 GLP5        0.0000 
     10 CA         24.5470   10.0290   39.6000 C.3       2 GLC5        0.0000 
     11 CA         23.2720    8.6140   40.2710 C.3       6 GLL5        0.0000 
     12 CA         25.8220   11.4440   38.9290 C.3       4 GLP5        0.0000 
     13 N          25.7515    8.9500   39.7790 N.am      1 SEC2        0.0000 
     14 N          24.6220    8.6610   40.6300 N.am      5 SEL2        0.0000 
     15 N          26.8810    9.2390   38.9280 N.am      3 SEP2        0.0000 
     16 CA         18.4705    7.1020   40.3450 C.3       2 GLC5        0.0000 
     17 CA         19.0900    8.4520   39.0130 C.3       6 GLL5        0.0000 
     18 CA         17.8510    5.7520   41.6770 C.3       4 GLP5        0.0000 
     19 CA         17.1205    8.7595   39.4120 C.3       2 GLC5        0.0000 
     20 CA         15.1510    9.0670   39.8110 C.3       4 GLP5        0.0000 
     21 CA         20.6110   11.8545   41.9295 C.3       2 GLC5        0.0000 
     22 CA         19.0280   11.5680   43.3570 C.3       6 GLL5        0.0000 
     23 CA         22.1940   12.1410   40.5020 C.3       4 GLP5        0.0000 
     24 CA         19.2760   14.4138   42.8210 C.3       2 GLC5        0.0000 
     25 CA         17.6270   13.6240   43.2750 C.3       6 GLL5        0.0000 
     26 CA         20.6240   15.7740   42.6910 C.3       4 GLP5        0.0000 
     27 CA         19.4367   14.5590   43.8405 C.3       2 GLC5        0.0000 
     28 CA         17.8580   13.7960   44.6440 C.3       6 GLL5        0.0000 
     29 CA         16.1980   12.6659   43.3863 C.3       2 GLC5        0.0000 
     30 CA         14.5030   11.9070   42.9750 C.3       4 GLP5        0.0000 
     31 CA         22.2100    6.8793   38.9412 C.3       2 GLC5        0.0000 
     32 CA         20.4960    8.5090   39.4520 C.3       6 GLL5        0.0000 
     33 CA         23.3780    5.2560   38.9120 C.3       4 GLP5        0.0000 
     34 CA         21.6180   10.3217   39.7362 C.3       2 GLC5        0.0000 
     35 CA         21.5880    8.4960   38.4890 C.3       6 GLL5        0.0000 
     36 CA         22.6497   10.3613   40.0500 C.3       2 GLC5        0.0000 
     37 CA         23.3047    7.0728   41.7823 C.3       2 GLC5        0.0000 
     38 CA         23.8740    5.5240   42.8100 C.3       4 GLP5        0.0000 
     39 CA         20.8095    6.7791   40.9776 C.3       2 GLC5        0.0000 
     40 CA         22.1990    8.6290   41.2380 C.3       6 GLL5        0.0000 
     41 CA         20.1950    4.9720   41.2590 C.3       4 GLP5        0.0000 
     42 CA         23.0151    6.9306   39.6650 C.3       2 GLC5        0.0000 
     43 CA         21.8472   10.3723   40.7748 C.3       2 GLC5        0.0000 
     44 CA         19.7665    7.4306   37.3744 C.3       2 GLC5        0.0000 
     45 CA         19.4670    6.3840   35.7570 C.3       4 GLP5        0.0000 
     46 CA         18.8407    9.6997   44.6380 C.3       2 GLC5        0.0000 
     47 CA         18.5430    7.7360   45.2310 C.3       4 GLP5        0.0000 
@<TRIPOS>BOND
@<TRIPOS>SUBSTRUCTURE
     1 SEC2        1 GROUP        1 X    SEC  0     ROOT SEC X 2
     2 GLC5        4 GROUP        1 X    GLC  0     **** GLC X 6
     3 SEP2        3 GROUP        1 Y    SEP  0     ROOT SEP Y 9
     4 GLP5        6 GROUP        1 Y    GLP  0     **** GLP Y 13
     5 SEL2        2 GROUP        1 Z    SEL  0     ROOT SEL Z 16
     6 GLL5        5 GROUP        1 Z    GLL  0     **** GLL Z 20
@<TRIPOS>SET

