#    Name: 4ap7_F47_1_ligand
#    Modification time : Tue Mar 25 06:00:22 2014

@<TRIPOS>MOLECULE
4ap7_F47_1_ligand
   36    39     1     0     0
SMALL
NO_CHARGES


@<TRIPOS>ATOM
      1 F24        18.8220   13.1340   46.6860 F         1 F472345     0.0000 
      2 N5         18.2260   10.7990   39.2100 N.pl3     1 F472345     0.0000 
      3 N7         17.6670   11.2910   37.2000 N.2       1 F472345     0.0000 
      4 C18        18.2290   12.4830   42.6270 C.ar      1 F472345     0.0000 
      5 C23        17.6270   13.6240   43.2750 C.ar      1 F472345     0.0000 
      6 C22        17.8580   13.7960   44.6440 C.ar      1 F472345     0.0000 
      7 C1         18.0370   12.2320   41.1500 C.2       1 F472345     0.0000 
      8 C2         17.4940   13.2090   40.2520 C.2       1 F472345     0.0000 
      9 C6         17.7020   11.7930   38.4410 C.2       1 F472345     0.0000 
     10 C11        20.4960    8.5090   39.4520 C.ar      1 F472345     0.0000 
     11 C13        22.9390    8.5490   38.9250 C.ar      1 F472345     0.0000 
     12 N3         17.3410   12.9750   38.9510 N.2       1 F472345     0.0000 
     13 C15        22.1990    8.6290   41.2380 C.ar      1 F472345     0.0000 
     14 C12        21.5880    8.4960   38.4890 C.ar      1 F472345     0.0000 
     15 C14        23.2720    8.6140   40.2710 C.ar      1 F472345     0.0000 
     16 O17        24.6220    8.6610   40.6300 O.3       1 F472345     0.0000 
     17 C16        20.8020    8.5780   40.8570 C.ar      1 F472345     0.0000 
     18 C10        19.0900    8.4520   39.0130 C.3       1 F472345     0.0000 
     19 C9         18.4950    9.7480   38.4780 C.2       1 F472345     0.0000 
     20 N4         18.4010   11.0270   40.6290 N.2       1 F472345     0.0000 
     21 N8         18.1660   10.0290   37.2750 N.2       1 F472345     0.0000 
     22 C19        19.0280   11.5680   43.3570 C.ar      1 F472345     0.0000 
     23 C20        19.2490   11.7590   44.7330 C.ar      1 F472345     0.0000 
     24 C21        18.6410   12.8920   45.3360 C.ar      1 F472345     0.0000 
     25 H          17.0644   14.2612   42.7424 H         1 F472345     0.0000 
     26 H          17.4397   14.6015   45.1307 H         1 F472345     0.0000 
     27 H          17.2206   14.1277   40.6782 H         1 F472345     0.0000 
     28 H          23.6871    8.5381   38.2072 H         1 F472345     0.0000 
     29 H          22.4345    8.6779   42.2387 H         1 F472345     0.0000 
     30 H          21.3653    8.4482   37.4976 H         1 F472345     0.0000 
     31 H          20.0847    8.5904   41.5436 H         1 F472345     0.0000 
     32 H          18.4439    8.1008   39.8573 H         1 F472345     0.0000 
     33 H          18.9720    7.6683   38.2221 H         1 F472345     0.0000 
     34 H          19.4441   10.7659   42.8765 H         1 F472345     0.0000 
     35 H          19.8095   11.1273   45.2696 H         1 F472345     0.0000 
     36 H          24.6273    8.9900   41.5743 H         1 F472345     0.0000 
@<TRIPOS>BOND
     1   24    1 1    
     2    9    2 1    
     3   19    2 1    
     4   20    2 1    
     5    9    3 2    
     6   21    3 1    
     7    5    4 ar   
     8    7    4 1    
     9   22    4 ar   
    10    6    5 ar   
    11   25    5 1    
    12   24    6 ar   
    13   26    6 1    
    14    8    7 1    
    15   20    7 2    
    16   12    8 2    
    17   27    8 1    
    18   12    9 1    
    19   14   10 ar   
    20   17   10 ar   
    21   18   10 1    
    22   14   11 ar   
    23   15   11 ar   
    24   28   11 1    
    25   15   13 ar   
    26   17   13 ar   
    27   29   13 1    
    28   30   14 1    
    29   16   15 1    
    30   36   16 1    
    31   31   17 1    
    32   19   18 1    
    33   32   18 1    
    34   33   18 1    
    35   21   19 2    
    36   23   22 ar   
    37   34   22 1    
    38   24   23 ar   
    39   35   23 1    
@<TRIPOS>SUBSTRUCTURE
     1 F472345     1 GROUP   
@<TRIPOS>SET

