#    Name: 1z7e_UGA_3_INTS_M
#    Modification time : Tue Mar 25 11:34:26 2014

@<TRIPOS>MOLECULE
1z7e_UGA_3_INTS_M
   85     0    12     0     0
SMALL
NO_CHARGES


@<TRIPOS>ATOM
      1 CA        143.4480   -4.8755  101.0465 C.3       4 GLC5        0.0000 
      2 CA        141.6880   -5.9140  100.8710 C.3      12 GLL5        0.0000 
      3 CA        145.2080   -3.8370  101.2220 C.3       8 GLP5        0.0000 
      4 CA        143.6790   -4.8935   99.8410 C.3       4 GLC5        0.0000 
      5 CA        141.6520   -5.0650   99.5880 C.3      12 GLL5        0.0000 
      6 CA        145.7060   -4.7220  100.0940 C.3       8 GLP5        0.0000 
      7 O         142.8725   -3.2975   98.5825 O.2       1 ALC1        0.0000 
      8 O         142.5750   -3.9970   99.6990 O.2       9 ALL1        0.0000 
      9 O         143.1700   -2.5980   97.4660 O.2       5 ALP1        0.0000 
     10 CA        139.1835   -2.6855   99.9085 C.3       4 GLC5        0.0000 
     11 CA        140.2770   -4.4720   99.3030 C.3      12 GLL5        0.0000 
     12 CA        138.0900   -0.8990  100.5140 C.3       8 GLP5        0.0000 
     13 CA        140.1220   -2.8960   98.0460 C.3       4 GLC5        0.0000 
     14 CA        139.9670   -1.3200   96.7890 C.3       8 GLP5        0.0000 
     15 O         141.7230   -3.2695   97.7280 O.2       1 ALC1        0.0000 
     16 O         140.2760   -3.9410   97.9900 O.2       9 ALL1        0.0000 
     17 N         137.3525   -3.9445   98.6855 N.am      2 SEC2        0.0000 
     18 N         137.9270   -4.9590   99.1810 N.am     10 SEL2        0.0000 
     19 N         136.7780   -2.9300   98.1900 N.am      6 SEP2        0.0000 
     20 N         136.2480   -5.9220  101.5635 N.am      2 SEC2        0.0000 
     21 N         137.0950   -7.0420  101.2430 N.am     10 SEL2        0.0000 
     22 N         135.4010   -4.8020  101.8840 N.am      6 SEP2        0.0000 
     23 N         136.6320   -8.1965  101.6650 N.am      2 SEC2        0.0000 
     24 N         136.1690   -9.3510  102.0870 N.am      6 SEP2        0.0000 
     25 N         140.3160   -7.5930  103.9885 N.am      2 SEC2        0.0000 
     26 N         141.1130   -6.5780  103.9530 N.am     10 SEL2        0.0000 
     27 N         139.5190   -8.6080  104.0240 N.am      6 SEP2        0.0000 
     28 N         140.5450   -6.1820  105.3770 N.am      2 SEC2        0.0000 
     29 N         139.9770   -5.7860  106.8010 N.am      6 SEP2        0.0000 
     30 N         139.5790   -5.7815  103.8245 N.am      2 SEC2        0.0000 
     31 N         138.0450   -4.9850  103.6960 N.am      6 SEP2        0.0000 
     32 NZ        142.0155   -2.6845  103.8875 N.4       3 LYC4        0.0000 
     33 NZ        142.0990   -4.2200  104.3630 N.4      11 LYL4        0.0000 
     34 NZ        142.9840   -0.4770  103.8690 N.4       7 LYP4        0.0000 
     35 NZ        141.7565   -4.1515  105.8650 N.4       3 LYC4        0.0000 
     36 NZ        140.4420   -4.9230  107.7040 N.4       7 LYP4        0.0000 
     37 N         142.0155   -2.6845  103.8875 N.am      2 SEC2        0.0000 
     38 N         142.0990   -4.2200  104.3630 N.am     10 SEL2        0.0000 
     39 N         141.9320   -1.1490  103.4120 N.am      6 SEP2        0.0000 
     40 N         141.7565   -4.1515  105.8650 N.am      2 SEC2        0.0000 
     41 N         141.4140   -4.0830  107.3670 N.am      6 SEP2        0.0000 
     42 N         145.8690   -8.9260  103.2030 N.am      2 SEC2        0.0000 
     43 N         145.6160   -7.2810  103.0270 N.am     10 SEL2        0.0000 
     44 N         146.1220  -10.5710  103.3790 N.am      6 SEP2        0.0000 
     45 CA        144.6530   -9.0475  106.0430 C.3       4 GLC5        0.0000 
     46 CA        143.6850   -7.2770  106.3010 C.3      12 GLL5        0.0000 
     47 CA        145.6210  -10.8180  105.7850 C.3       8 GLP5        0.0000 
     48 CA        143.3625   -8.4785  107.9060 C.3       4 GLC5        0.0000 
     49 CA        143.0400   -9.6800  109.5110 C.3       8 GLP5        0.0000 
     50 CA        144.1175   -7.7550  108.9955 C.3       4 GLC5        0.0000 
     51 CA        144.4580   -6.6370  107.4230 C.3      12 GLL5        0.0000 
     52 CA        143.7770   -8.8730  110.5680 C.3       8 GLP5        0.0000 
     53 CA        147.2425   -4.7355  105.9350 C.3       4 GLC5        0.0000 
     54 CA        145.4640   -5.6110  106.9360 C.3      12 GLL5        0.0000 
     55 CA        149.0210   -3.8600  104.9340 C.3       8 GLP5        0.0000 
     56 O         145.4340   -3.1485  106.7540 O.2       1 ALC1        0.0000 
     57 O         144.8430   -4.3490  106.7470 O.2       9 ALL1        0.0000 
     58 O         146.0250   -1.9480  106.7610 O.2       5 ALP1        0.0000 
     59 CA        147.9485   -4.4120  107.0895 C.3       4 GLC5        0.0000 
     60 CA        146.4860   -5.5650  108.0580 C.3      12 GLL5        0.0000 
     61 CA        149.4110   -3.2590  106.1210 C.3       8 GLP5        0.0000 
     62 N         145.7355   -4.9885  110.4750 N.am      2 SEC2        0.0000 
     63 N         146.1270   -4.7050  109.1000 N.am     10 SEL2        0.0000 
     64 N         145.3440   -5.2720  111.8500 N.am      6 SEP2        0.0000 
     65 CA        145.1180   -7.9385  109.5640 C.3       4 GLC5        0.0000 
     66 CA        146.4590   -7.0040  108.5600 C.3      12 GLL5        0.0000 
     67 CA        146.7540   -9.4450  106.3055 C.3       4 GLC5        0.0000 
     68 CA        147.8870   -8.0720  106.8260 C.3      12 GLL5        0.0000 
     69 N         149.2205   -7.1250  111.1605 N.am      2 SEC2        0.0000 
     70 N         148.3860   -7.7920  110.2980 N.am     10 SEL2        0.0000 
     71 N         150.0550   -6.4580  112.0230 N.am      6 SEP2        0.0000 
     72 O         150.4825   -9.1810  109.7830 O.2       1 ALC1        0.0000 
     73 O         149.6810   -8.7270  108.6980 O.2       9 ALL1        0.0000 
     74 O         151.2840   -9.6350  110.8680 O.2       5 ALP1        0.0000 
     75 CA        147.7705   -9.9755  105.5290 C.3       4 GLC5        0.0000 
     76 CA        148.9950   -8.7110  106.4300 C.3      12 GLL5        0.0000 
     77 CA        146.5460  -11.2400  104.6280 C.3       8 GLP5        0.0000 
     78 CA        150.3270  -10.1515  105.4845 C.3       4 GLC5        0.0000 
     79 CA        151.6590  -11.5920  104.5390 C.3       8 GLP5        0.0000 
     80 CA        142.4545   -7.2387   99.6097 C.3       4 GLC5        0.0000 
     81 CA        143.2390   -8.9880   98.9900 C.3       8 GLP5        0.0000 
     82 CA        148.0358   -5.4198  109.3805 C.3       4 GLC5        0.0000 
     83 CA        149.5990   -4.5550  110.4520 C.3       8 GLP5        0.0000 
     84 CA        149.6835   -7.2218  107.7565 C.3       4 GLC5        0.0000 
     85 CA        150.9260   -6.0520  108.8850 C.3       8 GLP5        0.0000 
@<TRIPOS>BOND
@<TRIPOS>SUBSTRUCTURE
     1 ALC1        7 GROUP        1 X    ALC  0     ROOT ALC X 1
     2 SEC2       17 GROUP        1 X    SEC  0     **** SEC X 2
     3 LYC4       32 GROUP        1 X    LYC  0     **** LYC X 4
     4 GLC5        1 GROUP        1 X    GLC  0     **** GLC X 6
     5 ALP1        9 GROUP        1 Y    ALP  0     ROOT ALP Y 8
     6 SEP2       19 GROUP        1 Y    SEP  0     **** SEP Y 9
     7 LYP4       34 GROUP        1 Y    LYP  0     **** LYP Y 11
     8 GLP5        3 GROUP        1 Y    GLP  0     **** GLP Y 13
     9 ALL1        8 GROUP        1 Z    ALL  0     ROOT ALL Z 15
    10 SEL2       18 GROUP        1 Z    SEL  0     **** SEL Z 16
    11 LYL4       33 GROUP        1 Z    LYL  0     **** LYL Z 18
    12 GLL5        2 GROUP        1 Z    GLL  0     **** GLL Z 20
@<TRIPOS>SET

