#    Name: 1z7e_UGA_3_ligand
#    Modification time : Tue Mar 25 11:34:26 2014

@<TRIPOS>MOLECULE
1z7e_UGA_3_ligand
   56    58     1     0     0
SMALL
NO_CHARGES


@<TRIPOS>ATOM
      1 C1'       141.6880   -5.9140  100.8710 C.3       1 UGA1103     0.0000 
      2 C2'       141.6520   -5.0650   99.5880 C.3       1 UGA1103     0.0000 
      3 O2'       142.5750   -3.9970   99.6990 O.3       1 UGA1103     0.0000 
      4 C3'       140.2770   -4.4720   99.3030 C.3       1 UGA1103     0.0000 
      5 O3'       140.2760   -3.9410   97.9900 O.3       1 UGA1103     0.0000 
      6 C4'       139.2080   -5.5300   99.3910 C.3       1 UGA1103     0.0000 
      7 O4'       137.9270   -4.9590   99.1810 O.3       1 UGA1103     0.0000 
      8 C5'       139.2680   -6.1940  100.7470 C.3       1 UGA1103     0.0000 
      9 O5'       140.5620   -6.8150  100.8860 O.3       1 UGA1103     0.0000 
     10 C6'       138.2280   -7.3200  100.7650 C.2       1 UGA1103     0.0000 
     11 O'P       138.3970   -8.3320   99.9880 O.co2     1 UGA1103     0.0000 
     12 O'Q       137.0950   -7.0420  101.2430 O.co2     1 UGA1103     0.0000 
     13 PB        142.0580   -5.4810  103.5500 P.3       1 UGA1103     0.0000 
     14 O1B       141.1130   -6.5780  103.9530 O.co2     1 UGA1103     0.0000 
     15 O2B       142.0990   -4.2200  104.3630 O.co2     1 UGA1103     0.0000 
     16 O3B       141.8340   -5.0080  101.9980 O.3       1 UGA1103     0.0000 
     17 O3A       143.5860   -5.9530  103.7290 O.3       1 UGA1103     0.0000 
     18 PA        144.3020   -7.4030  103.7440 P.3       1 UGA1103     0.0000 
     19 O1A       145.6160   -7.2810  103.0270 O.co2     1 UGA1103     0.0000 
     20 O2A       143.2930   -8.4010  103.2240 O.co2     1 UGA1103     0.0000 
     21 O5D       144.5900   -7.6930  105.2830 O.3       1 UGA1103     0.0000 
     22 C5D       143.6850   -7.2770  106.3010 C.3       1 UGA1103     0.0000 
     23 C4D       144.4580   -6.6370  107.4230 C.3       1 UGA1103     0.0000 
     24 O4D       145.3000   -7.6320  108.0380 O.3       1 UGA1103     0.0000 
     25 C3D       145.4640   -5.6110  106.9360 C.3       1 UGA1103     0.0000 
     26 O3D       144.8430   -4.3490  106.7470 O.3       1 UGA1103     0.0000 
     27 C2D       146.4860   -5.5650  108.0580 C.3       1 UGA1103     0.0000 
     28 O2D       146.1270   -4.7050  109.1000 O.3       1 UGA1103     0.0000 
     29 C1D       146.4590   -7.0040  108.5600 C.3       1 UGA1103     0.0000 
     30 N1        147.6560   -7.7410  108.1400 N.am      1 UGA1103     0.0000 
     31 C6        147.8870   -8.0720  106.8260 C.2       1 UGA1103     0.0000 
     32 C2        148.5610   -8.0690  109.1280 C.2       1 UGA1103     0.0000 
     33 O2        148.3860   -7.7920  110.2980 O.2       1 UGA1103     0.0000 
     34 N3        149.6810   -8.7270  108.6980 N.am      1 UGA1103     0.0000 
     35 C4        149.9880   -9.0840  107.4020 C.2       1 UGA1103     0.0000 
     36 O4        151.0420   -9.6930  107.1790 O.2       1 UGA1103     0.0000 
     37 C5        148.9950   -8.7110  106.4300 C.2       1 UGA1103     0.0000 
     38 H         142.6319   -6.5088  100.7747 H         1 UGA1103     0.0000 
     39 H         141.9179   -5.7098   98.7533 H         1 UGA1103     0.0000 
     40 H         140.0766   -3.7106  100.0329 H         1 UGA1103     0.0000 
     41 H         139.4243   -6.2879   98.6410 H         1 UGA1103     0.0000 
     42 H         139.0607   -5.5107  101.5039 H         1 UGA1103     0.0000 
     43 H         143.1218   -8.1246  106.7108 H         1 UGA1103     0.0000 
     44 H         142.9600   -6.5461  105.9219 H         1 UGA1103     0.0000 
     45 H         143.8205   -6.1944  108.1321 H         1 UGA1103     0.0000 
     46 H         145.9365   -5.9946  106.0676 H         1 UGA1103     0.0000 
     47 H         147.4413   -5.3925  107.6391 H         1 UGA1103     0.0000 
     48 H         146.4134   -6.9690  109.6440 H         1 UGA1103     0.0000 
     49 H         147.1538   -7.8057  106.1134 H         1 UGA1103     0.0000 
     50 H         150.4074   -8.9986  109.4544 H         1 UGA1103     0.0000 
     51 H         149.1770   -8.9539  105.4483 H         1 UGA1103     0.0000 
     52 H         142.5941   -3.5763   98.7920 H         1 UGA1103     0.0000 
     53 H         141.1761   -3.5193   97.8808 H         1 UGA1103     0.0000 
     54 H         137.6372   -4.6355  100.0817 H         1 UGA1103     0.0000 
     55 H         145.5448   -3.7761  106.3237 H         1 UGA1103     0.0000 
     56 H         145.3506   -4.1821  108.7480 H         1 UGA1103     0.0000 
@<TRIPOS>BOND
     1    2    1 1    
     2    9    1 1    
     3   16    1 1    
     4   38    1 1    
     5    3    2 1    
     6    4    2 1    
     7   39    2 1    
     8   52    3 1    
     9    5    4 1    
    10    6    4 1    
    11   40    4 1    
    12   53    5 1    
    13    7    6 1    
    14    8    6 1    
    15   41    6 1    
    16   54    7 1    
    17    9    8 1    
    18   10    8 1    
    19   42    8 1    
    20   11   10 ar   
    21   12   10 ar   
    22   14   13 ar   
    23   15   13 ar   
    24   16   13 1    
    25   17   13 1    
    26   18   17 1    
    27   19   18 ar   
    28   20   18 ar   
    29   21   18 1    
    30   22   21 1    
    31   23   22 1    
    32   43   22 1    
    33   44   22 1    
    34   24   23 1    
    35   25   23 1    
    36   45   23 1    
    37   29   24 1    
    38   26   25 1    
    39   27   25 1    
    40   46   25 1    
    41   55   26 1    
    42   28   27 1    
    43   29   27 1    
    44   47   27 1    
    45   56   28 1    
    46   30   29 1    
    47   48   29 1    
    48   31   30 1    
    49   32   30 1    
    50   37   31 2    
    51   49   31 1    
    52   33   32 2    
    53   34   32 1    
    54   35   34 1    
    55   50   34 1    
    56   36   35 2    
    57   37   35 1    
    58   51   37 1    
@<TRIPOS>SUBSTRUCTURE
     1 UGA1103     1 GROUP   
@<TRIPOS>SET

