#    Name: 4ax9_N5N_1_INTS_M
#    Modification time : Tue Mar 25 06:21:02 2014

@<TRIPOS>MOLECULE
4ax9_N5N_1_INTS_M
   80     0    12     0     0
SMALL
NO_CHARGES


@<TRIPOS>ATOM
      1 CA         18.6335  -10.3270   19.7225 C.3       4 GLC5        0.0000 
      2 CA         17.6590  -11.5820   20.8440 C.3      12 GLL5        0.0000 
      3 CA         19.6080   -9.0720   18.6010 C.3       8 GLP5        0.0000 
      4 CA         19.3260  -10.9490   22.1140 C.3       4 GLC5        0.0000 
      5 CA         20.9930  -10.3160   23.3840 C.3       8 GLP5        0.0000 
      6 CA         17.5900  -11.1325   22.8255 C.3       4 GLC5        0.0000 
      7 CA         17.5210  -10.6830   24.8070 C.3       8 GLP5        0.0000 
      8 CA         19.8390  -11.1095   19.3330 C.3       4 GLC5        0.0000 
      9 CA         20.0700  -13.1470   20.0650 C.3      12 GLL5        0.0000 
     10 CA         21.7160  -13.8700   19.3550 C.3       4 GLC5        0.0000 
     11 CA         23.3620  -14.5930   18.6450 C.3       8 GLP5        0.0000 
     12 CA         20.5315  -11.7315   21.7245 C.3       4 GLC5        0.0000 
     13 CA         21.8700  -14.2815   20.4420 C.3       4 GLC5        0.0000 
     14 CA         19.9200  -14.3280   20.9770 C.3      12 GLL5        0.0000 
     15 CA         23.8200  -14.2350   19.9070 C.3       8 GLP5        0.0000 
     16 CA         19.6450  -15.5070   19.3375 C.3       4 GLC5        0.0000 
     17 CA         19.3700  -16.6860   17.6980 C.3       8 GLP5        0.0000 
     18 N          15.4590  -12.4140   24.0015 N.am      2 SEC2        0.0000 
     19 N          16.0580  -12.9750   22.6910 N.am     10 SEL2        0.0000 
     20 N          14.8600  -11.8530   25.3120 N.am      6 SEP2        0.0000 
     21 O          15.4205  -15.0250   24.1120 O.2       1 ALC1        0.0000 
     22 O          16.4850  -15.6460   23.4110 O.2       9 ALL1        0.0000 
     23 O          14.3560  -14.4040   24.8130 O.2       5 ALP1        0.0000 
     24 N          17.4830   -9.6405   18.9735 N.am      2 SEC2        0.0000 
     25 N          16.5900  -10.5570   18.8560 N.am     10 SEL2        0.0000 
     26 N          18.3760   -8.7240   19.0910 N.am      6 SEP2        0.0000 
     27 N          15.7805   -9.6040   18.8720 N.am      2 SEC2        0.0000 
     28 N          14.9710   -8.6510   18.8880 N.am      6 SEP2        0.0000 
     29 N          12.8685  -16.4660   23.3255 N.am      2 SEC2        0.0000 
     30 N          13.7860  -16.0850   22.0300 N.am     10 SEL2        0.0000 
     31 N          11.9510  -16.8470   24.6210 N.am      6 SEP2        0.0000 
     32 CA         19.8735  -14.5270   27.9275 C.3       4 GLC5        0.0000 
     33 CA         19.4330  -13.8990   25.9250 C.3      12 GLL5        0.0000 
     34 CA         20.3140  -15.1550   29.9300 C.3       8 GLP5        0.0000 
     35 CA         20.8705  -12.1980   24.4470 C.3       4 GLC5        0.0000 
     36 CA         20.7480  -14.0800   25.5100 C.3      12 GLL5        0.0000 
     37 CA         13.2375  -12.4210   24.5055 C.3       4 GLC5        0.0000 
     38 CA         12.5760  -12.3160   22.8090 C.3      12 GLL5        0.0000 
     39 CA         13.8990  -12.5260   26.2020 C.3       8 GLP5        0.0000 
     40 CA         12.0180  -11.7765   18.6885 C.3       4 GLC5        0.0000 
     41 CA         12.9710  -11.4340   20.5020 C.3      12 GLL5        0.0000 
     42 CA         11.0650  -12.1190   16.8750 C.3       8 GLP5        0.0000 
     43 CA         14.5990   -9.9665   23.4915 C.3       4 GLC5        0.0000 
     44 CA         13.0380   -9.9160   22.5120 C.3      12 GLL5        0.0000 
     45 CA         16.1600  -10.0170   24.4710 C.3       8 GLP5        0.0000 
     46 OD1         9.5785   -9.6145   25.1265 O.co2     3 ASC3        0.0000 
     47 OD1        11.2250  -10.7710   24.1160 O.co2    11 ASL3        0.0000 
     48 OD1         8.2710   -9.6240   25.6810 O.co2     7 ASP3        0.0000 
     49 OD1         9.3655  -10.7885   25.0070 O.co2     3 ASC3        0.0000 
     50 OD1         7.9970  -11.8190   25.7580 O.co2     7 ASP3        0.0000 
     51 O           9.3655  -10.7885   25.0070 O.2       1 ALC1        0.0000 
     52 O          10.4600  -11.9530   24.3330 O.2       9 ALL1        0.0000 
     53 O           8.2710   -9.6240   25.6810 O.2       5 ALP1        0.0000 
     54 O           9.2285  -11.8860   25.0455 O.2       1 ALC1        0.0000 
     55 O           7.9970  -11.8190   25.7580 O.2       5 ALP1        0.0000 
     56 O          10.4910  -13.3135   24.1260 O.2       1 ALC1        0.0000 
     57 O          10.5220  -14.6740   23.9190 O.2       5 ALP1        0.0000 
     58 O           9.5785   -9.6145   25.1265 O.2       1 ALC1        0.0000 
     59 O          10.8860   -9.6050   24.5720 O.2       9 ALL1        0.0000 
     60 CA         18.9823  -14.5343   18.7413 C.3       4 GLC5        0.0000 
     61 CA         18.6830  -13.7220   20.3520 C.3      12 GLL5        0.0000 
     62 CA         18.5880  -15.6340   17.2740 C.3       8 GLP5        0.0000 
     63 CA         18.2375  -12.5038   25.2510 C.3       4 GLC5        0.0000 
     64 CA         18.4750  -14.7500   25.4650 C.3      12 GLL5        0.0000 
     65 CA         10.4823  -13.7375   21.0805 C.3       4 GLC5        0.0000 
     66 CA         12.1900  -12.4500   21.3330 C.3      12 GLL5        0.0000 
     67 CA          8.6200  -14.3010   21.0450 C.3       8 GLP5        0.0000 
     68 CA         21.3607  -14.7260   27.4700 C.3       4 GLC5        0.0000 
     69 CA         21.4670  -15.8110   29.2000 C.3       8 GLP5        0.0000 
     70 CA         23.4820  -12.3578   26.9402 C.3       4 GLC5        0.0000 
     71 CA         21.7610  -13.2020   25.9700 C.3      12 GLL5        0.0000 
     72 CA         24.5600  -11.4250   28.1220 C.3       8 GLP5        0.0000 
     73 CA         22.6722  -12.0134   24.5061 C.3       4 GLC5        0.0000 
     74 CA         23.0470  -13.3790   25.5470 C.3      12 GLL5        0.0000 
     75 CA         22.4610  -10.1640   23.8040 C.3       8 GLP5        0.0000 
     76 CA         10.6936  -11.1135   20.3924 C.3       4 GLC5        0.0000 
     77 CA         12.6880  -10.0320   21.0300 C.3      12 GLL5        0.0000 
     78 CA          8.7530  -11.2400   19.8110 C.3       8 GLP5        0.0000 
     79 CA         12.6750   -8.0360   21.7805 C.3       4 GLC5        0.0000 
     80 CA         12.4870   -6.0980   21.7900 C.3       8 GLP5        0.0000 
@<TRIPOS>BOND
@<TRIPOS>SUBSTRUCTURE
     1 ALC1       21 GROUP        1 X    ALC  0     ROOT ALC X 1
     2 SEC2       18 GROUP        1 X    SEC  0     **** SEC X 2
     3 ASC3       46 GROUP        1 X    ASC  0     **** ASC X 3
     4 GLC5        1 GROUP        1 X    GLC  0     **** GLC X 6
     5 ALP1       23 GROUP        1 Y    ALP  0     ROOT ALP Y 8
     6 SEP2       20 GROUP        1 Y    SEP  0     **** SEP Y 9
     7 ASP3       48 GROUP        1 Y    ASP  0     **** ASP Y 10
     8 GLP5        3 GROUP        1 Y    GLP  0     **** GLP Y 13
     9 ALL1       22 GROUP        1 Z    ALL  0     ROOT ALL Z 15
    10 SEL2       19 GROUP        1 Z    SEL  0     **** SEL Z 16
    11 ASL3       47 GROUP        1 Z    ASL  0     **** ASL Z 17
    12 GLL5        2 GROUP        1 Z    GLL  0     **** GLL Z 20
@<TRIPOS>SET

