#    Name: 4ax9_N5N_1_ligand
#    Modification time : Tue Mar 25 06:21:02 2014

@<TRIPOS>MOLECULE
4ax9_N5N_1_ligand
   73    76     1     0     0
SMALL
NO_CHARGES


@<TRIPOS>ATOM
      1 N1         17.7370  -12.9750   21.1270 N.am      1 N5N1246     0.0000 
      2 C2         18.6830  -13.7220   20.3520 C.3       1 N5N1246     0.0000 
      3 C3         16.8790  -13.6150   22.0190 C.2       1 N5N1246     0.0000 
      4 C4         17.6590  -11.5820   20.8440 C.3       1 N5N1246     0.0000 
      5 C5         20.0700  -13.1470   20.0650 C.3       1 N5N1246     0.0000 
      6 C6         19.9200  -14.3280   20.9770 C.3       1 N5N1246     0.0000 
      7 C7         16.9460  -15.1600   22.1650 C.3       1 N5N1246     0.0000 
      8 O8         16.0580  -12.9750   22.6910 O.2       1 N5N1246     0.0000 
      9 C9         16.6660  -11.6270   19.6790 C.2       1 N5N1246     0.0000 
     10 N10        16.4850  -15.6460   23.4110 N.pl3     1 N5N1246     0.0000 
     11 C11        15.9770  -15.6560   21.0550 C.3       1 N5N1246     0.0000 
     12 O12        16.5900  -10.5570   18.8560 O.co2     1 N5N1246     0.0000 
     13 O13        15.9200  -12.5530   19.3650 O.co2     1 N5N1246     0.0000 
     14 S14        17.4120  -16.7460   24.1380 S.o2      1 N5N1246     0.0000 
     15 C15        14.4840  -15.3310   21.3120 C.2       1 N5N1246     0.0000 
     16 C16        18.7430  -15.8260   24.5750 C.ar      1 N5N1246     0.0000 
     17 O17        16.6880  -17.0720   25.2910 O.2       1 N5N1246     0.0000 
     18 O18        17.6620  -17.6840   23.1350 O.2       1 N5N1246     0.0000 
     19 N19        13.8870  -14.2270   20.7230 N.am      1 N5N1246     0.0000 
     20 O20        13.7860  -16.0850   22.0300 O.2       1 N5N1246     0.0000 
     21 C21        20.0400  -16.0170   24.1530 C.ar      1 N5N1246     0.0000 
     22 C22        18.4750  -14.7500   25.4650 C.ar      1 N5N1246     0.0000 
     23 C23        12.4990  -13.8980   20.8990 C.3       1 N5N1246     0.0000 
     24 C24        21.0570  -15.1400   24.6180 C.ar      1 N5N1246     0.0000 
     25 C25        19.4330  -13.8990   25.9250 C.ar      1 N5N1246     0.0000 
     26 C26        12.1900  -12.4500   21.3330 C.3       1 N5N1246     0.0000 
     27 C27        20.7480  -14.0800   25.5100 C.ar      1 N5N1246     0.0000 
     28 C28        22.3990  -15.2940   24.2120 C.ar      1 N5N1246     0.0000 
     29 C29        12.5760  -12.3160   22.8090 C.3       1 N5N1246     0.0000 
     30 C30        12.9710  -11.4340   20.5020 C.3       1 N5N1246     0.0000 
     31 C31        21.7610  -13.2020   25.9700 C.ar      1 N5N1246     0.0000 
     32 C32        23.3630  -14.4350   24.6580 C.ar      1 N5N1246     0.0000 
     33 N33        12.4380  -10.9660   23.3380 N.pl3     1 N5N1246     0.0000 
     34 C34        12.6880  -10.0320   21.0300 C.3       1 N5N1246     0.0000 
     35 C35        23.0470  -13.3790   25.5470 C.ar      1 N5N1246     0.0000 
     36 C36        13.0380   -9.9160   22.5120 C.3       1 N5N1246     0.0000 
     37 C37        11.2250  -10.7710   24.1160 C.cat     1 N5N1246     0.0000 
     38 N38        10.4600  -11.9530   24.3330 N.pl3     1 N5N1246     0.0000 
     39 N39        10.8860   -9.6050   24.5720 N.pl3     1 N5N1246     0.0000 
     40 H          18.5068  -14.3040   19.5541 H         1 N5N1246     0.0000 
     41 H          18.5701  -11.1846   20.4887 H         1 N5N1246     0.0000 
     42 H          17.2238  -11.0281   21.6302 H         1 N5N1246     0.0000 
     43 H          20.1686  -12.3682   20.5962 H         1 N5N1246     0.0000 
     44 H          20.3342  -13.4597   19.2101 H         1 N5N1246     0.0000 
     45 H          20.1398  -15.1150   20.4903 H         1 N5N1246     0.0000 
     46 H          19.9741  -14.0236   21.8764 H         1 N5N1246     0.0000 
     47 H          17.9159  -15.4797   21.8917 H         1 N5N1246     0.0000 
     48 H          15.6785  -15.3936   23.8750 H         1 N5N1246     0.0000 
     49 H          16.0898  -16.7451   20.9525 H         1 N5N1246     0.0000 
     50 H          16.2784  -15.2037   20.0990 H         1 N5N1246     0.0000 
     51 H          14.4544  -13.5920   20.1196 H         1 N5N1246     0.0000 
     52 H          20.2880  -16.7730   23.5146 H         1 N5N1246     0.0000 
     53 H          17.4749  -14.6254   25.7701 H         1 N5N1246     0.0000 
     54 H          12.0204  -14.5726   21.6567 H         1 N5N1246     0.0000 
     55 H          11.9205  -14.0842   19.9562 H         1 N5N1246     0.0000 
     56 H          19.2026  -13.1333   26.5671 H         1 N5N1246     0.0000 
     57 H          11.1423  -12.2750   21.2350 H         1 N5N1246     0.0000 
     58 H          22.6351  -16.0695   23.5712 H         1 N5N1246     0.0000 
     59 H          13.6217  -12.6736   22.9176 H         1 N5N1246     0.0000 
     60 H          11.9502  -13.0284   23.3869 H         1 N5N1246     0.0000 
     61 H          12.6590  -11.5001   19.4679 H         1 N5N1246     0.0000 
     62 H          14.0298  -11.6429   20.5817 H         1 N5N1246     0.0000 
     63 H          21.5063  -12.4473   26.6148 H         1 N5N1246     0.0000 
     64 H          24.3478  -14.5395   24.3536 H         1 N5N1246     0.0000 
     65 H          11.6302   -9.8019   20.8924 H         1 N5N1246     0.0000 
     66 H          13.2775   -9.3083   20.4648 H         1 N5N1246     0.0000 
     67 H          23.8037  -12.7565   25.8615 H         1 N5N1246     0.0000 
     68 H          14.1416   -9.9343   22.6046 H         1 N5N1246     0.0000 
     69 H          12.7143   -8.9162   22.8620 H         1 N5N1246     0.0000 
     70 H           9.6504  -11.8532   24.9114 H         1 N5N1246     0.0000 
     71 H          10.7970  -12.7830   23.8886 H         1 N5N1246     0.0000 
     72 H          10.0265   -9.5647   25.0815 H         1 N5N1246     0.0000 
     73 H          11.5155   -8.8542   24.3719 H         1 N5N1246     0.0000 
@<TRIPOS>BOND
     1    2    1 1    
     2    3    1 am   
     3    4    1 1    
     4    5    2 1    
     5    6    2 1    
     6   40    2 1    
     7    7    3 1    
     8    8    3 2    
     9    9    4 1    
    10   41    4 1    
    11   42    4 1    
    12    6    5 1    
    13   43    5 1    
    14   44    5 1    
    15   45    6 1    
    16   46    6 1    
    17   10    7 1    
    18   11    7 1    
    19   47    7 1    
    20   12    9 ar   
    21   13    9 ar   
    22   14   10 1    
    23   48   10 1    
    24   15   11 1    
    25   49   11 1    
    26   50   11 1    
    27   16   14 1    
    28   17   14 2    
    29   18   14 2    
    30   19   15 am   
    31   20   15 2    
    32   21   16 ar   
    33   22   16 ar   
    34   23   19 1    
    35   51   19 1    
    36   24   21 ar   
    37   52   21 1    
    38   25   22 ar   
    39   53   22 1    
    40   26   23 1    
    41   54   23 1    
    42   55   23 1    
    43   27   24 ar   
    44   28   24 ar   
    45   27   25 ar   
    46   56   25 1    
    47   29   26 1    
    48   30   26 1    
    49   57   26 1    
    50   31   27 ar   
    51   32   28 ar   
    52   58   28 1    
    53   33   29 1    
    54   59   29 1    
    55   60   29 1    
    56   34   30 1    
    57   61   30 1    
    58   62   30 1    
    59   35   31 ar   
    60   63   31 1    
    61   35   32 ar   
    62   64   32 1    
    63   36   33 1    
    64   37   33 ar   
    65   36   34 1    
    66   65   34 1    
    67   66   34 1    
    68   67   35 1    
    69   68   36 1    
    70   69   36 1    
    71   38   37 ar   
    72   39   37 ar   
    73   70   38 1    
    74   71   38 1    
    75   72   39 1    
    76   73   39 1    
@<TRIPOS>SUBSTRUCTURE
     1 N5N1246     1 GROUP   
@<TRIPOS>SET

