#    Name: 3pgx_NAD_2_INTS_M
#    Modification time : Tue Mar 25 06:34:18 2014

@<TRIPOS>MOLECULE
3pgx_NAD_2_INTS_M
  124     0    12     0     0
SMALL
NO_CHARGES


@<TRIPOS>ATOM
      1 NZ        112.8905    8.2580   52.9060 N.4       3 LYC4        0.0000 
      2 NZ        112.3550    9.3920   52.0860 N.4      11 LYL4        0.0000 
      3 NZ        114.7600    6.9930   53.8040 N.4       7 LYP4        0.0000 
      4 N         112.8905    8.2580   52.9060 N.am      2 SEC2        0.0000 
      5 N         112.3550    9.3920   52.0860 N.am     10 SEL2        0.0000 
      6 N         113.4260    7.1240   53.7260 N.am      6 SEP2        0.0000 
      7 NZ        115.0115    8.2825   51.8775 N.4       3 LYC4        0.0000 
      8 NZ        114.4980    8.8030   50.7130 N.4      11 LYL4        0.0000 
      9 N         115.0115    8.2825   51.8775 N.am      2 SEC2        0.0000 
     10 N         114.4980    8.8030   50.7130 N.am     10 SEL2        0.0000 
     11 N         115.5250    7.7620   53.0420 N.am      6 SEP2        0.0000 
     12 CA        114.9415   14.4525   53.2715 C.3       4 GLC5        0.0000 
     13 CA        114.1020   12.7530   53.0910 C.3      12 GLL5        0.0000 
     14 CA        115.7810   16.1520   53.4520 C.3       8 GLP5        0.0000 
     15 O         116.1140   12.4455   55.8105 O.2       1 ALC1        0.0000 
     16 O         115.8880   11.6300   54.3200 O.2       9 ALL1        0.0000 
     17 O         116.3400   13.2610   57.3010 O.2       5 ALP1        0.0000 
     18 O         116.4385   12.7405   54.7985 O.2       1 ALC1        0.0000 
     19 O         116.9890   13.8510   55.2770 O.2       5 ALP1        0.0000 
     20 O         115.3195   12.5260   56.9750 O.2       1 ALC1        0.0000 
     21 O         114.2990   11.7910   56.6490 O.2       9 ALL1        0.0000 
     22 CA        114.6705   14.9050   54.3200 C.3       4 GLC5        0.0000 
     23 CA        113.5600   13.6580   55.1880 C.3      12 GLL5        0.0000 
     24 CA        113.3340   13.5820   57.4150 C.3       4 GLC5        0.0000 
     25 CA        113.1080   13.5060   59.6420 C.3       8 GLP5        0.0000 
     26 CA        112.7825   15.3280   53.9465 C.3       4 GLC5        0.0000 
     27 CA        112.0050   16.9980   52.7050 C.3       8 GLP5        0.0000 
     28 CA        110.2925   13.7375   58.3480 C.3       4 GLC5        0.0000 
     29 CA        111.2460   15.3770   57.3480 C.3      12 GLL5        0.0000 
     30 CA        109.3390   12.0980   59.3480 C.3       8 GLP5        0.0000 
     31 CA        112.3080   15.5550   59.3785 C.3       4 GLC5        0.0000 
     32 CA        111.0900   16.4310   58.2310 C.3      12 GLL5        0.0000 
     33 CA        113.5260   14.6790   60.5260 C.3       8 GLP5        0.0000 
     34 CA        111.8155   17.6060   59.9490 C.3       4 GLC5        0.0000 
     35 CA        112.5410   18.7810   61.6670 C.3       8 GLP5        0.0000 
     36 CA        110.5555   18.1945   57.6550 C.3       4 GLC5        0.0000 
     37 CA        110.0210   19.9580   57.0790 C.3       8 GLP5        0.0000 
     38 O         109.7890   17.4610   60.0620 O.2       1 ALC1        0.0000 
     39 O         109.8760   16.6300   58.8500 O.2       9 ALL1        0.0000 
     40 O         109.7020   18.2920   61.2740 O.2       5 ALP1        0.0000 
     41 N         111.9210   18.6265   59.0505 N.am      2 SEC2        0.0000 
     42 N         112.1510   17.2720   58.4400 N.am     10 SEL2        0.0000 
     43 N         111.6910   19.9810   59.6610 N.am      6 SEP2        0.0000 
     44 CA        115.2745   16.6525   57.7915 C.3       4 GLC5        0.0000 
     45 CA        113.3590   17.0860   57.8690 C.3      12 GLL5        0.0000 
     46 CA        117.1900   16.2190   57.7140 C.3       8 GLP5        0.0000 
     47 CA        113.4425   15.8825   59.1975 C.3       4 GLC5        0.0000 
     48 CA        112.9500   17.9335   59.7680 C.3       4 GLC5        0.0000 
     49 CA        112.8620   18.8685   57.3090 C.3       4 GLC5        0.0000 
     50 CA        112.3650   20.6510   56.7490 C.3       8 GLP5        0.0000 
     51 CA        112.7385   17.3955   55.9605 C.3       4 GLC5        0.0000 
     52 CA        112.1180   17.7050   54.0520 C.3       8 GLP5        0.0000 
     53 N         114.5575   15.6365   58.1295 N.am      2 SEC2        0.0000 
     54 N         113.5360   16.0580   57.0320 N.am     10 SEL2        0.0000 
     55 N         115.5790   15.2150   59.2270 N.am      6 SEP2        0.0000 
     56 N         112.6555    8.6960   48.4750 N.am      2 SEC2        0.0000 
     57 N         112.5170    9.9400   49.6100 N.am     10 SEL2        0.0000 
     58 N         112.7940    7.4520   47.3400 N.am      6 SEP2        0.0000 
     59 N         112.4325   10.9695   45.9370 N.am      2 SEC2        0.0000 
     60 N         112.2470   10.0810   47.1460 N.am     10 SEL2        0.0000 
     61 N         112.6180   11.8580   44.7280 N.am      6 SEP2        0.0000 
     62 N         112.5205    8.7665   47.2430 N.am      2 SEC2        0.0000 
     63 N         115.6690   11.3935   47.5930 N.am      2 SEC2        0.0000 
     64 N         114.3490   11.1490   48.1530 N.am     10 SEL2        0.0000 
     65 N         116.9890   11.6380   47.0330 N.am      6 SEP2        0.0000 
     66 CA        114.0875   13.3735   47.0195 C.3       4 GLC5        0.0000 
     67 CA        112.5090   13.4920   48.3020 C.3      12 GLL5        0.0000 
     68 CA        115.6660   13.2550   45.7370 C.3       8 GLP5        0.0000 
     69 CA        111.0625   15.7045   46.5420 C.3       4 GLC5        0.0000 
     70 CA        111.2910   14.3130   47.8250 C.3      12 GLL5        0.0000 
     71 CA        110.8340   17.0960   45.2590 C.3       8 GLP5        0.0000 
     72 CA        109.4705   14.5590   50.5375 C.3       4 GLC5        0.0000 
     73 CA        110.1090   14.2300   48.7880 C.3      12 GLL5        0.0000 
     74 CA        108.8320   14.8880   52.2870 C.3       8 GLP5        0.0000 
     75 N         108.2140   16.0140   48.5470 N.am      2 SEC2        0.0000 
     76 N         109.5430   15.5500   48.9410 N.am     10 SEL2        0.0000 
     77 N         106.8850   16.4780   48.1530 N.am      6 SEP2        0.0000 
     78 O         110.7250   16.0380   49.4355 O.2       1 ALC1        0.0000 
     79 O         109.5430   15.5500   48.9410 O.2       9 ALL1        0.0000 
     80 O         111.9070   16.5260   49.9300 O.2       5 ALP1        0.0000 
     81 CA        107.3245   14.5680   47.9895 C.3       4 GLC5        0.0000 
     82 CA        109.1420   13.2820   48.0930 C.3      12 GLL5        0.0000 
     83 CA        105.5070   15.8540   47.8860 C.3       8 GLP5        0.0000 
     84 N         107.3390   15.0420   48.2945 N.am      2 SEC2        0.0000 
     85 N         107.7930   13.6060   48.4360 N.am     10 SEL2        0.0000 
     86 O         106.7855   13.0005   47.6970 O.2       1 ALC1        0.0000 
     87 O         107.7930   13.6060   48.4360 O.2       9 ALL1        0.0000 
     88 O         105.7780   12.3950   46.9580 O.2       5 ALP1        0.0000 
     89 CA        110.1170   15.3635   45.9485 C.3       4 GLC5        0.0000 
     90 CA        109.4000   13.6310   46.6380 C.3      12 GLL5        0.0000 
     91 CA        108.8395   11.8020   47.8140 C.3       4 GLC5        0.0000 
     92 CA        108.2790    9.9730   48.9900 C.3       8 GLP5        0.0000 
     93 CA        108.8920   10.6990   47.2745 C.3       4 GLC5        0.0000 
     94 CA        109.5050   11.4250   45.5590 C.3      12 GLL5        0.0000 
     95 N         110.1745    8.0055   42.4205 N.am      2 SEC2        0.0000 
     96 N         109.3020    8.4720   43.4940 N.am     10 SEL2        0.0000 
     97 N         111.0470    7.5390   41.3470 N.am      6 SEP2        0.0000 
     98 O         111.3455    7.5780   44.5705 O.2       1 ALC1        0.0000 
     99 O         110.5520    8.7230   45.3570 O.2       9 ALL1        0.0000 
    100 O         112.1390    6.4330   43.7840 O.2       5 ALP1        0.0000 
    101 CA        108.1000   10.5830   41.3900 C.3       4 GLC5        0.0000 
    102 CA        108.3910   11.0860   43.4470 C.3      12 GLL5        0.0000 
    103 CA        107.8090   10.0800   39.3330 C.3       8 GLP5        0.0000 
    104 CA        108.7920   14.2900   43.0270 C.3       4 GLC5        0.0000 
    105 CA        108.2990   13.2230   44.5490 C.3      12 GLL5        0.0000 
    106 CA        109.2850   15.3570   41.5050 C.3       8 GLP5        0.0000 
    107 CA        115.4522   10.6630   55.8342 C.3       4 GLC5        0.0000 
    108 CA        114.4610   11.6890   54.1310 C.3      12 GLL5        0.0000 
    109 CA        116.8200    9.4040   56.9150 C.3       8 GLP5        0.0000 
    110 CA        112.4868   14.4025   58.3463 C.3       4 GLC5        0.0000 
    111 CA        112.4850   15.2210   56.7530 C.3      12 GLL5        0.0000 
    112 CA        109.4325   16.1355   56.8788 C.3       4 GLC5        0.0000 
    113 CA        107.6970   16.3670   55.9680 C.3       8 GLP5        0.0000 
    114 CA        111.9723   16.6337   55.6616 C.3       4 GLC5        0.0000 
    115 CA        109.3092   12.2375   49.4573 C.3       4 GLC5        0.0000 
    116 CA        108.9930   10.7190   50.4740 C.3       8 GLP5        0.0000 
    117 CA        110.4710   10.5215   42.6910 C.3       4 GLC5        0.0000 
    118 CA        109.1710   10.5740   44.5070 C.3      12 GLL5        0.0000 
    119 CA        112.1610   10.2130   41.4050 C.3       8 GLP5        0.0000 
    120 CA        109.2738   12.5570   42.1377 C.3       4 GLC5        0.0000 
    121 CA        110.3780   13.3570   40.8190 C.3       8 GLP5        0.0000 
    122 CA        106.4683   13.6852   43.8622 C.3       4 GLC5        0.0000 
    123 CA        107.9480   12.4280   43.4660 C.3      12 GLL5        0.0000 
    124 CA        104.8130   14.5450   43.7170 C.3       8 GLP5        0.0000 
@<TRIPOS>BOND
@<TRIPOS>SUBSTRUCTURE
     1 ALC1       15 GROUP        1 X    ALC  0     ROOT ALC X 1
     2 SEC2        4 GROUP        1 X    SEC  0     **** SEC X 2
     3 LYC4        1 GROUP        1 X    LYC  0     **** LYC X 4
     4 GLC5       12 GROUP        1 X    GLC  0     **** GLC X 6
     5 ALP1       17 GROUP        1 Y    ALP  0     ROOT ALP Y 8
     6 SEP2        6 GROUP        1 Y    SEP  0     **** SEP Y 9
     7 LYP4        3 GROUP        1 Y    LYP  0     **** LYP Y 11
     8 GLP5       14 GROUP        1 Y    GLP  0     **** GLP Y 13
     9 ALL1       16 GROUP        1 Z    ALL  0     ROOT ALL Z 15
    10 SEL2        5 GROUP        1 Z    SEL  0     **** SEL Z 16
    11 LYL4        2 GROUP        1 Z    LYL  0     **** LYL Z 18
    12 GLL5       13 GROUP        1 Z    GLL  0     **** GLL Z 20
@<TRIPOS>SET

