#    Name: 3pgx_NAD_2_ligand
#    Modification time : Tue Mar 25 06:34:18 2014

@<TRIPOS>MOLECULE
3pgx_NAD_2_ligand
   70    74     1     0     0
SMALL
NO_CHARGES


@<TRIPOS>ATOM
      1 PA        113.3420    9.7340   50.9970 P.3       1 NAD277      0.0000 
      2 O1A       112.3550    9.3920   52.0860 O.co2     1 NAD277      0.0000 
      3 O2A       114.4980    8.8030   50.7130 O.co2     1 NAD277      0.0000 
      4 O5B       113.9420   11.2080   51.3030 O.3       1 NAD277      0.0000 
      5 C5B       113.2170   12.2170   51.9940 C.3       1 NAD277      0.0000 
      6 C4B       114.1020   12.7530   53.0910 C.3       1 NAD277      0.0000 
      7 O4B       113.3370   13.7550   53.7800 O.3       1 NAD277      0.0000 
      8 C3B       114.4610   11.6890   54.1310 C.3       1 NAD277      0.0000 
      9 O3B       115.8880   11.6300   54.3200 O.3       1 NAD277      0.0000 
     10 C2B       113.7080   12.1550   55.3760 C.3       1 NAD277      0.0000 
     11 O2B       114.2990   11.7910   56.6490 O.3       1 NAD277      0.0000 
     12 C1B       113.5600   13.6580   55.1880 C.3       1 NAD277      0.0000 
     13 N9A       112.4040   14.1660   55.9750 N.pl3     1 NAD277      0.0000 
     14 C8A       111.1480   13.6460   56.0320 C.2       1 NAD277      0.0000 
     15 N7A       110.4170   14.4010   56.8880 N.2       1 NAD277      0.0000 
     16 C5A       111.2460   15.3770   57.3480 C.ar      1 NAD277      0.0000 
     17 C6A       111.0900   16.4310   58.2310 C.ar      1 NAD277      0.0000 
     18 N6A       109.8760   16.6300   58.8500 N.pl3     1 NAD277      0.0000 
     19 N1A       112.1510   17.2720   58.4400 N.ar      1 NAD277      0.0000 
     20 C2A       113.3590   17.0860   57.8690 C.ar      1 NAD277      0.0000 
     21 N3A       113.5360   16.0580   57.0320 N.ar      1 NAD277      0.0000 
     22 C4A       112.4850   15.2210   56.7530 C.ar      1 NAD277      0.0000 
     23 O3        112.5170    9.9400   49.6100 O.3       1 NAD277      0.0000 
     24 PN        112.8780   10.8340   48.3000 P.3       1 NAD277      0.0000 
     25 O1N       112.2470   10.0810   47.1460 O.co2     1 NAD277      0.0000 
     26 O2N       114.3490   11.1490   48.1530 O.co2     1 NAD277      0.0000 
     27 O5D       112.0420   12.1790   48.6440 O.3       1 NAD277      0.0000 
     28 C5D       112.5090   13.4920   48.3020 C.3       1 NAD277      0.0000 
     29 C4D       111.2910   14.3130   47.8250 C.3       1 NAD277      0.0000 
     30 O4D       110.8170   13.7340   46.5940 O.3       1 NAD277      0.0000 
     31 C3D       110.1090   14.2300   48.7880 C.3       1 NAD277      0.0000 
     32 O3D       109.5430   15.5500   48.9410 O.3       1 NAD277      0.0000 
     33 C2D       109.1420   13.2820   48.0930 C.3       1 NAD277      0.0000 
     34 O2D       107.7930   13.6060   48.4360 O.3       1 NAD277      0.0000 
     35 C1D       109.4000   13.6310   46.6380 C.3       1 NAD277      0.0000 
     36 N1N       109.0360   12.6950   45.5670 N.pl3     1 NAD277      0.0000 
     37 C2N       109.5050   11.4250   45.5590 C.ar      1 NAD277      0.0000 
     38 C3N       109.1710   10.5740   44.5070 C.ar      1 NAD277      0.0000 
     39 C7N       109.6730    9.1650   44.4380 C.2       1 NAD277      0.0000 
     40 O7N       109.3020    8.4720   43.4940 O.2       1 NAD277      0.0000 
     41 N7N       110.5520    8.7230   45.3570 N.am      1 NAD277      0.0000 
     42 C4N       108.3910   11.0860   43.4470 C.ar      1 NAD277      0.0000 
     43 C5N       107.9480   12.4280   43.4660 C.ar      1 NAD277      0.0000 
     44 C6N       108.2990   13.2230   44.5490 C.ar      1 NAD277      0.0000 
     45 H         112.3069   11.8230   52.4492 H         1 NAD277      0.0000 
     46 H         112.9465   13.0447   51.3364 H         1 NAD277      0.0000 
     47 H         114.9866   13.1643   52.6834 H         1 NAD277      0.0000 
     48 H         114.0366   10.7679   53.8079 H         1 NAD277      0.0000 
     49 H         112.6832   11.7428   55.2847 H         1 NAD277      0.0000 
     50 H         114.4661   14.1155   55.4716 H         1 NAD277      0.0000 
     51 H         110.8363   12.8769   55.5482 H         1 NAD277      0.0000 
     52 H         109.1582   15.9681   58.6340 H         1 NAD277      0.0000 
     53 H         109.8180   17.4192   59.4615 H         1 NAD277      0.0000 
     54 H         114.1405   17.7377   58.0807 H         1 NAD277      0.0000 
     55 H         113.2295   13.4706   47.4908 H         1 NAD277      0.0000 
     56 H         112.9396   14.0071   49.1546 H         1 NAD277      0.0000 
     57 H         111.5693   15.3230   47.6895 H         1 NAD277      0.0000 
     58 H         110.4372   13.8021   49.6868 H         1 NAD277      0.0000 
     59 H         109.4282   12.3043   48.2698 H         1 NAD277      0.0000 
     60 H         108.9934   14.6194   46.4453 H         1 NAD277      0.0000 
     61 H         110.1071   11.0721   46.3185 H         1 NAD277      0.0000 
     62 H         110.8393    7.7693   45.2681 H         1 NAD277      0.0000 
     63 H         110.8393    9.3878   46.0466 H         1 NAD277      0.0000 
     64 H         108.1442   10.4808   42.6583 H         1 NAD277      0.0000 
     65 H         107.3886   12.7902   42.7027 H         1 NAD277      0.0000 
     66 H         107.9972   14.2096   44.5724 H         1 NAD277      0.0000 
     67 H         116.1365   12.5233   54.6946 H         1 NAD277      0.0000 
     68 H         114.6802   12.6421   57.0100 H         1 NAD277      0.0000 
     69 H         110.3199   16.1750   48.8654 H         1 NAD277      0.0000 
     70 H         107.2299   13.0473   47.8271 H         1 NAD277      0.0000 
@<TRIPOS>BOND
     1    2    1 ar   
     2    3    1 ar   
     3    4    1 1    
     4   23    1 1    
     5    5    4 1    
     6    6    5 1    
     7   45    5 1    
     8   46    5 1    
     9    7    6 1    
    10    8    6 1    
    11   47    6 1    
    12   12    7 1    
    13    9    8 1    
    14   10    8 1    
    15   48    8 1    
    16   67    9 1    
    17   11   10 1    
    18   12   10 1    
    19   49   10 1    
    20   68   11 1    
    21   13   12 1    
    22   50   12 1    
    23   14   13 1    
    24   22   13 1    
    25   15   14 2    
    26   51   14 1    
    27   16   15 1    
    28   17   16 ar   
    29   22   16 ar   
    30   18   17 1    
    31   19   17 ar   
    32   52   18 1    
    33   53   18 1    
    34   20   19 ar   
    35   21   20 ar   
    36   54   20 1    
    37   22   21 ar   
    38   24   23 1    
    39   25   24 ar   
    40   26   24 ar   
    41   27   24 1    
    42   28   27 1    
    43   29   28 1    
    44   55   28 1    
    45   56   28 1    
    46   30   29 1    
    47   31   29 1    
    48   57   29 1    
    49   35   30 1    
    50   32   31 1    
    51   33   31 1    
    52   58   31 1    
    53   69   32 1    
    54   34   33 1    
    55   35   33 1    
    56   59   33 1    
    57   70   34 1    
    58   36   35 1    
    59   60   35 1    
    60   37   36 ar   
    61   44   36 ar   
    62   38   37 ar   
    63   61   37 1    
    64   39   38 1    
    65   42   38 ar   
    66   40   39 2    
    67   41   39 am   
    68   62   41 1    
    69   63   41 1    
    70   43   42 ar   
    71   64   42 1    
    72   44   43 ar   
    73   65   43 1    
    74   66   44 1    
@<TRIPOS>SUBSTRUCTURE
     1 NAD277      1 GROUP   
@<TRIPOS>SET

