#    Name: 3nrr_D16_3_INTS_M
#    Modification time : Tue Mar 25 02:00:48 2014

@<TRIPOS>MOLECULE
3nrr_D16_3_INTS_M
   58     0     6     0     0
SMALL
NO_CHARGES


@<TRIPOS>ATOM
      1 CA         50.5225    4.8015  -66.1125 C.3       2 GLC5        0.0000 
      2 CA         50.7860    6.8330  -65.1870 C.3       6 GLL5        0.0000 
      3 CA         50.2590    2.7700  -67.0380 C.3       4 GLP5        0.0000 
      4 CA         50.0280    7.6310  -67.0255 C.3       2 GLC5        0.0000 
      5 CA         49.2700    8.4290  -68.8640 C.3       4 GLP5        0.0000 
      6 CA         50.5480    8.8650  -65.0200 C.3       2 GLC5        0.0000 
      7 CA         50.3100   10.8970  -64.8530 C.3       4 GLP5        0.0000 
      8 CA         50.2810    5.2830  -64.0010 C.3       2 GLC5        0.0000 
      9 CA         49.7760    3.7330  -62.8150 C.3       4 GLP5        0.0000 
     10 CA         49.4135    7.7870  -63.9375 C.3       2 GLC5        0.0000 
     11 CA         48.0410    8.7410  -62.6880 C.3       4 GLP5        0.0000 
     12 CA         55.3550   11.5180  -67.4245 C.3       2 GLC5        0.0000 
     13 CA         55.0350    9.4640  -67.8770 C.3       6 GLL5        0.0000 
     14 CA         55.6750   13.5720  -66.9720 C.3       4 GLP5        0.0000 
     15 CA         55.1855    6.7440  -68.2675 C.3       2 GLC5        0.0000 
     16 CA         54.4630    8.1100  -69.8330 C.3       6 GLL5        0.0000 
     17 CA         55.9080    5.3780  -66.7020 C.3       4 GLP5        0.0000 
     18 CA         52.0195    5.7830  -69.1460 C.3       2 GLC5        0.0000 
     19 CA         53.4200    7.4740  -69.2010 C.3       6 GLL5        0.0000 
     20 CA         50.6190    4.0920  -69.0910 C.3       4 GLP5        0.0000 
     21 CA         53.6870    5.7210  -68.3705 C.3       2 GLC5        0.0000 
     22 CA         53.9540    3.9680  -67.5400 C.3       4 GLP5        0.0000 
     23 CA         56.9780    9.9790  -71.7815 C.3       2 GLC5        0.0000 
     24 CA         56.3910    9.7140  -69.9560 C.3       6 GLL5        0.0000 
     25 CA         57.5650   10.2440  -73.6070 C.3       4 GLP5        0.0000 
     26 CA         55.2390   10.5385  -70.9700 C.3       2 GLC5        0.0000 
     27 CA         54.0870   11.3630  -71.9840 C.3       4 GLP5        0.0000 
     28 CA         59.9860    7.5525  -70.0085 C.3       2 GLC5        0.0000 
     29 CA         58.7570    7.1240  -68.6050 C.3       6 GLL5        0.0000 
     30 CA         61.2150    7.9810  -71.4120 C.3       4 GLP5        0.0000 
     31 CA         59.4190    5.3745  -69.5370 C.3       2 GLC5        0.0000 
     32 CA         60.0810    3.6250  -70.4690 C.3       4 GLP5        0.0000 
     33 CA         60.8465    5.7105  -68.3040 C.3       2 GLC5        0.0000 
     34 CA         59.5710    7.2570  -67.4760 C.3       6 GLL5        0.0000 
     35 CA         62.1220    4.1640  -69.1320 C.3       4 GLP5        0.0000 
     36 CA         60.5080    9.7880  -61.4540 C.3       2 GLC5        0.0000 
     37 CA         61.4900    8.2560  -62.6150 C.3       6 GLL5        0.0000 
     38 CA         59.5260   11.3200  -60.2930 C.3       4 GLP5        0.0000 
     39 N          64.7890    6.9540  -65.2710 N.am      1 SEC2        0.0000 
     40 N          63.7580    7.4350  -64.9790 N.am      5 SEL2        0.0000 
     41 N          65.8200    6.4730  -65.5630 N.am      3 SEP2        0.0000 
     42 CA         57.6900    6.6890  -72.6205 C.3       2 GLC5        0.0000 
     43 CA         57.0700    7.4950  -70.9100 C.3       6 GLL5        0.0000 
     44 CA         58.3100    5.8830  -74.3310 C.3       4 GLP5        0.0000 
     45 CA         57.3175    8.8695  -72.2585 C.3       2 GLC5        0.0000 
     46 CA         59.1425    7.7380  -71.1610 C.3       2 GLC5        0.0000 
     47 CA         55.9300    6.5605  -71.8685 C.3       2 GLC5        0.0000 
     48 CA         54.7900    5.6260  -72.8270 C.3       4 GLP5        0.0000 
     49 CA         54.3658    6.7090  -71.1720 C.3       2 GLC5        0.0000 
     50 CA         51.2815    8.0322  -68.7007 C.3       2 GLC5        0.0000 
     51 CA         54.8740    6.9244  -67.2059 C.3       2 GLC5        0.0000 
     52 CA         53.1660    7.7970  -67.8740 C.3       6 GLL5        0.0000 
     53 CA         57.4792    6.4426  -67.4221 C.3       2 GLC5        0.0000 
     54 CA         58.3030    8.3910  -69.0120 C.3       6 GLL5        0.0000 
     55 CA         60.3474    8.6570  -69.2865 C.3       2 GLC5        0.0000 
     56 CA         61.5070    9.3070  -70.6980 C.3       4 GLP5        0.0000 
     57 CA         59.6915    7.6365  -62.3610 C.3       2 GLC5        0.0000 
     58 CA         57.6260    7.6900  -62.3590 C.3       4 GLP5        0.0000 
@<TRIPOS>BOND
@<TRIPOS>SUBSTRUCTURE
     1 SEC2       39 GROUP        1 X    SEC  0     ROOT SEC X 2
     2 GLC5        1 GROUP        1 X    GLC  0     **** GLC X 6
     3 SEP2       41 GROUP        1 Y    SEP  0     ROOT SEP Y 9
     4 GLP5        3 GROUP        1 Y    GLP  0     **** GLP Y 13
     5 SEL2       40 GROUP        1 Z    SEL  0     ROOT SEL Z 16
     6 GLL5        2 GROUP        1 Z    GLL  0     **** GLL Z 20
@<TRIPOS>SET

