#    Name: 3nrr_D16_3_ligand
#    Modification time : Tue Mar 25 02:00:48 2014

@<TRIPOS>MOLECULE
3nrr_D16_3_ligand
   52    54     1     0     0
SMALL
NO_CHARGES


@<TRIPOS>ATOM
      1 N1         52.1570    7.1910  -67.1930 N.pl3     1 D16520      0.0000 
      2 C2         51.9240    7.5300  -65.9100 C.2       1 D16520      0.0000 
      3 CM2        50.7860    6.8330  -65.1870 C.3       1 D16520      0.0000 
      4 N3         52.6450    8.4840  -65.2700 N.2       1 D16520      0.0000 
      5 C4         53.6630    9.1260  -65.8160 C.2       1 D16520      0.0000 
      6 O4         54.3530   10.0950  -65.1940 O.2       1 D16520      0.0000 
      7 C4A        53.9930    8.8250  -67.2140 C.ar      1 D16520      0.0000 
      8 C5         55.0350    9.4640  -67.8770 C.ar      1 D16520      0.0000 
      9 C6         55.2610    9.0750  -69.1880 C.ar      1 D16520      0.0000 
     10 C7         54.4630    8.1100  -69.8330 C.ar      1 D16520      0.0000 
     11 C8         53.4200    7.4740  -69.2010 C.ar      1 D16520      0.0000 
     12 C8A        53.1660    7.7970  -67.8740 C.ar      1 D16520      0.0000 
     13 C9         56.3910    9.7140  -69.9560 C.3       1 D16520      0.0000 
     14 N10        57.4870    8.7180  -70.1860 N.pl3     1 D16520      0.0000 
     15 C11        59.7400    8.5720  -67.0280 C.2       1 D16520      0.0000 
     16 S13        58.8730    9.6740  -68.0440 S.3       1 D16520      0.0000 
     17 C14        58.3030    8.3910  -69.0120 C.2       1 D16520      0.0000 
     18 C15        58.7570    7.1240  -68.6050 C.2       1 D16520      0.0000 
     19 C16        59.5710    7.2570  -67.4760 C.2       1 D16520      0.0000 
     20 C          60.5520    9.1620  -65.9050 C.2       1 D16520      0.0000 
     21 O          60.6490   10.3810  -65.8200 O.2       1 D16520      0.0000 
     22 N          61.2170    8.3270  -65.0670 N.am      1 D16520      0.0000 
     23 CA         62.0600    8.7670  -63.9540 C.3       1 D16520      0.0000 
     24 CB         61.4900    8.2560  -62.6150 C.3       1 D16520      0.0000 
     25 CG         62.0240    6.9100  -62.1110 C.3       1 D16520      0.0000 
     26 CD         61.1630    6.3040  -61.0030 C.2       1 D16520      0.0000 
     27 OE1        60.8150    7.0150  -60.0220 O.co2     1 D16520      0.0000 
     28 OE2        60.8530    5.0850  -61.1010 O.co2     1 D16520      0.0000 
     29 CT         63.4940    8.3190  -64.1320 C.2       1 D16520      0.0000 
     30 O1         63.7580    7.4350  -64.9790 O.co2     1 D16520      0.0000 
     31 O2         64.3780    8.8210  -63.4090 O.co2     1 D16520      0.0000 
     32 CP1        57.0700    7.4950  -70.9100 C.3       1 D16520      0.0000 
     33 H          51.5738    6.4732  -67.6632 H         1 D16520      0.0000 
     34 H          55.5921   10.1685  -67.4285 H         1 D16520      0.0000 
     35 H          54.6826    7.8786  -70.8280 H         1 D16520      0.0000 
     36 H          52.8476    6.7863  -69.6855 H         1 D16520      0.0000 
     37 H          56.7779   10.5630  -69.3899 H         1 D16520      0.0000 
     38 H          56.0164   10.0772  -70.9145 H         1 D16520      0.0000 
     39 H          58.5403    6.3020  -69.0362 H         1 D16520      0.0000 
     40 H          59.9942    6.4832  -67.0289 H         1 D16520      0.0000 
     41 H          61.1491    7.2813  -65.1908 H         1 D16520      0.0000 
     42 H          62.0521    9.8631  -63.9033 H         1 D16520      0.0000 
     43 H          60.3840    8.1882  -62.7085 H         1 D16520      0.0000 
     44 H          61.6783    9.0281  -61.8371 H         1 D16520      0.0000 
     45 H          63.0455    7.0505  -61.7358 H         1 D16520      0.0000 
     46 H          62.0716    6.2083  -62.9532 H         1 D16520      0.0000 
     47 H          50.9218    5.8430  -65.1480 H         1 D16520      0.0000 
     48 H          50.6933    7.1535  -64.2443 H         1 D16520      0.0000 
     49 H          49.9075    6.9908  -65.6379 H         1 D16520      0.0000 
     50 H          57.8331    6.8618  -71.0397 H         1 D16520      0.0000 
     51 H          56.3563    6.9970  -70.4174 H         1 D16520      0.0000 
     52 H          56.7069    7.7062  -71.8175 H         1 D16520      0.0000 
@<TRIPOS>BOND
     1    2    1 1    
     2   12    1 1    
     3   33    1 1    
     4    3    2 1    
     5    4    2 2    
     6   47    3 1    
     7   48    3 1    
     8   49    3 1    
     9    5    4 1    
    10    6    5 2    
    11    7    5 1    
    12    8    7 ar   
    13   12    7 ar   
    14    9    8 ar   
    15   34    8 1    
    16   10    9 ar   
    17   13    9 1    
    18   11   10 ar   
    19   35   10 1    
    20   12   11 ar   
    21   36   11 1    
    22   14   13 1    
    23   37   13 1    
    24   38   13 1    
    25   17   14 1    
    26   32   14 1    
    27   16   15 1    
    28   19   15 2    
    29   20   15 1    
    30   17   16 1    
    31   18   17 2    
    32   19   18 1    
    33   39   18 1    
    34   40   19 1    
    35   21   20 2    
    36   22   20 am   
    37   23   22 1    
    38   41   22 1    
    39   24   23 1    
    40   29   23 1    
    41   42   23 1    
    42   25   24 1    
    43   43   24 1    
    44   44   24 1    
    45   26   25 1    
    46   45   25 1    
    47   46   25 1    
    48   27   26 ar   
    49   28   26 ar   
    50   30   29 ar   
    51   31   29 ar   
    52   50   32 1    
    53   51   32 1    
    54   52   32 1    
@<TRIPOS>SUBSTRUCTURE
     1 D16520      1 GROUP   
@<TRIPOS>SET

