#    Name: 2qi3_MZ5_1_INTS_M
#    Modification time : Mon Mar 24 22:11:11 2014

@<TRIPOS>MOLECULE
2qi3_MZ5_1_INTS_M
   71     0     9     0     0
SMALL
NO_CHARGES


@<TRIPOS>ATOM
      1 CA         23.2880   27.1420   13.3815 C.3       3 GLC5        0.0000 
      2 CA         22.6030   28.1080   11.5800 C.3       9 GLL5        0.0000 
      3 CA         23.9730   26.1760   15.1830 C.3       6 GLP5        0.0000 
      4 CA         24.7370   27.7195    7.6900 C.3       3 GLC5        0.0000 
      5 CA         23.3090   27.3000    9.2750 C.3       9 GLL5        0.0000 
      6 CA         26.1650   28.1390    6.1050 C.3       6 GLP5        0.0000 
      7 O          20.4635   26.7970   13.7625 O.2       1 ALC1        0.0000 
      8 O          20.7450   28.3470   13.2010 O.2       7 ALL1        0.0000 
      9 O          20.1820   25.2470   14.3240 O.2       4 ALP1        0.0000 
     10 CA         17.0675   30.9995   10.8570 C.3       3 GLC5        0.0000 
     11 CA         17.5360   28.9420   11.5340 C.3       9 GLL5        0.0000 
     12 CA         16.5990   33.0570   10.1800 C.3       6 GLP5        0.0000 
     13 CA         18.7370   29.7660    9.1135 C.3       3 GLC5        0.0000 
     14 CA         17.1650   28.6490   10.2200 C.3       9 GLL5        0.0000 
     15 CA         20.3090   30.8830    8.0070 C.3       6 GLP5        0.0000 
     16 CA         17.1190   30.6460    9.4970 C.3       3 GLC5        0.0000 
     17 CA         17.0730   32.6430    8.7740 C.3       6 GLP5        0.0000 
     18 CA         17.2895   25.3675   13.1510 C.3       3 GLC5        0.0000 
     19 CA         18.0760   26.6120   11.8610 C.3       9 GLL5        0.0000 
     20 CA         16.5030   24.1230   14.4410 C.3       6 GLP5        0.0000 
     21 N          19.4320   27.8245   17.4505 N.am      2 SEC2        0.0000 
     22 N          19.9750   28.3220   16.1610 N.am      8 SEL2        0.0000 
     23 N          18.8890   27.3270   18.7400 N.am      5 SEP2        0.0000 
     24 O          20.8155   27.9375   17.0940 O.2       1 ALC1        0.0000 
     25 O          19.9750   28.3220   16.1610 O.2       7 ALL1        0.0000 
     26 O          21.6560   27.5530   18.0270 O.2       4 ALP1        0.0000 
     27 O          21.4615   28.7080   16.6740 O.2       1 ALC1        0.0000 
     28 O          22.9480   29.0940   17.1870 O.2       4 ALP1        0.0000 
     29 CA         21.2095   34.1870   13.3525 C.3       3 GLC5        0.0000 
     30 CA         22.2280   32.6120   14.5310 C.3       9 GLL5        0.0000 
     31 CA         20.1910   35.7620   12.1740 C.3       6 GLP5        0.0000 
     32 CA         23.3050   32.6975   12.7005 C.3       3 GLC5        0.0000 
     33 CA         24.3820   32.7830   10.8700 C.3       6 GLP5        0.0000 
     34 CA         22.9175   32.7545   18.7580 C.3       3 GLC5        0.0000 
     35 CA         22.4080   33.3440   16.9670 C.3       9 GLL5        0.0000 
     36 CA         23.4270   32.1650   20.5490 C.3       6 GLP5        0.0000 
     37 CA         14.7700   35.7305   15.3990 C.3       3 GLC5        0.0000 
     38 CA         16.5110   35.2980   16.7140 C.3       9 GLL5        0.0000 
     39 CA         13.0290   36.1630   14.0840 C.3       6 GLP5        0.0000 
     40 CA         15.3445   37.7020   15.7950 C.3       3 GLC5        0.0000 
     41 CA         16.6020   36.9690   17.0940 C.3       9 GLL5        0.0000 
     42 CA         14.0870   38.4350   14.4960 C.3       6 GLP5        0.0000 
     43 N          14.4115   34.6980   19.6800 N.am      2 SEC2        0.0000 
     44 N          14.9230   35.3360   18.3060 N.am      8 SEL2        0.0000 
     45 N          13.9000   34.0600   21.0540 N.am      5 SEP2        0.0000 
     46 CA         16.3465   32.9930   18.6350 C.3       3 GLC5        0.0000 
     47 CA         15.5740   34.5430   17.4320 C.3       9 GLL5        0.0000 
     48 CA         17.1190   31.4430   19.8380 C.3       6 GLP5        0.0000 
     49 CA         15.1965   30.6090   16.6060 C.3       3 GLC5        0.0000 
     50 CA         16.2240   32.5430   16.2450 C.3       9 GLL5        0.0000 
     51 CA         14.1690   28.6750   16.9670 C.3       6 GLP5        0.0000 
     52 CA         23.6545   29.7325   10.9540 C.3       3 GLC5        0.0000 
     53 CA         24.8810   31.3800   11.0770 C.3       6 GLP5        0.0000 
     54 CA         20.9348   29.3233    8.9865 C.3       3 GLC5        0.0000 
     55 CA         22.2530   28.0620   10.0820 C.3       9 GLL5        0.0000 
     56 CA         16.0910   28.9215   13.0488 C.3       3 GLC5        0.0000 
     57 CA         17.9970   27.9210   12.3590 C.3       9 GLL5        0.0000 
     58 CA         14.3140   29.3370   13.7950 C.3       6 GLP5        0.0000 
     59 CA         15.8835   28.0258    8.5102 C.3       3 GLC5        0.0000 
     60 CA         14.5690   28.0520    7.0550 C.3       6 GLP5        0.0000 
     61 CA         15.8777   25.7188    9.8457 C.3       3 GLC5        0.0000 
     62 CA         17.2310   27.3500    9.7110 C.3       9 GLL5        0.0000 
     63 CA         14.2900   24.5940    9.5650 C.3       6 GLP5        0.0000 
     64 CA         23.9120   32.0875   16.8163 C.3       3 GLC5        0.0000 
     65 CA         21.6520   32.4860   15.9480 C.3       9 GLL5        0.0000 
     66 CA         25.7940   31.2600   17.1750 C.3       6 GLP5        0.0000 
     67 CA         15.9432   31.7368   17.9360 C.3       3 GLC5        0.0000 
     68 CA         15.4390   33.1880   17.1910 C.3       9 GLL5        0.0000 
     69 CA         16.0550   30.6080   19.1540 C.3       6 GLP5        0.0000 
     70 CA         13.9116   33.1266   16.2251 C.3       3 GLC5        0.0000 
     71 CA         11.9580   33.0490   15.6720 C.3       6 GLP5        0.0000 
@<TRIPOS>BOND
@<TRIPOS>SUBSTRUCTURE
     1 ALC1        7 GROUP        1 X    ALC  0     ROOT ALC X 1
     2 SEC2       21 GROUP        1 X    SEC  0     **** SEC X 2
     3 GLC5        1 GROUP        1 X    GLC  0     **** GLC X 6
     4 ALP1        9 GROUP        1 Y    ALP  0     ROOT ALP Y 8
     5 SEP2       23 GROUP        1 Y    SEP  0     **** SEP Y 9
     6 GLP5        3 GROUP        1 Y    GLP  0     **** GLP Y 13
     7 ALL1        8 GROUP        1 Z    ALL  0     ROOT ALL Z 15
     8 SEL2       22 GROUP        1 Z    SEL  0     **** SEL Z 16
     9 GLL5        2 GROUP        1 Z    GLL  0     **** GLL Z 20
@<TRIPOS>SET

