#    Name: 2qi3_MZ5_1_ligand
#    Modification time : Mon Mar 24 22:11:11 2014

@<TRIPOS>MOLECULE
2qi3_MZ5_1_ligand
   74    76     1     0     0
SMALL
NO_CHARGES


@<TRIPOS>ATOM
      1 O22        21.4330   30.0840   11.9560 O.2       1 MZ5200      0.0000 
      2 C21        21.5390   28.9180   12.2790 C.2       1 MZ5200      0.0000 
      3 C22        22.6030   28.1080   11.5800 C.3       1 MZ5200      0.0000 
      4 C24        22.2530   28.0620   10.0820 C.3       1 MZ5200      0.0000 
      5 C26        20.8680   27.4650    9.8500 C.3       1 MZ5200      0.0000 
      6 C25        23.3090   27.3000    9.2750 C.3       1 MZ5200      0.0000 
      7 O23        22.6790   26.7540   12.0370 O.3       1 MZ5200      0.0000 
      8 N20        20.7450   28.3470   13.2010 N.am      1 MZ5200      0.0000 
      9 C19        19.6600   29.0970   13.8510 C.3       1 MZ5200      0.0000 
     10 C32        18.4030   28.2190   13.7830 C.3       1 MZ5200      0.0000 
     11 C38        17.9970   27.9210   12.3590 C.ar      1 MZ5200      0.0000 
     12 C37        17.5360   28.9420   11.5340 C.ar      1 MZ5200      0.0000 
     13 C36        17.1650   28.6490   10.2200 C.ar      1 MZ5200      0.0000 
     14 C35        17.2310   27.3500    9.7110 C.ar      1 MZ5200      0.0000 
     15 C34        17.7000   26.3370   10.5420 C.ar      1 MZ5200      0.0000 
     16 C33        18.0760   26.6120   11.8610 C.ar      1 MZ5200      0.0000 
     17 C17        20.0680   29.4470   15.2870 C.3       1 MZ5200      0.0000 
     18 O18        19.9750   28.3220   16.1610 O.3       1 MZ5200      0.0000 
     19 C16        19.1910   30.5480   15.8790 C.3       1 MZ5200      0.0000 
     20 N11        19.4240   31.8010   15.1370 N.pl3     1 MZ5200      0.0000 
     21 C12        20.1500   32.7950   15.9520 C.3       1 MZ5200      0.0000 
     22 C13        21.6520   32.4860   15.9480 C.3       1 MZ5200      0.0000 
     23 C14        22.2280   32.6120   14.5310 C.3       1 MZ5200      0.0000 
     24 C15        22.4080   33.3440   16.9670 C.3       1 MZ5200      0.0000 
     25 C18        22.0400   34.8110   16.9250 C.3       1 MZ5200      0.0000 
     26 S8         18.0790   32.3910   14.4330 S.o2      1 MZ5200      0.0000 
     27 O10        17.3170   31.2870   13.9400 O.2       1 MZ5200      0.0000 
     28 O9         18.5480   33.2510   13.3750 O.2       1 MZ5200      0.0000 
     29 C5         17.1760   33.2420   15.5010 C.ar      1 MZ5200      0.0000 
     30 C4         17.3210   34.6360   15.7500 C.ar      1 MZ5200      0.0000 
     31 C3         16.5110   35.2980   16.7140 C.ar      1 MZ5200      0.0000 
     32 S1         16.6020   36.9690   17.0940 S.3       1 MZ5200      0.0000 
     33 C1         15.3370   36.6190   18.2380 C.2       1 MZ5200      0.0000 
     34 N1         14.9230   35.3360   18.3060 N.2       1 MZ5200      0.0000 
     35 C2         15.5740   34.5430   17.4320 C.ar      1 MZ5200      0.0000 
     36 C7         15.4390   33.1880   17.1910 C.ar      1 MZ5200      0.0000 
     37 C6         16.2240   32.5430   16.2450 C.ar      1 MZ5200      0.0000 
     38 H          23.5487   28.6119   11.6639 H         1 MZ5200      0.0000 
     39 H          22.2363   29.0966    9.7127 H         1 MZ5200      0.0000 
     40 H          20.8556   27.3616   13.4970 H         1 MZ5200      0.0000 
     41 H          19.4723   30.0043   13.3051 H         1 MZ5200      0.0000 
     42 H          17.5863   28.7348   14.2987 H         1 MZ5200      0.0000 
     43 H          18.6004   27.2817   14.3137 H         1 MZ5200      0.0000 
     44 H          17.4684   29.9010   11.8851 H         1 MZ5200      0.0000 
     45 H          16.8315   29.4165    9.6054 H         1 MZ5200      0.0000 
     46 H          16.9432   27.1519    8.7573 H         1 MZ5200      0.0000 
     47 H          17.7723   25.3720   10.1845 H         1 MZ5200      0.0000 
     48 H          18.4109   25.8549   12.4676 H         1 MZ5200      0.0000 
     49 H          21.0903   29.8259   15.2684 H         1 MZ5200      0.0000 
     50 H          19.4480   30.6693   16.9288 H         1 MZ5200      0.0000 
     51 H          18.1502   30.2423   15.8003 H         1 MZ5200      0.0000 
     52 H          19.7981   32.7771   16.9848 H         1 MZ5200      0.0000 
     53 H          20.0048   33.8002   15.5529 H         1 MZ5200      0.0000 
     54 H          21.7650   31.4292   16.2536 H         1 MZ5200      0.0000 
     55 H          23.4905   33.2337   16.7857 H         1 MZ5200      0.0000 
     56 H          22.2105   32.9467   17.9770 H         1 MZ5200      0.0000 
     57 H          18.0208   35.1714   15.2258 H         1 MZ5200      0.0000 
     58 H          15.0694   37.4184   18.7091 H         1 MZ5200      0.0000 
     59 H          14.7376   32.6404   17.7268 H         1 MZ5200      0.0000 
     60 H          16.1039   31.5269   16.0863 H         1 MZ5200      0.0000 
     61 H          20.6349   27.4343    8.8780 H         1 MZ5200      0.0000 
     62 H          20.8042   26.5291   10.1964 H         1 MZ5200      0.0000 
     63 H          20.1537   27.9957   10.3061 H         1 MZ5200      0.0000 
     64 H          24.2113   27.7245    9.3498 H         1 MZ5200      0.0000 
     65 H          23.4033   26.3544    9.5862 H         1 MZ5200      0.0000 
     66 H          23.0804   27.2669    8.3020 H         1 MZ5200      0.0000 
     67 H          23.2074   32.4113   14.5090 H         1 MZ5200      0.0000 
     68 H          21.7853   31.9822   13.8928 H         1 MZ5200      0.0000 
     69 H          22.1094   33.5341   14.1625 H         1 MZ5200      0.0000 
     70 H          22.5503   35.3414   17.6020 H         1 MZ5200      0.0000 
     71 H          22.2306   35.2163   16.0309 H         1 MZ5200      0.0000 
     72 H          21.0682   34.9556   17.1112 H         1 MZ5200      0.0000 
     73 H          23.6433   26.5046   11.9479 H         1 MZ5200      0.0000 
     74 H          20.8757   28.2523   16.5897 H         1 MZ5200      0.0000 
@<TRIPOS>BOND
     1    2    1 2    
     2    3    2 1    
     3    8    2 am   
     4    4    3 1    
     5    7    3 1    
     6   38    3 1    
     7    5    4 1    
     8    6    4 1    
     9   39    4 1    
    10   61    5 1    
    11   62    5 1    
    12   63    5 1    
    13   64    6 1    
    14   65    6 1    
    15   66    6 1    
    16   73    7 1    
    17    9    8 1    
    18   40    8 1    
    19   10    9 1    
    20   17    9 1    
    21   41    9 1    
    22   11   10 1    
    23   42   10 1    
    24   43   10 1    
    25   12   11 ar   
    26   16   11 ar   
    27   13   12 ar   
    28   44   12 1    
    29   14   13 ar   
    30   45   13 1    
    31   15   14 ar   
    32   46   14 1    
    33   16   15 ar   
    34   47   15 1    
    35   48   16 1    
    36   18   17 1    
    37   19   17 1    
    38   49   17 1    
    39   74   18 1    
    40   20   19 1    
    41   50   19 1    
    42   51   19 1    
    43   21   20 1    
    44   26   20 1    
    45   22   21 1    
    46   52   21 1    
    47   53   21 1    
    48   23   22 1    
    49   24   22 1    
    50   54   22 1    
    51   67   23 1    
    52   68   23 1    
    53   69   23 1    
    54   25   24 1    
    55   55   24 1    
    56   56   24 1    
    57   70   25 1    
    58   71   25 1    
    59   72   25 1    
    60   27   26 2    
    61   28   26 2    
    62   29   26 1    
    63   30   29 ar   
    64   37   29 ar   
    65   31   30 ar   
    66   57   30 1    
    67   32   31 1    
    68   35   31 ar   
    69   33   32 1    
    70   34   33 2    
    71   58   33 1    
    72   35   34 1    
    73   36   35 ar   
    74   37   36 ar   
    75   59   36 1    
    76   60   37 1    
@<TRIPOS>SUBSTRUCTURE
     1 MZ5200      1 GROUP   
@<TRIPOS>SET

