#    Name: 3w32_W32_1_INTS_M
#    Modification time : Tue Mar 25 02:08:52 2014

@<TRIPOS>MOLECULE
3w32_W32_1_INTS_M
  109     0     9     0     0
SMALL
NO_CHARGES


@<TRIPOS>ATOM
      1 CA         19.4150   30.6740    4.9960 C.3       3 GLC5        0.0000 
      2 CA         17.7660   30.2650    6.2690 C.3       9 GLL5        0.0000 
      3 CA         21.0640   31.0830    3.7230 C.3       6 GLP5        0.0000 
      4 CA         18.7985   30.2865    9.9155 C.3       3 GLC5        0.0000 
      5 CA         17.6200   31.9950    9.7720 C.3       9 GLL5        0.0000 
      6 CA         19.9770   28.5780   10.0590 C.3       6 GLP5        0.0000 
      7 CA         14.4370   31.1730    5.6150 C.3       3 GLC5        0.0000 
      8 CA         15.6050   30.4080    7.2680 C.3       9 GLL5        0.0000 
      9 CA         13.2690   31.9380    3.9620 C.3       6 GLP5        0.0000 
     10 CA         14.4655   35.2560   10.9600 C.3       3 GLC5        0.0000 
     11 CA         15.7860   33.9910   10.3130 C.3       9 GLL5        0.0000 
     12 CA         13.1450   36.5210   11.6070 C.3       6 GLP5        0.0000 
     13 CA         12.9465   35.0435   12.4930 C.3       3 GLC5        0.0000 
     14 CA         12.7480   33.5660   13.3790 C.3       9 GLL5        0.0000 
     15 CA         12.4925   33.4995   11.4115 C.3       3 GLC5        0.0000 
     16 CA         12.2370   33.4330    9.4440 C.3       6 GLP5        0.0000 
     17 CA         10.9610   34.6135   13.5175 C.3       3 GLC5        0.0000 
     18 CA          9.1740   35.6610   13.6560 C.3       6 GLP5        0.0000 
     19 CA         11.5135   32.3750   14.4035 C.3       3 GLC5        0.0000 
     20 CA         10.2790   31.1840   15.4280 C.3       6 GLP5        0.0000 
     21 CA         13.3545   32.1330   14.0975 C.3       3 GLC5        0.0000 
     22 CA         13.9610   30.7000   14.8160 C.3       6 GLP5        0.0000 
     23 CA         12.4425   36.0650   15.1050 C.3       3 GLC5        0.0000 
     24 CA         13.6990   34.5620   15.1920 C.3       9 GLL5        0.0000 
     25 CA         11.1860   37.5680   15.0180 C.3       6 GLP5        0.0000 
     26 CA         12.1205   33.3300   15.9005 C.3       3 GLC5        0.0000 
     27 CA         10.5420   32.0980   16.6090 C.3       6 GLP5        0.0000 
     28 CA         16.1100   35.6870   12.5870 C.3       3 GLC5        0.0000 
     29 CA         14.9890   33.9350   13.3050 C.3       9 GLL5        0.0000 
     30 CA         17.2310   37.4390   11.8690 C.3       6 GLP5        0.0000 
     31 CA         16.6970   36.2340   13.5195 C.3       3 GLC5        0.0000 
     32 CA         16.1630   35.0290   15.1700 C.3       9 GLL5        0.0000 
     33 CA         15.5580   32.6605   17.1440 C.3       3 GLC5        0.0000 
     34 CA         15.5660   34.8150   17.5820 C.3       9 GLL5        0.0000 
     35 CA         15.5500   30.5060   16.7060 C.3       6 GLP5        0.0000 
     36 CA         15.5055   35.8970   19.1620 C.3       3 GLC5        0.0000 
     37 CA         15.4450   36.9790   20.7420 C.3       6 GLP5        0.0000 
     38 CA         14.9270   37.3305   16.3240 C.3       3 GLC5        0.0000 
     39 CA         14.3100   35.6400   17.4090 C.3       9 GLL5        0.0000 
     40 CA         15.5440   39.0210   15.2390 C.3       6 GLP5        0.0000 
     41 CA         12.7480   36.6040   16.2135 C.3       3 GLC5        0.0000 
     42 CA         14.1900   36.1985   19.1200 C.3       3 GLC5        0.0000 
     43 CA         14.0700   36.7570   20.8310 C.3       6 GLP5        0.0000 
     44 CA         12.9520   37.1610   18.1320 C.3       3 GLC5        0.0000 
     45 CA         11.5940   38.6820   18.8550 C.3       6 GLP5        0.0000 
     46 CA         18.9930   38.0860   15.9390 C.3       3 GLC5        0.0000 
     47 CA         20.0480   36.3220   16.1570 C.3       9 GLL5        0.0000 
     48 CA         17.9380   39.8500   15.7210 C.3       6 GLP5        0.0000 
     49 CA         21.2180   38.1565   15.7165 C.3       3 GLC5        0.0000 
     50 CA         22.3880   39.9910   15.2760 C.3       6 GLP5        0.0000 
     51 N          11.2430   34.1595   15.0335 N.am      2 SEC2        0.0000 
     52 N          12.5980   34.0910   14.5900 N.am      8 SEL2        0.0000 
     53 N           9.8880   34.2280   15.4770 N.am      5 SEP2        0.0000 
     54 O          12.3545   34.6995   17.3095 O.2       1 ALC1        0.0000 
     55 O          13.3910   35.0600   16.4560 O.2       7 ALL1        0.0000 
     56 O          11.3180   34.3390   18.1630 O.2       4 ALP1        0.0000 
     57 CA         15.0850   27.2535    9.6470 C.3       3 GLC5        0.0000 
     58 CA         14.0970   27.6110    8.1150 C.3       9 GLL5        0.0000 
     59 CA         16.0730   26.8960   11.1790 C.3       6 GLP5        0.0000 
     60 CA         14.4095   26.1915    7.9505 C.3       3 GLC5        0.0000 
     61 CA         14.7220   24.7720    7.7860 C.3       6 GLP5        0.0000 
     62 CA         12.0025   29.7965    5.9795 C.3       3 GLC5        0.0000 
     63 CA         13.1660   29.4380    7.5620 C.3       9 GLL5        0.0000 
     64 CA         10.8390   30.1550    4.3970 C.3       6 GLP5        0.0000 
     65 CA         12.2890   31.1280    7.9335 C.3       3 GLC5        0.0000 
     66 CA         11.4120   32.8180    8.3050 C.3       6 GLP5        0.0000 
     67 CA         14.0600   27.4750    4.1735 C.3       3 GLC5        0.0000 
     68 CA         13.5590   27.8560    6.0390 C.3       9 GLL5        0.0000 
     69 CA         14.5610   27.0940    2.3080 C.3       6 GLP5        0.0000 
     70 CA         12.7160   28.9320    4.6615 C.3       3 GLC5        0.0000 
     71 CA         11.8730   30.0080    3.2840 C.3       6 GLP5        0.0000 
     72 CA         16.7155   35.2030    7.5105 C.3       3 GLC5        0.0000 
     73 CA         15.1370   34.3430    7.7020 C.3       9 GLL5        0.0000 
     74 CA         18.2940   36.0630    7.3190 C.3       6 GLP5        0.0000 
     75 CA         15.5120   34.4330    5.8055 C.3       3 GLC5        0.0000 
     76 CA         15.8870   34.5230    3.9090 C.3       6 GLP5        0.0000 
     77 CA         13.6870   33.8880    8.5730 C.3       3 GLC5        0.0000 
     78 CA         16.9305   28.4965    3.9670 C.3       3 GLC5        0.0000 
     79 CA         16.2910   28.4180    6.0800 C.3       9 GLL5        0.0000 
     80 CA         16.9540   28.2890    1.9950 C.3       6 GLP5        0.0000 
     81 CA         17.9660   28.3910    7.4440 C.3       3 GLC5        0.0000 
     82 CA         17.5230   28.9900    5.7980 C.3       9 GLL5        0.0000 
     83 CA         19.0250   28.0780    8.9490 C.3       6 GLP5        0.0000 
     84 CA         17.1118   30.5568   11.5347 C.3       3 GLC5        0.0000 
     85 CA         16.7140   28.9160   12.6490 C.3       6 GLP5        0.0000 
     86 CA         18.1615   29.3465    7.7903 C.3       3 GLC5        0.0000 
     87 CA         16.8300   30.9650    6.9940 C.3       9 GLL5        0.0000 
     88 CA         17.2562   28.9245    7.9937 C.3       3 GLC5        0.0000 
     89 CA         16.6820   35.5667   11.3508 C.3       3 GLC5        0.0000 
     90 CA         16.4800   33.3980   11.3520 C.3       9 GLL5        0.0000 
     91 CA         17.0922   34.9273    8.4900 C.3       3 GLC5        0.0000 
     92 CA         14.0637   33.6123    9.5525 C.3       3 GLC5        0.0000 
     93 CA         15.9950   33.5920    9.0090 C.3       9 GLL5        0.0000 
     94 CA         17.4911   31.5966    5.1189 C.3       3 GLC5        0.0000 
     95 CA         17.7450   32.8970    3.7240 C.3       6 GLP5        0.0000 
     96 CA         18.6116   33.3931    8.8599 C.3       3 GLC5        0.0000 
     97 CA         16.9230   32.5970    8.7430 C.3       9 GLL5        0.0000 
     98 CA         20.0070   34.3890    8.1380 C.3       6 GLP5        0.0000 
     99 CA         13.8999   35.3760   12.8505 C.3       3 GLC5        0.0000 
    100 CA         14.3079   32.4655   14.4550 C.3       3 GLC5        0.0000 
    101 CA         15.9235   37.0667   15.5282 C.3       3 GLC5        0.0000 
    102 CA         14.4585   34.3077   19.0622 C.3       3 GLC5        0.0000 
    103 CA         13.9790   33.3880   20.6290 C.3       6 GLP5        0.0000 
    104 CA         13.9982   26.4720    6.5447 C.3       3 GLC5        0.0000 
    105 CA         14.1980   24.7550    6.5100 C.3       6 GLP5        0.0000 
    106 CA         12.7264   28.1281    9.1484 C.3       3 GLC5        0.0000 
    107 CA         11.8360   27.5040   10.7070 C.3       6 GLP5        0.0000 
    108 CA         11.7569   27.8131    6.7592 C.3       3 GLC5        0.0000 
    109 CA          9.9260   27.3220    6.7040 C.3       6 GLP5        0.0000 
@<TRIPOS>BOND
@<TRIPOS>SUBSTRUCTURE
     1 ALC1       54 GROUP        1 X    ALC  0     ROOT ALC X 1
     2 SEC2       51 GROUP        1 X    SEC  0     **** SEC X 2
     3 GLC5        1 GROUP        1 X    GLC  0     **** GLC X 6
     4 ALP1       56 GROUP        1 Y    ALP  0     ROOT ALP Y 8
     5 SEP2       53 GROUP        1 Y    SEP  0     **** SEP Y 9
     6 GLP5        3 GROUP        1 Y    GLP  0     **** GLP Y 13
     7 ALL1       55 GROUP        1 Z    ALL  0     ROOT ALL Z 15
     8 SEL2       52 GROUP        1 Z    SEL  0     **** SEL Z 16
     9 GLL5        2 GROUP        1 Z    GLL  0     **** GLL Z 20
@<TRIPOS>SET

