#    Name: 3w32_W32_1_ligand
#    Modification time : Tue Mar 25 02:08:52 2014

@<TRIPOS>MOLECULE
3w32_W32_1_ligand
   62    65     1     0     0
SMALL
NO_CHARGES


@<TRIPOS>ATOM
      1 C1         17.5230   28.9900    5.7980 C.ar      1 W321101     0.0000 
      2 C2         16.2910   28.4180    6.0800 C.ar      1 W321101     0.0000 
      3 C3         17.3990   32.4000   11.0690 C.ar      1 W321101     0.0000 
      4 C4         17.7660   30.2650    6.2690 C.ar      1 W321101     0.0000 
      5 C5         17.6200   31.9950    9.7720 C.ar      1 W321101     0.0000 
      6 C6         15.6050   30.4080    7.2680 C.ar      1 W321101     0.0000 
      7 C7         15.7860   33.9910   10.3130 C.ar      1 W321101     0.0000 
      8 C8         12.7480   33.5660   13.3790 C.ar      1 W321101     0.0000 
      9 C9         14.9420   34.4920   14.5740 C.ar      1 W321101     0.0000 
     10 C10        15.3700   29.1340    6.8090 C.ar      1 W321101     0.0000 
     11 C11        16.4800   33.3980   11.3520 C.ar      1 W321101     0.0000 
     12 C12        16.8300   30.9650    6.9940 C.ar      1 W321101     0.0000 
     13 C13        16.9230   32.5970    8.7430 C.ar      1 W321101     0.0000 
     14 C14        15.9950   33.5920    9.0090 C.ar      1 W321101     0.0000 
     15 C15        13.6990   34.5620   15.1920 C.ar      1 W321101     0.0000 
     16 C16        14.9890   33.9350   13.3050 C.ar      1 W321101     0.0000 
     17 C17        16.1630   35.0290   15.1700 C.2       1 W321101     0.0000 
     18 C18        16.4430   35.1960   16.4650 C.2       1 W321101     0.0000 
     19 C19        17.7340   35.8640   16.8100 C.2       1 W321101     0.0000 
     20 C20        15.5660   34.8150   17.5820 C.3       1 W321101     0.0000 
     21 C21        14.3100   35.6400   17.4090 C.3       1 W321101     0.0000 
     22 C22        23.0390   35.0530   18.7000 C.3       1 W321101     0.0000 
     23 C23        20.0480   36.3220   16.1570 C.3       1 W321101     0.0000 
     24 C24        20.7350   35.5380   17.2580 C.3       1 W321101     0.0000 
     25 C25        14.0380   28.5220    7.1200 C.3       1 W321101     0.0000 
     26 N26        12.5980   34.0910   14.5900 N.ar      1 W321101     0.0000 
     27 N27        13.8910   33.4610   12.6950 N.ar      1 W321101     0.0000 
     28 N28        13.3910   35.0600   16.4560 N.pl3     1 W321101     0.0000 
     29 N29        16.2480   33.8570   12.6500 N.pl3     1 W321101     0.0000 
     30 N30        18.7330   35.7910   15.8670 N.am      1 W321101     0.0000 
     31 O31        17.8350   36.4820   17.8600 O.2       1 W321101     0.0000 
     32 O32        23.0660   36.4370   16.4890 O.2       1 W321101     0.0000 
     33 O33        21.9970   37.4430   18.5570 O.2       1 W321101     0.0000 
     34 O34        17.1180   32.2490    7.4240 O.3       1 W321101     0.0000 
     35 F35        14.0970   27.6110    8.1150 F         1 W321101     0.0000 
     36 F36        13.1660   29.4380    7.5620 F         1 W321101     0.0000 
     37 F37        13.5590   27.8560    6.0390 F         1 W321101     0.0000 
     38 S38        22.2760   36.3050   17.7000 S.o2      1 W321101     0.0000 
     39 CL1        15.1370   34.3430    7.7020 Cl        1 W321101     0.0000 
     40 H          18.2221   28.4844    5.2618 H         1 W321101     0.0000 
     41 H          16.0746   27.4724    5.7466 H         1 W321101     0.0000 
     42 H          17.9234   31.9564   11.8450 H         1 W321101     0.0000 
     43 H          18.6912   30.7103    6.0670 H         1 W321101     0.0000 
     44 H          18.2992   31.2493    9.5687 H         1 W321101     0.0000 
     45 H          14.8981   30.9185    7.7908 H         1 W321101     0.0000 
     46 H          15.1026   34.7423   10.5176 H         1 W321101     0.0000 
     47 H          11.8499   33.1813   12.8917 H         1 W321101     0.0000 
     48 H          16.9057   35.3140   14.4319 H         1 W321101     0.0000 
     49 H          16.0201   35.0565   18.5263 H         1 W321101     0.0000 
     50 H          15.3128   33.7712   17.5325 H         1 W321101     0.0000 
     51 H          14.6086   36.6596   17.0961 H         1 W321101     0.0000 
     52 H          13.8303   35.7482   18.4013 H         1 W321101     0.0000 
     53 H          20.6905   36.2923   15.2617 H         1 W321101     0.0000 
     54 H          19.9856   37.3762   16.4734 H         1 W321101     0.0000 
     55 H          21.0298   34.5567   16.9595 H         1 W321101     0.0000 
     56 H          20.1936   35.5347   18.1777 H         1 W321101     0.0000 
     57 H          12.3706   35.0175   16.7734 H         1 W321101     0.0000 
     58 H          17.0943   34.1840   13.2145 H         1 W321101     0.0000 
     59 H          18.5780   35.3665   14.9491 H         1 W321101     0.0000 
     60 H          23.3073   34.2569   18.1576 H         1 W321101     0.0000 
     61 H          23.8642   35.3909   19.1526 H         1 W321101     0.0000 
     62 H          22.4245   34.7252   19.4176 H         1 W321101     0.0000 
@<TRIPOS>BOND
     1    2    1 ar   
     2    4    1 ar   
     3   40    1 1    
     4   10    2 ar   
     5   41    2 1    
     6    5    3 ar   
     7   11    3 ar   
     8   42    3 1    
     9   12    4 ar   
    10   43    4 1    
    11   13    5 ar   
    12   44    5 1    
    13   10    6 ar   
    14   12    6 ar   
    15   45    6 1    
    16   11    7 ar   
    17   14    7 ar   
    18   46    7 1    
    19   26    8 ar   
    20   27    8 ar   
    21   47    8 1    
    22   15    9 ar   
    23   16    9 ar   
    24   17    9 1    
    25   25   10 1    
    26   29   11 1    
    27   34   12 1    
    28   14   13 ar   
    29   34   13 1    
    30   39   14 1    
    31   26   15 ar   
    32   28   15 1    
    33   27   16 ar   
    34   29   16 1    
    35   18   17 2    
    36   48   17 1    
    37   19   18 1    
    38   20   18 1    
    39   30   19 am   
    40   31   19 2    
    41   21   20 1    
    42   49   20 1    
    43   50   20 1    
    44   28   21 1    
    45   51   21 1    
    46   52   21 1    
    47   38   22 1    
    48   60   22 1    
    49   61   22 1    
    50   62   22 1    
    51   24   23 1    
    52   30   23 1    
    53   53   23 1    
    54   54   23 1    
    55   38   24 1    
    56   55   24 1    
    57   56   24 1    
    58   35   25 1    
    59   36   25 1    
    60   37   25 1    
    61   57   28 1    
    62   58   29 1    
    63   59   30 1    
    64   38   32 2    
    65   38   33 2    
@<TRIPOS>SUBSTRUCTURE
     1 W321101     1 GROUP   
@<TRIPOS>SET

