#    Name: 2ZDZ_1_CAVITY_N1_6.mol2
#    Modification time : Tue Mar 11 05:34:17 2014

@<TRIPOS>MOLECULE
2ZDZ_1_CAVITY_N1_6.mol2
  117     0     7     0     0
SMALL
NO_CHARGES


@<TRIPOS>ATOM
      1 CA         16.4358   -9.7825   21.9651 C.3       6 GLY6        0.0000 
      2 CZ         14.4597   -9.6215   21.2107 C.ar      5 PHE5        0.0000 
      3 CZ         15.6536  -10.4692   20.8850 C.ar      5 PHE5        0.0000 
      4 CA         16.8475  -11.3169   20.5594 C.3       6 GLY6        0.0000 
      5 CA         18.0414  -12.1645   20.2337 C.3       6 GLY6        0.0000 
      6 CZ         13.6775  -10.3083   20.1306 C.ar      5 PHE5        0.0000 
      7 CZ         14.8714  -11.1559   19.8049 C.ar      5 PHE5        0.0000 
      8 CA         16.0653  -12.0036   19.4793 C.3       6 GLY6        0.0000 
      9 CA         18.4531  -13.6989   18.8280 C.3       6 GLY6        0.0000 
     10 CZ         12.8953  -10.9950   19.0505 C.ar      5 PHE5        0.0000 
     11 O          14.0892  -11.8427   18.7249 O.2       2 ALA2        0.0000 
     12 O          16.4770  -13.5380   18.0736 O.2       2 ALA2        0.0000 
     13 CA         17.6709  -14.3857   17.7479 C.3       6 GLY6        0.0000 
     14 DU         16.8971   -8.7530   20.9765 H         7 CUB7        0.0000 
     15 DU         18.0910   -9.6006   20.6508 H         7 CUB7        0.0000 
     16 O          19.2849  -10.4483   20.3252 O.2       2 ALA2        0.0000 
     17 DU         14.9210   -8.5920   20.2221 H         7 CUB7        0.0000 
     18 DU         16.1149   -9.4397   19.8964 H         7 CUB7        0.0000 
     19 DU         17.3088  -10.2874   19.5707 H         7 CUB7        0.0000 
     20 O          18.5027  -11.1350   19.2451 O.2       2 ALA2        0.0000 
     21 O          19.6966  -11.9827   18.9194 O.2       2 ALA2        0.0000 
     22 DU         14.1388   -9.2788   19.1420 H         7 CUB7        0.0000 
     23 DU         15.3327  -10.1264   18.8163 H         7 CUB7        0.0000 
     24 DU         16.5266  -10.9741   18.4907 H         7 CUB7        0.0000 
     25 CA         17.7205  -11.8218   18.1650 C.3       6 GLY6        0.0000 
     26 CA         18.9144  -12.6695   17.8393 C.3       6 GLY6        0.0000 
     27 CZ         13.3566   -9.9655   18.0619 C.ar      5 PHE5        0.0000 
     28 O          14.5505  -10.8132   17.7362 O.2       2 ALA2        0.0000 
     29 O          15.7444  -11.6608   17.4106 O.2       2 ALA2        0.0000 
     30 O          16.9383  -12.5085   17.0849 O.2       2 ALA2        0.0000 
     31 CA         18.1322  -13.3562   16.7593 C.3       6 GLY6        0.0000 
     32 CZ         13.7683  -11.4999   16.6562 C.ar      5 PHE5        0.0000 
     33 O          14.9622  -12.3476   16.3305 O.2       2 ALA2        0.0000 
     34 CZ         16.1561  -13.1953   16.0049 C.ar      5 PHE5        0.0000 
     35 CZ         17.3500  -14.0429   15.6792 C.ar      5 PHE5        0.0000 
     36 DU         18.5523   -8.5712   19.6622 H         7 CUB7        0.0000 
     37 DU         19.7462   -9.4188   19.3365 H         7 CUB7        0.0000 
     38 O          20.9401  -10.2665   19.0109 O.2       2 ALA2        0.0000 
     39 N          22.1340  -11.1142   18.6852 N.2       2 ALA2        0.0000 
     40 DU         17.7701   -9.2579   18.5821 H         7 CUB7        0.0000 
     41 DU         18.9640  -10.1056   18.2564 H         7 CUB7        0.0000 
     42 N          20.1579  -10.9532   17.9308 N.2       2 ALA2        0.0000 
     43 DU         14.6001   -8.2493   18.1534 H         7 CUB7        0.0000 
     44 DU         15.7940   -9.0970   17.8277 H         7 CUB7        0.0000 
     45 CA         16.9879   -9.9446   17.5020 C.3       6 GLY6        0.0000 
     46 CA         18.1818  -10.7923   17.1764 C.3       6 GLY6        0.0000 
     47 CA         19.3757  -11.6400   16.8507 C.3       6 GLY6        0.0000 
     48 N          20.5696  -12.4876   16.5251 N.2       2 ALA2        0.0000 
     49 CA         13.8179   -8.9360   17.0733 C.3       6 GLY6        0.0000 
     50 CA         15.0118   -9.7837   16.7476 C.3       6 GLY6        0.0000 
     51 CA         16.2057  -10.6314   16.4220 C.3       6 GLY6        0.0000 
     52 CA         17.3996  -11.4790   16.0963 C.3       6 GLY6        0.0000 
     53 CA         18.5935  -12.3267   15.7706 C.3       6 GLY6        0.0000 
     54 N          19.7874  -13.1744   15.4450 N.2       2 ALA2        0.0000 
     55 CA         13.0357   -9.6228   15.9932 C.3       6 GLY6        0.0000 
     56 CA         15.4235  -11.3181   15.3419 C.3       6 GLY6        0.0000 
     57 CA         16.6174  -12.1658   15.0162 C.3       6 GLY6        0.0000 
     58 O          17.8113  -13.0134   14.6906 O.2       2 ALA2        0.0000 
     59 OG         19.7957   -6.8549   19.7536 O.2       1 SER1        0.0000 
     60 DU         17.8196   -6.6940   18.9992 H         7 CUB7        0.0000 
     61 N          19.0135   -7.5417   18.6736 N.2       2 ALA2        0.0000 
     62 OG         20.2074   -8.3893   18.3479 O.2       1 SER1        0.0000 
     63 OG         21.4013   -9.2370   18.0222 O.2       1 SER1        0.0000 
     64 DU         15.8436   -6.5331   18.2448 H         7 CUB7        0.0000 
     65 DU         17.0375   -7.3807   17.9191 H         7 CUB7        0.0000 
     66 N          18.2314   -8.2284   17.5935 N.2       2 ALA2        0.0000 
     67 N          19.4253   -9.0761   17.2678 N.2       2 ALA2        0.0000 
     68 N          20.6192   -9.9237   16.9422 N.2       2 ALA2        0.0000 
     69 N          21.8131  -10.7714   16.6165 N.2       2 ALA2        0.0000 
     70 DU         13.8675   -6.3721   17.4904 H         7 CUB7        0.0000 
     71 NZ         15.0614   -7.2198   17.1647 N.2       4 LYS4        0.0000 
     72 NZ         16.2553   -8.0675   16.8391 N.2       4 LYS4        0.0000 
     73 CA         17.4492   -8.9151   16.5134 C.3       6 GLY6        0.0000 
     74 CA         19.8370  -10.6105   15.8621 C.3       6 GLY6        0.0000 
     75 N          21.0309  -11.4582   15.5364 N.2       2 ALA2        0.0000 
     76 NZ         14.2792   -7.9065   16.0847 N.2       4 LYS4        0.0000 
     77 NZ         15.4731   -8.7542   15.7590 N.2       4 LYS4        0.0000 
     78 OG         19.4336   -2.7566   21.5765 O.2       1 SER1        0.0000 
     79 OG         20.6275   -3.6043   21.2508 O.2       1 SER1        0.0000 
     80 OD1        21.8214   -4.4520   20.9252 O.3       3 ASP3        0.0000 
     81 O          16.2636   -1.7480   21.1477 O.2       2 ALA2        0.0000 
     82 O          17.4575   -2.5957   20.8221 O.2       2 ALA2        0.0000 
     83 DU         18.6514   -3.4434   20.4964 H         7 CUB7        0.0000 
     84 DU         19.8453   -4.2910   20.1707 H         7 CUB7        0.0000 
     85 OG         21.0392   -5.1387   19.8451 O.2       1 SER1        0.0000 
     86 DU         16.6753   -3.2824   19.7420 H         7 CUB7        0.0000 
     87 DU         17.8692   -4.1301   19.4163 H         7 CUB7        0.0000 
     88 DU         19.0631   -4.9778   19.0907 H         7 CUB7        0.0000 
     89 OG         20.2570   -5.8254   18.7650 O.2       1 SER1        0.0000 
     90 DU         17.0870   -4.8168   18.3363 H         7 CUB7        0.0000 
     91 N          18.2809   -5.6645   18.0106 N.2       2 ALA2        0.0000 
     92 N          19.4748   -6.5122   17.6849 N.2       2 ALA2        0.0000 
     93 CZ         20.6687   -7.3598   17.3593 C.ar      5 PHE5        0.0000 
     94 N          15.1109   -4.6559   17.5818 N.2       2 ALA2        0.0000 
     95 DU         16.3048   -5.5036   17.2562 H         7 CUB7        0.0000 
     96 N          17.4987   -6.3512   16.9305 N.2       2 ALA2        0.0000 
     97 N          14.3287   -5.3426   16.5018 N.2       2 ALA2        0.0000 
     98 NZ         15.5226   -6.1903   16.1761 N.2       4 LYS4        0.0000 
     99 NZ         16.7165   -7.0380   15.8504 N.2       4 LYS4        0.0000 
    100 OG         19.8949   -1.7271   20.5878 O.2       1 SER1        0.0000 
    101 OG         21.0888   -2.5748   20.2622 O.2       1 SER1        0.0000 
    102 O          17.9188   -1.5662   19.8334 O.2       2 ALA2        0.0000 
    103 CA         19.1127   -2.4139   19.5078 C.3       6 GLY6        0.0000 
    104 CA         20.3066   -3.2615   19.1821 C.3       6 GLY6        0.0000 
    105 CZ         21.5005   -4.1092   18.8565 C.ar      5 PHE5        0.0000 
    106 NZ         18.3305   -3.1006   18.4277 N.2       4 LYS4        0.0000 
    107 CA         19.5244   -3.9483   18.1020 C.3       6 GLY6        0.0000 
    108 CZ         20.7183   -4.7960   17.7764 C.ar      5 PHE5        0.0000 
    109 NZ         17.5483   -3.7873   17.3476 N.2       4 LYS4        0.0000 
    110 NZ         18.7422   -4.6350   17.0220 N.2       4 LYS4        0.0000 
    111 OG         15.5722   -3.6264   16.5932 O.2       1 SER1        0.0000 
    112 NZ         16.7661   -4.4741   16.2675 N.2       4 LYS4        0.0000 
    113 N          17.9600   -5.3218   15.9419 N.2       2 ALA2        0.0000 
    114 NZ         15.9839   -5.1608   15.1875 N.2       4 LYS4        0.0000 
    115 CA         19.5740   -1.3844   18.5191 C.3       6 GLY6        0.0000 
    116 CA         20.7679   -2.2321   18.1935 C.3       6 GLY6        0.0000 
    117 NZ         18.7918   -2.0711   17.4391 N.2       4 LYS4        0.0000 
@<TRIPOS>BOND
@<TRIPOS>SUBSTRUCTURE
     1 SER1       59 GROUP   
     2 ALA2       11 GROUP   
     3 ASP3       80 GROUP   
     4 LYS4       71 GROUP   
     5 PHE5        2 GROUP   
     6 GLY6        1 GROUP   
     7 CUB7       14 GROUP   
@<TRIPOS>SET

