#    Name: 2zdz_310_1_INTS_M
#    Modification time : Tue Mar 25 10:38:02 2014

@<TRIPOS>MOLECULE
2zdz_310_1_INTS_M
   62     0     9     0     0
SMALL
NO_CHARGES


@<TRIPOS>ATOM
      1 OD1        16.5335   -5.3005   13.8325 O.co2     2 ASC3        0.0000 
      2 OD1        16.7370   -5.6460   16.2110 O.co2     8 ASL3        0.0000 
      3 OD1        16.1730   -5.7930   12.5490 O.co2     5 ASP3        0.0000 
      4 OD1        15.8105   -7.2580   14.7375 O.co2     2 ASC3        0.0000 
      5 OD1        15.6310   -7.7080   13.4520 O.co2     5 ASP3        0.0000 
      6 OD1        17.2505   -3.5680   15.1015 O.co2     2 ASC3        0.0000 
      7 OD1        17.6070   -2.3280   15.0870 O.co2     5 ASP3        0.0000 
      8 CA          6.9810    0.9245   13.6190 C.3       3 GLC5        0.0000 
      9 CA          8.5670    0.3980   13.0210 C.3       9 GLL5        0.0000 
     10 CA          5.3950    1.4510   14.2170 C.3       6 GLP5        0.0000 
     11 CA          8.0165   -1.4070   12.0335 C.3       3 GLC5        0.0000 
     12 CA          7.4660   -3.2120   11.0460 C.3       6 GLP5        0.0000 
     13 CA          9.2050    1.4055   14.4400 C.3       3 GLC5        0.0000 
     14 CA          9.8430    2.4130   15.8590 C.3       6 GLP5        0.0000 
     15 CA          9.9920   -4.4920   11.9930 C.3       3 GLC5        0.0000 
     16 CA         10.3480   -2.9990   13.3120 C.3       9 GLL5        0.0000 
     17 CA          9.6360   -5.9850   10.6740 C.3       6 GLP5        0.0000 
     18 CA         16.4505   -9.2695   15.2725 C.3       3 GLC5        0.0000 
     19 CA         14.7530   -8.8700   16.4900 C.3       9 GLL5        0.0000 
     20 CA         18.1480   -9.6690   14.0550 C.3       6 GLP5        0.0000 
     21 CA         14.0960   -9.4715   14.9180 C.3       3 GLC5        0.0000 
     22 CA         13.4390  -10.0730   13.3460 C.3       6 GLP5        0.0000 
     23 O          15.8105   -7.2580   14.7375 O.2       1 ALC1        0.0000 
     24 O          15.9900   -6.8080   16.0230 O.2       7 ALL1        0.0000 
     25 O          15.6310   -7.7080   13.4520 O.2       4 ALP1        0.0000 
     26 O          16.5335   -5.3005   13.8325 O.2       1 ALC1        0.0000 
     27 O          16.8940   -4.8080   15.1160 O.2       7 ALL1        0.0000 
     28 O          16.1730   -5.7930   12.5490 O.2       4 ALP1        0.0000 
     29 O          17.2505   -3.5680   15.1015 O.2       1 ALC1        0.0000 
     30 O          17.6070   -2.3280   15.0870 O.2       4 ALP1        0.0000 
     31 CA         16.6835  -10.9860   14.9680 C.3       3 GLC5        0.0000 
     32 CA         15.2190  -12.3030   15.8810 C.3       9 GLL5        0.0000 
     33 CA         15.2730  -14.1855   16.3755 C.3       3 GLC5        0.0000 
     34 CA         15.3270  -16.0680   16.8700 C.3       6 GLP5        0.0000 
     35 CA         13.1400  -12.3875   16.4505 C.3       3 GLC5        0.0000 
     36 CA         11.0610  -12.4720   17.0200 C.3       6 GLP5        0.0000 
     37 CA         14.3290  -11.1880   14.6135 C.3       3 GLC5        0.0000 
     38 CA         16.5305  -12.7360   19.7945 C.3       3 GLC5        0.0000 
     39 CA         15.8920  -11.0840   18.2520 C.3       9 GLL5        0.0000 
     40 CA         16.7010  -14.5320   20.8290 C.3       6 GLP5        0.0000 
     41 CA         17.5493  -10.9090   15.5955 C.3       3 GLC5        0.0000 
     42 CA         17.6040  -12.4040   17.1030 C.3       9 GLL5        0.0000 
     43 CA         17.3324  -13.2935   19.3551 C.3       3 GLC5        0.0000 
     44 CA         19.2177  -13.9250   17.9588 C.3       3 GLC5        0.0000 
     45 CA         18.5170  -12.1060   18.1200 C.3       9 GLL5        0.0000 
     46 CA         20.3750  -15.5950   18.3060 C.3       6 GLP5        0.0000 
     47 CA         10.1402   -7.2568   14.4195 C.3       3 GLC5        0.0000 
     48 CA          9.5910   -7.6380   16.5140 C.3       9 GLL5        0.0000 
     49 CA         10.4850   -7.5340   12.4490 C.3       6 GLP5        0.0000 
     50 CA          7.7797   -6.2852   16.6290 C.3       3 GLC5        0.0000 
     51 CA         10.0000   -6.3210   16.2660 C.3       9 GLL5        0.0000 
     52 CA          5.7640   -5.5910   16.8680 C.3       6 GLP5        0.0000 
     53 CA         10.1047   -5.9030   13.4808 C.3       3 GLC5        0.0000 
     54 CA         10.2010   -4.2120   14.0010 C.3       9 GLL5        0.0000 
     55 CA         12.1517   -3.4977   13.2363 C.3       3 GLC5        0.0000 
     56 CA         14.0290   -3.3900   12.8160 C.3       6 GLP5        0.0000 
     57 CA          6.6608   -2.4560   14.3178 C.3       3 GLC5        0.0000 
     58 CA          8.5840   -2.0220   14.6650 C.3       9 GLL5        0.0000 
     59 CA          4.8120   -2.2820   13.6280 C.3       6 GLP5        0.0000 
     60 CA          7.3028   -4.6880   16.0275 C.3       3 GLC5        0.0000 
     61 CA          8.4350   -3.2380   15.3500 C.3       9 GLL5        0.0000 
     62 CA          8.3379   -2.9509   12.6867 C.3       3 GLC5        0.0000 
@<TRIPOS>BOND
@<TRIPOS>SUBSTRUCTURE
     1 ALC1       23 GROUP        1 X    ALC  0     ROOT ALC X 1
     2 ASC3        1 GROUP        1 X    ASC  0     **** ASC X 3
     3 GLC5        8 GROUP        1 X    GLC  0     **** GLC X 6
     4 ALP1       25 GROUP        1 Y    ALP  0     ROOT ALP Y 8
     5 ASP3        3 GROUP        1 Y    ASP  0     **** ASP Y 10
     6 GLP5       10 GROUP        1 Y    GLP  0     **** GLP Y 13
     7 ALL1       24 GROUP        1 Z    ALL  0     ROOT ALL Z 15
     8 ASL3        2 GROUP        1 Z    ASL  0     **** ASL Z 17
     9 GLL5        9 GROUP        1 Z    GLL  0     **** GLL Z 20
@<TRIPOS>SET

