#    Name: 2zdz_310_1_ligand
#    Modification time : Tue Mar 25 10:38:02 2014

@<TRIPOS>MOLECULE
2zdz_310_1_ligand
   59    62     1     0     0
SMALL
NO_CHARGES


@<TRIPOS>ATOM
      1 C23        16.8280  -10.7960   19.2680 C.ar      1 3101        0.0000 
      2 C22        15.8920  -11.0840   18.2520 C.ar      1 3101        0.0000 
      3 C21        16.7370   -5.6460   16.2110 C.cat     1 3101        0.0000 
      4 C20        15.5540   -7.7230   17.0410 C.2       1 3101        0.0000 
      5 C24        18.1300  -11.3060   19.1990 C.ar      1 3101        0.0000 
      6 C26        17.6040  -12.4040   17.1030 C.ar      1 3101        0.0000 
      7 C27        16.2970  -11.8940   17.1690 C.ar      1 3101        0.0000 
      8 C18        14.5410  -10.5230   18.3710 C.2       1 3101        0.0000 
      9 C10         9.5910   -7.6380   16.5140 C.ar      1 3101        0.0000 
     10 C7         10.2010   -4.2120   14.0010 C.ar      1 3101        0.0000 
     11 C5          8.4350   -3.2380   15.3500 C.ar      1 3101        0.0000 
     12 C6          9.2480   -4.3320   15.0240 C.ar      1 3101        0.0000 
     13 C1          8.5670    0.3980   13.0210 C.3       1 3101        0.0000 
     14 C2          9.6850   -0.5900   12.9200 C.2       1 3101        0.0000 
     15 C3          9.5460   -1.8940   13.6380 C.ar      1 3101        0.0000 
     16 C4          8.5840   -2.0220   14.6650 C.ar      1 3101        0.0000 
     17 C11        10.4820   -8.5730   17.0590 C.ar      1 3101        0.0000 
     18 C12        11.8030   -8.2100   17.3690 C.ar      1 3101        0.0000 
     19 C13        12.2070   -6.8770   17.1260 C.ar      1 3101        0.0000 
     20 C14        11.3160   -5.9390   16.5770 C.ar      1 3101        0.0000 
     21 C15        12.7120   -9.2130   17.9550 C.2       1 3101        0.0000 
     22 C16        12.4290  -10.0550   19.0210 C.2       1 3101        0.0000 
     23 C17        13.5580  -10.8670   19.2770 C.2       1 3101        0.0000 
     24 O1         10.4860   -0.4680   11.9910 O.2       1 3101        0.0000 
     25 C8         10.3480   -2.9990   13.3120 C.ar      1 3101        0.0000 
     26 O2          9.0160   -5.4940   15.7400 O.3       1 3101        0.0000 
     27 C9         10.0000   -6.3210   16.2660 C.ar      1 3101        0.0000 
     28 N1         14.0180   -9.5130   17.5700 N.pl3     1 3101        0.0000 
     29 C19        14.7530   -8.8700   16.4900 C.3       1 3101        0.0000 
     30 O3         15.8030   -7.5820   18.2340 O.2       1 3101        0.0000 
     31 N2         15.9900   -6.8080   16.0230 N.am      1 3101        0.0000 
     32 N3         16.8940   -4.8080   15.1160 N.pl3     1 3101        0.0000 
     33 N4         16.9930   -5.1500   17.4870 N.pl3     1 3101        0.0000 
     34 C25        18.5170  -12.1060   18.1200 C.ar      1 3101        0.0000 
     35 CL1        15.2190  -12.3030   15.8810 Cl        1 3101        0.0000 
     36 H          16.5475  -10.2079   20.0613 H         1 3101        0.0000 
     37 H          18.8030  -11.0909   19.9448 H         1 3101        0.0000 
     38 H          17.8845  -12.9905   16.3136 H         1 3101        0.0000 
     39 H           8.6264   -7.9222   16.2938 H         1 3101        0.0000 
     40 H          10.7919   -5.0139   13.7564 H         1 3101        0.0000 
     41 H           7.7306   -3.3250   16.0893 H         1 3101        0.0000 
     42 H           7.9938   -1.2201   14.9080 H         1 3101        0.0000 
     43 H          10.1658   -9.5367   17.2344 H         1 3101        0.0000 
     44 H          13.1690   -6.5929   17.3559 H         1 3101        0.0000 
     45 H          11.6251   -4.9795   16.4041 H         1 3101        0.0000 
     46 H          11.6154  -10.0915   19.5085 H         1 3101        0.0000 
     47 H          13.6107  -11.5231   19.9530 H         1 3101        0.0000 
     48 H          11.0471   -2.9183   12.5637 H         1 3101        0.0000 
     49 H          15.4348   -9.5783   16.0099 H         1 3101        0.0000 
     50 H          14.0669   -8.4877   15.7283 H         1 3101        0.0000 
     51 H          15.7042   -7.0578   15.0238 H         1 3101        0.0000 
     52 H          16.4338   -5.0922   14.2749 H         1 3101        0.0000 
     53 H          17.4537   -3.9924   15.2627 H         1 3101        0.0000 
     54 H          16.6252   -5.6837   18.2485 H         1 3101        0.0000 
     55 H          17.5225   -4.3029   17.5318 H         1 3101        0.0000 
     56 H          19.4737  -12.4760   18.0734 H         1 3101        0.0000 
     57 H           8.3997    0.6741   13.9675 H         1 3101        0.0000 
     58 H           8.7595    1.2310   12.5023 H         1 3101        0.0000 
     59 H           7.7088    0.0250   12.6685 H         1 3101        0.0000 
@<TRIPOS>BOND
     1    2    1 ar   
     2    5    1 ar   
     3   36    1 1    
     4    7    2 ar   
     5    8    2 1    
     6   31    3 1    
     7   32    3 ar   
     8   33    3 ar   
     9   29    4 1    
    10   30    4 2    
    11   31    4 am   
    12   34    5 ar   
    13   37    5 1    
    14    7    6 ar   
    15   34    6 ar   
    16   38    6 1    
    17   35    7 1    
    18   23    8 2    
    19   28    8 1    
    20   17    9 ar   
    21   27    9 ar   
    22   39    9 1    
    23   12   10 ar   
    24   25   10 ar   
    25   40   10 1    
    26   12   11 ar   
    27   16   11 ar   
    28   41   11 1    
    29   26   12 1    
    30   14   13 1    
    31   57   13 1    
    32   58   13 1    
    33   59   13 1    
    34   15   14 1    
    35   24   14 2    
    36   16   15 ar   
    37   25   15 ar   
    38   42   16 1    
    39   18   17 ar   
    40   43   17 1    
    41   19   18 ar   
    42   21   18 1    
    43   20   19 ar   
    44   44   19 1    
    45   27   20 ar   
    46   45   20 1    
    47   22   21 2    
    48   28   21 1    
    49   23   22 1    
    50   46   22 1    
    51   47   23 1    
    52   48   25 1    
    53   27   26 1    
    54   29   28 1    
    55   49   29 1    
    56   50   29 1    
    57   51   31 1    
    58   52   32 1    
    59   53   32 1    
    60   54   33 1    
    61   55   33 1    
    62   56   34 1    
@<TRIPOS>SUBSTRUCTURE
     1 3101        1 GROUP   
@<TRIPOS>SET

