#    Name: 3P2V_1_CAVITY_N1_6.mol2
#    Modification time : Mon Mar 10 13:03:34 2014

@<TRIPOS>MOLECULE
3P2V_1_CAVITY_N1_6.mol2
  101     0     5     0     0
SMALL
NO_CHARGES


@<TRIPOS>ATOM
      1 CA         21.5330    7.1602   -6.0943 C.3       4 GLY6        0.0000 
      2 CZ         21.5689    6.5270   -8.1186 C.ar      3 PHE5        0.0000 
      3 CZ         20.7457    5.0035  -10.9912 C.ar      3 PHE5        0.0000 
      4 CA         20.8176    3.7371  -15.0397 C.3       4 GLY6        0.0000 
      5 DU         21.7126    3.9940  -16.2157 H         5 CUB7        0.0000 
      6 O          19.9585    2.8469  -15.8880 O.2       2 ALA2        0.0000 
      7 CZ         22.4078   10.1203   -4.7818 C.ar      3 PHE5        0.0000 
      8 CZ         21.5488    9.2301   -5.6300 C.ar      3 PHE5        0.0000 
      9 DU         22.4437    9.4870   -6.8060 H         5 CUB7        0.0000 
     10 DU         21.5847    8.5968   -7.6543 H         5 CUB7        0.0000 
     11 DU         22.4797    8.8538   -8.8303 H         5 CUB7        0.0000 
     12 DU         23.3746    9.1107  -10.0063 H         5 CUB7        0.0000 
     13 CZ         20.7256    7.7066   -8.5026 C.ar      3 PHE5        0.0000 
     14 CZ         21.6206    7.9636   -9.6786 C.ar      3 PHE5        0.0000 
     15 DU         22.5156    8.2205  -10.8546 H         5 CUB7        0.0000 
     16 CZ         20.7616    7.0734  -10.5269 C.ar      3 PHE5        0.0000 
     17 CZ         21.6565    7.3303  -11.7029 C.ar      3 PHE5        0.0000 
     18 CZ         20.7975    6.4401  -12.5511 C.ar      3 PHE5        0.0000 
     19 CZ         21.6925    6.6971  -13.7272 C.ar      3 PHE5        0.0000 
     20 CZ         19.9384    5.5499  -13.3994 C.ar      3 PHE5        0.0000 
     21 CZ         20.8334    5.8069  -14.5754 C.ar      3 PHE5        0.0000 
     22 CZ         21.7284    6.0638  -15.7514 C.ar      3 PHE5        0.0000 
     23 CZ         22.6234    6.3208  -16.9274 C.ar      3 PHE5        0.0000 
     24 OG         19.0794    4.6597  -14.2477 O.2       1 SER1        0.0000 
     25 O          19.9744    4.9167  -15.4237 O.2       2 ALA2        0.0000 
     26 O          20.8693    5.1736  -16.5997 O.2       2 ALA2        0.0000 
     27 CA         21.7643    5.4306  -17.7757 C.3       4 GLY6        0.0000 
     28 CA         20.0103    4.2834  -17.4480 C.3       4 GLY6        0.0000 
     29 N          23.3186   12.4470   -5.4935 N.2       2 ALA2        0.0000 
     30 N          24.2136   12.7040   -6.6695 N.2       2 ALA2        0.0000 
     31 N          22.4596   11.5568   -6.3417 N.2       2 ALA2        0.0000 
     32 N          23.3545   11.8138   -7.5177 N.2       2 ALA2        0.0000 
     33 CA         21.6005   10.6666   -7.1900 C.3       4 GLY6        0.0000 
     34 DU         22.4955   10.9236   -8.3660 H         5 CUB7        0.0000 
     35 O          23.3905   11.1806   -9.5420 O.2       2 ALA2        0.0000 
     36 CA         20.7415    9.7764   -8.0383 C.3       4 GLY6        0.0000 
     37 DU         21.6364   10.0334   -9.2143 H         5 CUB7        0.0000 
     38 DU         22.5314   10.2904  -10.3903 H         5 CUB7        0.0000 
     39 CZ         19.8824    8.8862   -8.8866 C.ar      3 PHE5        0.0000 
     40 DU         20.7774    9.1432  -10.0626 H         5 CUB7        0.0000 
     41 CZ         21.6723    9.4002  -11.2386 C.ar      3 PHE5        0.0000 
     42 CZ         22.5673    9.6571  -12.4146 C.ar      3 PHE5        0.0000 
     43 CZ         19.9183    8.2530  -10.9108 C.ar      3 PHE5        0.0000 
     44 CZ         20.8133    8.5100  -12.0868 C.ar      3 PHE5        0.0000 
     45 CZ         19.9542    7.6197  -12.9351 C.ar      3 PHE5        0.0000 
     46 CA         19.0952    6.7295  -13.7834 C.3       4 GLY6        0.0000 
     47 CZ         19.9902    6.9865  -14.9594 C.ar      3 PHE5        0.0000 
     48 CZ         20.8851    7.2435  -16.1354 C.ar      3 PHE5        0.0000 
     49 CA         18.2361    5.8393  -14.6317 C.3       4 GLY6        0.0000 
     50 CA         19.1311    6.0963  -15.8077 C.3       4 GLY6        0.0000 
     51 O          20.0261    6.3533  -16.9837 O.2       2 ALA2        0.0000 
     52 CZ         20.9211    6.6102  -18.1597 C.ar      3 PHE5        0.0000 
     53 O          19.1670    5.4631  -17.8320 O.2       2 ALA2        0.0000 
     54 N          23.3703   13.8836   -7.0534 N.2       2 ALA2        0.0000 
     55 N          22.5113   12.9934   -7.9017 N.2       2 ALA2        0.0000 
     56 O          23.4063   13.2504   -9.0777 O.2       2 ALA2        0.0000 
     57 CA         20.7573   11.8463   -7.5740 C.3       4 GLY6        0.0000 
     58 O          21.6522   12.1032   -8.7500 O.2       2 ALA2        0.0000 
     59 CA         19.8982   10.9561   -8.4223 C.3       4 GLY6        0.0000 
     60 O          20.7932   11.2130   -9.5983 O.2       2 ALA2        0.0000 
     61 O          21.6882   11.4700  -10.7743 O.2       2 ALA2        0.0000 
     62 CZ         19.0392   10.0659   -9.2705 C.ar      3 PHE5        0.0000 
     63 DU         19.9341   10.3228  -10.4465 H         5 CUB7        0.0000 
     64 CZ         20.8291   10.5798  -11.6226 C.ar      3 PHE5        0.0000 
     65 CZ         21.7241   10.8367  -12.7986 C.ar      3 PHE5        0.0000 
     66 CZ         18.1801    9.1757  -10.1188 C.ar      3 PHE5        0.0000 
     67 CZ         19.0751    9.4326  -11.2948 C.ar      3 PHE5        0.0000 
     68 CZ         19.9701    9.6896  -12.4708 C.ar      3 PHE5        0.0000 
     69 CZ         17.3211    8.2855  -10.9671 C.ar      3 PHE5        0.0000 
     70 CZ         18.2160    8.5424  -12.1431 C.ar      3 PHE5        0.0000 
     71 CZ         19.1110    8.7994  -13.3191 C.ar      3 PHE5        0.0000 
     72 CA         18.2520    7.9092  -14.1674 C.3       4 GLY6        0.0000 
     73 CZ         19.1469    8.1661  -15.3434 C.ar      3 PHE5        0.0000 
     74 O          19.1829    7.5329  -17.3677 O.2       2 ALA2        0.0000 
     75 O          20.0778    7.7898  -18.5437 O.2       2 ALA2        0.0000 
     76 CA         21.6681   14.1731   -8.2857 C.3       4 GLY6        0.0000 
     77 CA         19.9140   13.0259   -7.9580 C.3       4 GLY6        0.0000 
     78 O          20.8090   13.2828   -9.1340 O.2       2 ALA2        0.0000 
     79 CA         19.0550   12.1357   -8.8062 C.3       4 GLY6        0.0000 
     80 O          19.9499   12.3926   -9.9822 O.2       2 ALA2        0.0000 
     81 CZ         18.1959   11.2455   -9.6545 C.ar      3 PHE5        0.0000 
     82 DU         19.0909   11.5024  -10.8305 H         5 CUB7        0.0000 
     83 CZ         19.9859   11.7594  -12.0065 C.ar      3 PHE5        0.0000 
     84 CZ         17.3369   10.3553  -10.5028 C.ar      3 PHE5        0.0000 
     85 DU         18.2318   10.6122  -11.6788 H         5 CUB7        0.0000 
     86 CZ         19.1268   10.8692  -12.8548 C.ar      3 PHE5        0.0000 
     87 CZ         17.3728    9.7220  -12.5271 C.ar      3 PHE5        0.0000 
     88 CZ         18.2678    9.9790  -13.7031 C.ar      3 PHE5        0.0000 
     89 CA         16.5137    8.8318  -13.3753 C.3       4 GLY6        0.0000 
     90 CZ         17.4087    9.0888  -14.5514 C.ar      3 PHE5        0.0000 
     91 CA         18.2117   13.3153   -9.1902 C.3       4 GLY6        0.0000 
     92 CZ         19.1067   13.5723  -10.3662 C.ar      3 PHE5        0.0000 
     93 CZ         17.3527   12.4251  -10.0385 C.ar      3 PHE5        0.0000 
     94 DU         18.2477   12.6821  -11.2145 H         5 CUB7        0.0000 
     95 CZ         19.1426   12.9390  -12.3905 C.ar      3 PHE5        0.0000 
     96 O          16.4936   11.5349  -10.8868 O.2       2 ALA2        0.0000 
     97 O          17.3886   11.7919  -12.0628 O.2       2 ALA2        0.0000 
     98 CA         18.2836   12.0488  -13.2388 C.3       4 GLY6        0.0000 
     99 CA         17.4245   11.1586  -14.0871 C.3       4 GLY6        0.0000 
    100 N          17.4044   13.8617  -11.5985 N.2       2 ALA2        0.0000 
    101 N          16.5454   12.9715  -12.4468 N.2       2 ALA2        0.0000 
@<TRIPOS>BOND
@<TRIPOS>SUBSTRUCTURE
     1 SER1       24 GROUP   
     2 ALA2        6 GROUP   
     3 PHE5        2 GROUP   
     4 GLY6        1 GROUP   
     5 CUB7        5 GROUP   
@<TRIPOS>SET

