#    Name: 3p2v_DOY_1_INTS_M
#    Modification time : Tue Mar 25 05:51:54 2014

@<TRIPOS>MOLECULE
3p2v_DOY_1_INTS_M
   36     0     6     0     0
SMALL
NO_CHARGES


@<TRIPOS>ATOM
      1 CA         21.8640   11.6730  -12.4255 C.3       2 GLC5        0.0000 
      2 CA         21.7630   10.0830  -11.2950 C.3       6 GLL5        0.0000 
      3 CA         21.9650   13.2630  -13.5560 C.3       4 GLP5        0.0000 
      4 CA         22.1640    9.6485  -13.1660 C.3       2 GLC5        0.0000 
      5 CA         22.5650    9.2140  -15.0370 C.3       4 GLP5        0.0000 
      6 CA         20.5220   10.4485   -6.4255 C.3       2 GLC5        0.0000 
      7 CA         22.2260    9.5710   -7.3650 C.3       6 GLL5        0.0000 
      8 CA         18.8180   11.3260   -5.4860 C.3       4 GLP5        0.0000 
      9 CA         21.1830    8.0835   -5.0400 C.3       2 GLC5        0.0000 
     10 CA         22.7160    8.6090   -6.4800 C.3       6 GLL5        0.0000 
     11 CA         19.6500    7.5580   -3.6000 C.3       4 GLP5        0.0000 
     12 CA         19.2885   10.9910   -7.5610 C.3       2 GLC5        0.0000 
     13 CA         19.7590   10.6560   -9.6360 C.3       6 GLL5        0.0000 
     14 CA         18.0115   10.0150   -8.9745 C.3       2 GLC5        0.0000 
     15 CA         16.2640    9.3740   -8.3130 C.3       4 GLP5        0.0000 
     16 CA         20.2800   13.6615  -12.2795 C.3       2 GLC5        0.0000 
     17 CA         18.6710   13.0740  -11.9930 C.3       6 GLL5        0.0000 
     18 CA         21.8890   14.2490  -12.5660 C.3       4 GLP5        0.0000 
     19 CA         18.6435   14.5725  -10.5140 C.3       2 GLC5        0.0000 
     20 CA         18.6160   16.0710   -9.0350 C.3       4 GLP5        0.0000 
     21 CA         17.5245   14.1905  -13.2380 C.3       2 GLC5        0.0000 
     22 CA         16.3780   15.3070  -14.4830 C.3       4 GLP5        0.0000 
     23 N          15.3360   11.6450  -11.2930 N.am      1 SEC2        0.0000 
     24 N          16.5820   12.4360  -11.0000 N.am      5 SEL2        0.0000 
     25 N          14.0900   10.8540  -11.5860 N.am      3 SEP2        0.0000 
     26 N          16.9725   15.9125  -10.9260 N.am      1 SEC2        0.0000 
     27 N          16.9090   14.6160  -11.3740 N.am      5 SEL2        0.0000 
     28 N          17.0360   17.2090  -10.4780 N.am      3 SEP2        0.0000 
     29 N          15.8085   14.4960  -10.6040 N.am      1 SEC2        0.0000 
     30 N          14.7080   14.3760   -9.8340 N.am      3 SEP2        0.0000 
     31 CA         16.8577    7.4763  -13.2912 C.3       2 GLC5        0.0000 
     32 CA         17.8170    9.0230  -13.2620 C.3       6 GLL5        0.0000 
     33 CA         15.3610    6.3850  -13.3180 C.3       4 GLP5        0.0000 
     34 CA         21.1287    5.6980   -7.3000 C.3       2 GLC5        0.0000 
     35 CA         22.2860    6.9000   -8.1470 C.3       6 GLL5        0.0000 
     36 CA         19.7400    4.3170   -7.0910 C.3       4 GLP5        0.0000 
@<TRIPOS>BOND
@<TRIPOS>SUBSTRUCTURE
     1 SEC2       23 GROUP        1 X    SEC  0     ROOT SEC X 2
     2 GLC5        1 GROUP        1 X    GLC  0     **** GLC X 6
     3 SEP2       25 GROUP        1 Y    SEP  0     ROOT SEP Y 9
     4 GLP5        3 GROUP        1 Y    GLP  0     **** GLP Y 13
     5 SEL2       24 GROUP        1 Z    SEL  0     ROOT SEL Z 16
     6 GLL5        2 GROUP        1 Z    GLL  0     **** GLL Z 20
@<TRIPOS>SET

