#    Name: 3p2v_DOY_1_ligand
#    Modification time : Tue Mar 25 05:51:54 2014

@<TRIPOS>MOLECULE
3p2v_DOY_1_ligand
   36    38     1     0     0
SMALL
NO_CHARGES


@<TRIPOS>ATOM
      1 C1         18.8920    8.1120  -13.2670 C.ar      1 DOY600      0.0000 
      2 C2         20.0810    8.4830  -12.6530 C.ar      1 DOY600      0.0000 
      3 C3         20.2120    9.7460  -12.0300 C.ar      1 DOY600      0.0000 
      4 S4         21.7630   10.0830  -11.2950 S.3       1 DOY600      0.0000 
      5 C5         21.2220   10.3230   -9.5920 C.3       1 DOY600      0.0000 
      6 C6         21.7600    9.2160   -8.6430 C.ar      1 DOY600      0.0000 
      7 C7         22.2260    9.5710   -7.3650 C.ar      1 DOY600      0.0000 
      8 C8         22.7160    8.6090   -6.4800 C.ar      1 DOY600      0.0000 
      9 C9         22.7490    7.2580   -6.8710 C.ar      1 DOY600      0.0000 
     10 C10        22.2860    6.9000   -8.1470 C.ar      1 DOY600      0.0000 
     11 C11        21.7930    7.8700   -9.0380 C.ar      1 DOY600      0.0000 
     12 C12        19.7590   10.6560   -9.6360 C.3       1 DOY600      0.0000 
     13 C13        19.6580   11.9240  -10.1570 C.2       1 DOY600      0.0000 
     14 O14        19.7260   12.9530   -9.5210 O.2       1 DOY600      0.0000 
     15 N15        19.2700   11.8730  -11.4110 N.am      1 DOY600      0.0000 
     16 C16        18.6710   13.0740  -11.9930 C.3       1 DOY600      0.0000 
     17 C17        17.3260   13.4590  -11.4360 C.2       1 DOY600      0.0000 
     18 O18        16.5820   12.4360  -11.0000 O.co2     1 DOY600      0.0000 
     19 O19        16.9090   14.6160  -11.3740 O.co2     1 DOY600      0.0000 
     20 C20        19.1610   10.6510  -12.0150 C.ar      1 DOY600      0.0000 
     21 C21        17.9720   10.2660  -12.6380 C.ar      1 DOY600      0.0000 
     22 C22        17.8170    9.0230  -13.2620 C.ar      1 DOY600      0.0000 
     23 H          18.7899    7.2050  -13.7130 H         1 DOY600      0.0000 
     24 H          20.8847    7.8378  -12.6451 H         1 DOY600      0.0000 
     25 H          21.7930   11.2828   -9.3729 H         1 DOY600      0.0000 
     26 H          22.2036   10.5641   -7.0793 H         1 DOY600      0.0000 
     27 H          23.0498    8.8795   -5.5529 H         1 DOY600      0.0000 
     28 H          23.1055    6.5478   -6.2337 H         1 DOY600      0.0000 
     29 H          22.3072    5.9109   -8.4365 H         1 DOY600      0.0000 
     30 H          21.4627    7.5960   -9.9629 H         1 DOY600      0.0000 
     31 H          19.3675   10.5798   -8.6177 H         1 DOY600      0.0000 
     32 H          19.2620    9.9004  -10.2509 H         1 DOY600      0.0000 
     33 H          18.5678   12.9494  -13.0994 H         1 DOY600      0.0000 
     34 H          19.3628   13.9433  -11.8666 H         1 DOY600      0.0000 
     35 H          17.1667   10.9303  -12.6390 H         1 DOY600      0.0000 
     36 H          16.9355    8.7746  -13.7104 H         1 DOY600      0.0000 
@<TRIPOS>BOND
     1    2    1 ar   
     2   22    1 ar   
     3   23    1 1    
     4    3    2 ar   
     5   24    2 1    
     6    4    3 1    
     7   20    3 ar   
     8    5    4 1    
     9    6    5 1    
    10   12    5 1    
    11   25    5 1    
    12    7    6 ar   
    13   11    6 ar   
    14    8    7 ar   
    15   26    7 1    
    16    9    8 ar   
    17   27    8 1    
    18   10    9 ar   
    19   28    9 1    
    20   11   10 ar   
    21   29   10 1    
    22   30   11 1    
    23   13   12 1    
    24   31   12 1    
    25   32   12 1    
    26   14   13 2    
    27   15   13 am   
    28   16   15 1    
    29   20   15 1    
    30   17   16 1    
    31   33   16 1    
    32   34   16 1    
    33   18   17 ar   
    34   19   17 ar   
    35   21   20 ar   
    36   22   21 ar   
    37   35   21 1    
    38   36   22 1    
@<TRIPOS>SUBSTRUCTURE
     1 DOY600      1 GROUP   
@<TRIPOS>SET

