#    Name: 1gox_FMN_1_INTS_M
#    Modification time : Tue Mar 25 03:22:12 2014

@<TRIPOS>MOLECULE
1gox_FMN_1_INTS_M
   83     0    12     0     0
SMALL
NO_CHARGES


@<TRIPOS>ATOM
      1 N          51.7935   52.8930   24.7985 N.am      2 SEC2        0.0000 
      2 N          50.9590   53.0850   23.5610 N.am     10 SEL2        0.0000 
      3 N          52.6280   52.7010   26.0360 N.am      6 SEP2        0.0000 
      4 N          48.6990   52.2265   25.9570 N.am      2 SEC2        0.0000 
      5 N          49.8380   52.7450   25.4640 N.am     10 SEL2        0.0000 
      6 N          47.5600   51.7080   26.4500 N.am      6 SEP2        0.0000 
      7 N          51.2330   52.7230   25.7500 N.am      2 SEC2        0.0000 
      8 O          48.0995   52.1740   24.9975 O.2       1 ALC1        0.0000 
      9 O          48.6390   52.6400   23.5450 O.2       9 ALL1        0.0000 
     10 O          47.5600   51.7080   26.4500 O.2       5 ALP1        0.0000 
     11 CA         49.8640   52.1975   17.2020 C.3       4 GLC5        0.0000 
     12 CA         50.9790   53.4870   18.1050 C.3      12 GLL5        0.0000 
     13 CA         48.7490   50.9080   16.2990 C.3       8 GLP5        0.0000 
     14 CA         51.1580   54.1700   14.5805 C.3       4 GLC5        0.0000 
     15 CA         52.1860   53.8660   15.9310 C.3      12 GLL5        0.0000 
     16 CA         50.1300   54.4740   13.2300 C.3       8 GLP5        0.0000 
     17 CA         52.8945   53.3560   14.2865 C.3       4 GLC5        0.0000 
     18 CA         53.6030   52.8460   12.6420 C.3       8 GLP5        0.0000 
     19 CA         56.5770   54.4355   17.0955 C.3       4 GLC5        0.0000 
     20 CA         54.6660   54.2540   17.4360 C.3      12 GLL5        0.0000 
     21 CA         58.4880   54.6170   16.7550 C.3       8 GLP5        0.0000 
     22 CA         51.5185   55.1115   21.4680 C.3       4 GLC5        0.0000 
     23 CA         52.2040   53.5840   20.2180 C.3      12 GLL5        0.0000 
     24 CA         50.8330   56.6390   22.7180 C.3       8 GLP5        0.0000 
     25 CA         52.1765   55.1715   22.5630 C.3       4 GLC5        0.0000 
     26 CA         53.5200   53.7040   22.4080 C.3      12 GLL5        0.0000 
     27 O          53.0475   50.6965   22.1845 O.2       1 ALC1        0.0000 
     28 O          53.5470   51.4040   23.1850 O.2       9 ALL1        0.0000 
     29 O          52.5480   49.9890   21.1840 O.2       5 ALP1        0.0000 
     30 N          53.9080   53.0985   25.2750 N.am      2 SEC2        0.0000 
     31 N          55.1880   53.4960   24.5140 N.am     10 SEL2        0.0000 
     32 O          56.2320   53.6000   25.6710 O.2       1 ALC1        0.0000 
     33 O          55.1880   53.4960   24.5140 O.2       9 ALL1        0.0000 
     34 O          57.2760   53.7040   26.8280 O.2       5 ALP1        0.0000 
     35 O          55.7670   52.6510   25.3905 O.2       1 ALC1        0.0000 
     36 O          56.3460   51.8060   26.2670 O.2       5 ALP1        0.0000 
     37 CA         58.3415   52.5620   24.7455 C.3       4 GLC5        0.0000 
     38 CA         57.9660   53.3480   22.9510 C.3      12 GLL5        0.0000 
     39 CA         58.7170   51.7760   26.5400 C.3       8 GLP5        0.0000 
     40 CA         59.2955   54.4255   23.9905 C.3       4 GLC5        0.0000 
     41 CA         60.6250   55.5030   25.0300 C.3       8 GLP5        0.0000 
     42 CA         58.1160   51.8525   21.4125 C.3       4 GLC5        0.0000 
     43 CA         58.2660   50.3570   19.8740 C.3       8 GLP5        0.0000 
     44 NZ         61.9385   53.1310   20.9110 N.4       3 LYC4        0.0000 
     45 NZ         60.4900   52.6770   21.4060 N.4      11 LYL4        0.0000 
     46 NZ         63.4580   54.2220   19.2310 N.4       7 LYP4        0.0000 
     47 N          61.9385   53.1310   20.9110 N.am      2 SEC2        0.0000 
     48 N          60.4900   52.6770   21.4060 N.am     10 SEL2        0.0000 
     49 N          63.3870   53.5850   20.4160 N.am      6 SEP2        0.0000 
     50 N          59.9440   51.4180   21.0905 N.am      2 SEC2        0.0000 
     51 N          59.3980   50.1590   20.7750 N.am      6 SEP2        0.0000 
     52 NZ         61.6430   55.1050   19.9805 N.4       3 LYC4        0.0000 
     53 NZ         60.8920   55.2870   21.1240 N.4      11 LYL4        0.0000 
     54 N          61.6455   55.5225   22.2825 N.am      2 SEC2        0.0000 
     55 N          60.8920   55.2870   21.1240 N.am     10 SEL2        0.0000 
     56 N          62.3990   55.7580   23.4410 N.am      6 SEP2        0.0000 
     57 N          62.1395   54.4360   20.7700 N.am      2 SEC2        0.0000 
     58 N          61.6430   55.1050   19.9805 N.am      2 SEC2        0.0000 
     59 N          62.3940   54.9230   18.8370 N.am      6 SEP2        0.0000 
     60 N          59.0105   52.8690   18.9410 N.am      2 SEC2        0.0000 
     61 N          59.0950   53.9130   19.8280 N.am     10 SEL2        0.0000 
     62 N          58.9260   51.8250   18.0540 N.am      6 SEP2        0.0000 
     63 N          58.6510   55.4490   19.5290 N.am      2 SEC2        0.0000 
     64 N          58.2070   56.9850   19.2300 N.am      6 SEP2        0.0000 
     65 CA         52.8997   51.9993   17.1155 C.3       4 GLC5        0.0000 
     66 CA         52.1790   53.7610   17.4350 C.3      12 GLL5        0.0000 
     67 CA         53.6170   50.1850   17.5480 C.3       8 GLP5        0.0000 
     68 CA         54.2847   52.2551   18.5065 C.3       4 GLC5        0.0000 
     69 CA         53.3820   53.9290   18.1460 C.3      12 GLL5        0.0000 
     70 CA         54.8790   50.5500   18.3530 C.3       8 GLP5        0.0000 
     71 CA         53.4992   56.0326   18.7365 C.3       4 GLC5        0.0000 
     72 CA         53.3080   58.1050   18.8130 C.3       8 GLP5        0.0000 
     73 CA         51.9860   51.7059   18.9784 C.3       4 GLC5        0.0000 
     74 CA         52.3830   49.9050   18.4370 C.3       8 GLP5        0.0000 
     75 CA         55.6590   50.7540   23.1148 C.3       4 GLC5        0.0000 
     76 CA         54.3000   52.3800   22.5470 C.3      12 GLL5        0.0000 
     77 CA         56.3830   48.9390   23.2780 C.3       8 GLP5        0.0000 
     78 CA         53.9210   51.9340   24.6953 C.3       4 GLC5        0.0000 
     79 CA         55.5700   52.7580   23.3560 C.3      12 GLL5        0.0000 
     80 CA         52.9070   51.2990   26.4390 C.3       8 GLP5        0.0000 
     81 CA         56.8290   55.3820   22.6630 C.3       4 GLC5        0.0000 
     82 CA         56.4840   53.7200   22.5290 C.3      12 GLL5        0.0000 
     83 CA         56.4330   57.2300   22.5860 C.3       8 GLP5        0.0000 
@<TRIPOS>BOND
@<TRIPOS>SUBSTRUCTURE
     1 ALC1        8 GROUP        1 X    ALC  0     ROOT ALC X 1
     2 SEC2        1 GROUP        1 X    SEC  0     **** SEC X 2
     3 LYC4       44 GROUP        1 X    LYC  0     **** LYC X 4
     4 GLC5       11 GROUP        1 X    GLC  0     **** GLC X 6
     5 ALP1       10 GROUP        1 Y    ALP  0     ROOT ALP Y 8
     6 SEP2        3 GROUP        1 Y    SEP  0     **** SEP Y 9
     7 LYP4       46 GROUP        1 Y    LYP  0     **** LYP Y 11
     8 GLP5       13 GROUP        1 Y    GLP  0     **** GLP Y 13
     9 ALL1        9 GROUP        1 Z    ALL  0     ROOT ALL Z 15
    10 SEL2        2 GROUP        1 Z    SEL  0     **** SEL Z 16
    11 LYL4       45 GROUP        1 Z    LYL  0     **** LYL Z 18
    12 GLL5       12 GROUP        1 Z    GLL  0     **** GLL Z 20
@<TRIPOS>SET

