#    Name: 1gox_FMN_1_ligand
#    Modification time : Tue Mar 25 03:22:12 2014

@<TRIPOS>MOLECULE
1gox_FMN_1_ligand
   50    52     1     0     0
SMALL
NO_CHARGES


@<TRIPOS>ATOM
      1 N1         50.9590   53.0850   23.5610 N.2       1 FMN370      0.0000 
      2 C2         49.8070   52.8170   24.2390 C.2       1 FMN370      0.0000 
      3 O2         49.8380   52.7450   25.4640 O.2       1 FMN370      0.0000 
      4 N3         48.6390   52.6400   23.5450 N.am      1 FMN370      0.0000 
      5 C4         48.5660   52.7520   22.1820 C.2       1 FMN370      0.0000 
      6 O4         47.5080   52.5460   21.5820 O.2       1 FMN370      0.0000 
      7 C4A        49.8320   53.0410   21.4720 C.2       1 FMN370      0.0000 
      8 N5         49.8110   53.1200   20.1700 N.2       1 FMN370      0.0000 
      9 C5A        50.9690   53.3720   19.5380 C.ar      1 FMN370      0.0000 
     10 C6         50.9790   53.4870   18.1050 C.ar      1 FMN370      0.0000 
     11 C7         52.1790   53.7610   17.4350 C.ar      1 FMN370      0.0000 
     12 C7M        52.1860   53.8660   15.9310 C.3       1 FMN370      0.0000 
     13 C8         53.3820   53.9290   18.1460 C.ar      1 FMN370      0.0000 
     14 C8M        54.6660   54.2540   17.4360 C.3       1 FMN370      0.0000 
     15 C9         53.3570   53.8290   19.5290 C.ar      1 FMN370      0.0000 
     16 C9A        52.2040   53.5840   20.2180 C.ar      1 FMN370      0.0000 
     17 N10        52.2370   53.4960   21.6090 N.pl3     1 FMN370      0.0000 
     18 C10        51.0160   53.2040   22.1990 C.2       1 FMN370      0.0000 
     19 C1'        53.5200   53.7040   22.4080 C.3       1 FMN370      0.0000 
     20 C2'        54.3000   52.3800   22.5470 C.3       1 FMN370      0.0000 
     21 O2'        53.5470   51.4040   23.1850 O.3       1 FMN370      0.0000 
     22 C3'        55.5700   52.7580   23.3560 C.3       1 FMN370      0.0000 
     23 O3'        55.1880   53.4960   24.5140 O.3       1 FMN370      0.0000 
     24 C4'        56.4840   53.7200   22.5290 C.3       1 FMN370      0.0000 
     25 O4'        56.3000   53.4360   21.1620 O.3       1 FMN370      0.0000 
     26 C5'        57.9660   53.3480   22.9510 C.3       1 FMN370      0.0000 
     27 O5'        58.8440   54.3550   22.4270 O.3       1 FMN370      0.0000 
     28 P          59.8110   54.0880   21.2070 P.3       1 FMN370      0.0000 
     29 O1P        60.4900   52.6770   21.4060 O.co2     1 FMN370      0.0000 
     30 O2P        60.8920   55.2870   21.1240 O.co2     1 FMN370      0.0000 
     31 O3P        59.0950   53.9130   19.8280 O.co2     1 FMN370      0.0000 
     32 H          47.7624   52.4086   24.0813 H         1 FMN370      0.0000 
     33 H          50.1077   53.3669   17.5926 H         1 FMN370      0.0000 
     34 H          54.2564   53.9466   20.0535 H         1 FMN370      0.0000 
     35 H          53.2747   54.0734   23.4007 H         1 FMN370      0.0000 
     36 H          54.1499   54.4317   21.9022 H         1 FMN370      0.0000 
     37 H          54.6322   52.1073   21.5597 H         1 FMN370      0.0000 
     38 H          56.1186   51.8921   23.5877 H         1 FMN370      0.0000 
     39 H          56.2934   54.6970   22.8179 H         1 FMN370      0.0000 
     40 H          58.1669   52.3651   22.5428 H         1 FMN370      0.0000 
     41 H          57.9785   53.3050   24.0331 H         1 FMN370      0.0000 
     42 H          53.0993   54.0672   15.5770 H         1 FMN370      0.0000 
     43 H          51.8844   53.0166   15.4980 H         1 FMN370      0.0000 
     44 H          51.5794   54.5918   15.6065 H         1 FMN370      0.0000 
     45 H          55.4312   54.3416   18.0738 H         1 FMN370      0.0000 
     46 H          54.9147   53.5457   16.7754 H         1 FMN370      0.0000 
     47 H          54.6041   55.1157   16.9324 H         1 FMN370      0.0000 
     48 H          52.8207   51.1732   22.5376 H         1 FMN370      0.0000 
     49 H          55.5648   52.9818   25.2844 H         1 FMN370      0.0000 
     50 H          57.1890   53.6121   20.7393 H         1 FMN370      0.0000 
@<TRIPOS>BOND
     1    2    1 1    
     2   18    1 2    
     3    3    2 2    
     4    4    2 am   
     5    5    4 am   
     6   32    4 1    
     7    6    5 2    
     8    7    5 1    
     9    8    7 2    
    10   18    7 1    
    11    9    8 1    
    12   10    9 ar   
    13   16    9 ar   
    14   11   10 ar   
    15   33   10 1    
    16   12   11 1    
    17   13   11 ar   
    18   42   12 1    
    19   43   12 1    
    20   44   12 1    
    21   14   13 1    
    22   15   13 ar   
    23   45   14 1    
    24   46   14 1    
    25   47   14 1    
    26   16   15 ar   
    27   34   15 1    
    28   17   16 1    
    29   18   17 1    
    30   19   17 1    
    31   20   19 1    
    32   35   19 1    
    33   36   19 1    
    34   21   20 1    
    35   22   20 1    
    36   37   20 1    
    37   48   21 1    
    38   23   22 1    
    39   24   22 1    
    40   38   22 1    
    41   49   23 1    
    42   25   24 1    
    43   26   24 1    
    44   39   24 1    
    45   50   25 1    
    46   27   26 1    
    47   40   26 1    
    48   41   26 1    
    49   28   27 1    
    50   29   28 ar   
    51   30   28 ar   
    52   31   28 ar   
@<TRIPOS>SUBSTRUCTURE
     1 FMN370      1 GROUP   
@<TRIPOS>SET

