#    Name: 3uxe_465_1_INTS_M
#    Modification time : Mon Mar 24 23:42:16 2014

@<TRIPOS>MOLECULE
3uxe_465_1_INTS_M
   32     0     9     0     0
SMALL
NO_CHARGES


@<TRIPOS>ATOM
      1 CA         -6.5185   -5.6230  -16.2605 C.3       3 GLC5        0.0000 
      2 CA         -5.1830   -5.8970  -14.6270 C.3       9 GLL5        0.0000 
      3 CA         -7.8540   -5.3490  -17.8940 C.3       6 GLP5        0.0000 
      4 CA         -5.8885   -8.5730  -13.0830 C.3       3 GLC5        0.0000 
      5 CA         -5.3120   -7.2660  -14.5950 C.3       9 GLL5        0.0000 
      6 CA         -6.4650   -9.8800  -11.5710 C.3       6 GLP5        0.0000 
      7 CA         -4.0095   -3.0535  -13.0190 C.3       3 GLC5        0.0000 
      8 CA         -5.6610   -2.1060  -14.0350 C.3       9 GLL5        0.0000 
      9 CA         -2.3580   -4.0010  -12.0030 C.3       6 GLP5        0.0000 
     10 CA         -0.0665   -3.8200  -19.1140 C.3       3 GLC5        0.0000 
     11 CA         -0.9940   -3.2360  -17.7690 C.3       9 GLL5        0.0000 
     12 CA          0.8610   -4.4040  -20.4590 C.3       6 GLP5        0.0000 
     13 CA         -1.9535   -2.9515  -19.1260 C.3       3 GLC5        0.0000 
     14 CA         -2.9130   -2.6670  -20.4830 C.3       6 GLP5        0.0000 
     15 CA          0.1250   -3.3015  -16.5620 C.3       3 GLC5        0.0000 
     16 CA          1.2440   -3.3670  -15.3550 C.3       6 GLP5        0.0000 
     17 N          -4.9955  -11.4695  -14.5240 N.am      2 SEC2        0.0000 
     18 N          -5.2270  -10.0610  -14.7410 N.am      8 SEL2        0.0000 
     19 N          -4.7640  -12.8780  -14.3070 N.am      5 SEP2        0.0000 
     20 O          -3.8820  -11.5440  -16.3610 O.2       1 ALC1        0.0000 
     21 O          -3.4540  -10.0080  -16.1900 O.2       7 ALL1        0.0000 
     22 O          -4.3100  -13.0800  -16.5320 O.2       4 ALP1        0.0000 
     23 CA         -2.9995   -3.6865  -13.8392 C.3       3 GLC5        0.0000 
     24 CA         -4.1450   -3.7720  -15.3050 C.3       9 GLL5        0.0000 
     25 CA         -2.5072   -5.7815  -14.5258 C.3       3 GLC5        0.0000 
     26 CA         -4.1130   -5.2810  -15.3720 C.3       9 GLL5        0.0000 
     27 CA         -1.3250   -5.9010  -13.2860 C.3       6 GLP5        0.0000 
     28 CA         -1.7982   -5.2438  -15.0690 C.3       3 GLC5        0.0000 
     29 CA         -2.3020   -5.3050  -16.9220 C.3       9 GLL5        0.0000 
     30 CA         -5.1647   -6.4962  -12.6695 C.3       3 GLC5        0.0000 
     31 CA         -5.0820   -6.4110  -10.7280 C.3       6 GLP5        0.0000 
     32 CA         -3.0699   -6.5831  -14.1470 C.3       3 GLC5        0.0000 
@<TRIPOS>BOND
@<TRIPOS>SUBSTRUCTURE
     1 ALC1       20 GROUP        1 X    ALC  0     ROOT ALC X 1
     2 SEC2       17 GROUP        1 X    SEC  0     **** SEC X 2
     3 GLC5        1 GROUP        1 X    GLC  0     **** GLC X 6
     4 ALP1       22 GROUP        1 Y    ALP  0     ROOT ALP Y 8
     5 SEP2       19 GROUP        1 Y    SEP  0     **** SEP Y 9
     6 GLP5        3 GROUP        1 Y    GLP  0     **** GLP Y 13
     7 ALL1       21 GROUP        1 Z    ALL  0     ROOT ALL Z 15
     8 SEL2       18 GROUP        1 Z    SEL  0     **** SEL Z 16
     9 GLL5        2 GROUP        1 Z    GLL  0     **** GLL Z 20
@<TRIPOS>SET

