#    Name: 3uxe_465_1_ligand
#    Modification time : Mon Mar 24 23:42:16 2014

@<TRIPOS>MOLECULE
3uxe_465_1_ligand
   28    30     1     0     0
SMALL
NO_CHARGES


@<TRIPOS>ATOM
      1 C1         -4.1450   -3.7720  -15.3050 C.ar      1 465303      0.0000 
      2 C2         -4.1130   -5.2810  -15.3720 C.ar      1 465303      0.0000 
      3 C3         -3.2660   -6.0430  -16.1590 C.ar      1 465303      0.0000 
      4 C4         -2.3020   -5.3050  -16.9220 C.ar      1 465303      0.0000 
      5 C5         -2.2410   -3.8680  -16.7820 C.ar      1 465303      0.0000 
      6 C6         -3.1370   -2.9720  -16.0460 C.ar      1 465303      0.0000 
      7 C7         -5.1830   -5.8970  -14.6270 C.ar      1 465303      0.0000 
      8 C8         -5.3120   -7.2660  -14.5950 C.ar      1 465303      0.0000 
      9 C9         -4.3820   -7.9490  -15.4050 C.ar      1 465303      0.0000 
     10 N10        -3.3320   -7.3650  -16.1200 N.ar      1 465303      0.0000 
     11 N11        -5.1880   -3.4560  -14.4740 N.am      1 465303      0.0000 
     12 C12        -5.7370   -4.6440  -14.0800 C.2       1 465303      0.0000 
     13 O13        -6.7660   -4.6470  -13.3410 O.2       1 465303      0.0000 
     14 C14        -5.6610   -2.1060  -14.0350 C.3       1 465303      0.0000 
     15 N15        -2.9280   -1.5780  -16.0490 N.pl3     1 465303      0.0000 
     16 CL1        -0.9940   -3.2360  -17.7690 Cl        1 465303      0.0000 
     17 N17        -1.3660   -5.9040  -17.6740 N.2       1 465303      0.0000 
     18 C18        -1.2640   -7.3010  -17.7770 C.2       1 465303      0.0000 
     19 C19        -4.3780   -9.4240  -15.4460 C.2       1 465303      0.0000 
     20 O20        -5.2270  -10.0610  -14.7410 O.2       1 465303      0.0000 
     21 N21        -3.4540  -10.0080  -16.1900 N.am      1 465303      0.0000 
     22 H          -5.9886   -7.7437  -14.0592 H         1 465303      0.0000 
     23 H          -2.8386   -9.3967  -16.6875 H         1 465303      0.0000 
     24 H          -3.4545  -11.0080  -16.1876 H         1 465303      0.0000 
     25 H          -4.9482   -1.6038  -13.5454 H         1 465303      0.0000 
     26 H          -5.9385   -1.5393  -14.8108 H         1 465303      0.0000 
     27 H          -6.4485   -2.1696  -13.4219 H         1 465303      0.0000 
     28 H          -2.1173   -1.4392  -16.6178 H         1 465303      0.0000 
@<TRIPOS>BOND
     1    2    1 ar   
     2    6    1 ar   
     3   11    1 1    
     4    3    2 ar   
     5    7    2 ar   
     6    4    3 ar   
     7   10    3 ar   
     8    5    4 ar   
     9   17    4 1    
    10    6    5 ar   
    11   16    5 1    
    12   15    6 1    
    13    8    7 ar   
    14   12    7 1    
    15    9    8 ar   
    16   22    8 1    
    17   10    9 ar   
    18   19    9 1    
    19   12   11 am   
    20   14   11 1    
    21   13   12 2    
    22   25   14 1    
    23   26   14 1    
    24   27   14 1    
    25   28   15 1    
    26   18   17 2    
    27   20   19 2    
    28   21   19 am   
    29   23   21 1    
    30   24   21 1    
@<TRIPOS>SUBSTRUCTURE
     1 465303      1 GROUP   
@<TRIPOS>SET

