#    Name: 3b7r_BIR_2_INTS_M
#    Modification time : Mon Mar 24 19:06:37 2014

@<TRIPOS>MOLECULE
3b7r_BIR_2_INTS_M
   81     0    18     0     0
SMALL
NO_CHARGES


@<TRIPOS>ATOM
      1 CA         32.0855    3.6260   -0.9185 C.3       6 GLC5        0.0000 
      2 CA         32.8250    2.6140    0.8130 C.3      18 GLL5        0.0000 
      3 CA         31.3460    4.6380   -2.6500 C.3      12 GLP5        0.0000 
      4 CA         31.1975    2.0495    2.2285 C.3       6 GLC5        0.0000 
      5 CA         29.5700    1.4850    3.6440 C.3      12 GLP5        0.0000 
      6 CA         30.9340    3.6410    0.9590 C.3       6 GLC5        0.0000 
      7 CA         29.0430    4.6680    1.1050 C.3      12 GLP5        0.0000 
      8 OD1        34.9815    0.1095    3.1050 O.co2     3 ASC3        0.0000 
      9 OD1        34.1820    1.3220    2.4450 O.co2    15 ASL3        0.0000 
     10 OD1        35.7810   -1.1030    3.7650 O.co2     9 ASP3        0.0000 
     11 OD1        35.4325    0.8740    2.4935 O.co2     3 ASC3        0.0000 
     12 OD1        36.6830    0.4260    2.5420 O.co2     9 ASP3        0.0000 
     13 OD1        33.4460    1.5630    3.7655 O.co2     3 ASC3        0.0000 
     14 OD1        32.7100    1.8040    5.0860 O.co2     9 ASP3        0.0000 
     15 O          33.5030    0.3890    1.6220 O.2       1 ALC1        0.0000 
     16 O          34.1820    1.3220    2.4450 O.2      13 ALL1        0.0000 
     17 O          32.8240   -0.5440    0.7990 O.2       7 ALP1        0.0000 
     18 O          34.9815    0.1095    3.1050 O.2       1 ALC1        0.0000 
     19 O          35.7810   -1.1030    3.7650 O.2       7 ALP1        0.0000 
     20 O          35.4325    0.8740    2.4935 O.2       1 ALC1        0.0000 
     21 O          36.6830    0.4260    2.5420 O.2       7 ALP1        0.0000 
     22 O          33.4460    1.5630    3.7655 O.2       1 ALC1        0.0000 
     23 O          32.7100    1.8040    5.0860 O.2       7 ALP1        0.0000 
     24 N          37.5000    4.2185    2.3990 N.am      2 SEC2        0.0000 
     25 N          36.3960    3.6750    2.6340 N.am     14 SEL2        0.0000 
     26 N          38.6040    4.7620    2.1640 N.am      8 SEP2        0.0000 
     27 Zn         34.4815    3.8520    4.3845 Zn        5 ZIC7        0.0000 
     28 Zn         34.0400    4.0820    3.5170 Zn       17 ZIL7        0.0000 
     29 Zn         34.9230    3.6220    5.2520 Zn       11 ZIP7        0.0000 
     30 N          32.8325    4.4910    3.3755 N.am      2 SEC2        0.0000 
     31 N          34.0400    4.0820    3.5170 N.am     14 SEL2        0.0000 
     32 N          31.6250    4.9000    3.2340 N.am      8 SEP2        0.0000 
     33 CA         33.5590    5.2935   -0.7025 C.3       6 GLC5        0.0000 
     34 CA         34.5310    5.3200    1.1620 C.3      18 GLL5        0.0000 
     35 CA         32.5870    5.2670   -2.5670 C.3      12 GLP5        0.0000 
     36 CA         33.4530    6.4660    3.4715 C.3       6 GLC5        0.0000 
     37 CA         34.7190    6.6990    1.7610 C.3      18 GLL5        0.0000 
     38 CA         32.1870    6.2330    5.1820 C.3      12 GLP5        0.0000 
     39 N          35.6425    7.9515   -1.5505 N.am      2 SEC2        0.0000 
     40 N          35.0260    7.5960   -0.3910 N.am     14 SEL2        0.0000 
     41 N          36.2590    8.3070   -2.7100 N.am      8 SEP2        0.0000 
     42 N          36.5540    7.1360   -0.8525 N.am      2 SEC2        0.0000 
     43 N          38.0820    6.6760   -1.3140 N.am      8 SEP2        0.0000 
     44 CA         32.6400    7.1720   -1.4700 C.3       6 GLC5        0.0000 
     45 CA         32.6930    9.0770   -0.3730 C.3      18 GLL5        0.0000 
     46 CA         30.2030    8.1625   -0.1910 C.3       6 GLC5        0.0000 
     47 CA         31.4260    9.8110    0.0460 C.3      18 GLL5        0.0000 
     48 CA         28.9800    6.5140   -0.4280 C.3      12 GLP5        0.0000 
     49 CA         31.6895   11.3815   -1.3815 C.3       6 GLC5        0.0000 
     50 CA         31.9530   12.9520   -2.8090 C.3      12 GLP5        0.0000 
     51 NZ         34.9955   11.0450   -2.5265 N.4       4 LYC4        0.0000 
     52 NZ         33.9410   10.2050   -2.0880 N.4      16 LYL4        0.0000 
     53 NZ         36.8530   12.4830   -2.1100 N.4      10 LYP4        0.0000 
     54 N          35.1000    9.2560   -2.3990 N.am      2 SEC2        0.0000 
     55 N          33.9410   10.2050   -2.0880 N.am     14 SEL2        0.0000 
     56 N          34.9955   11.0450   -2.5265 N.am      2 SEC2        0.0000 
     57 N          36.0500   11.8850   -2.9650 N.am      8 SEP2        0.0000 
     58 NZ         35.5330   11.5555   -0.4040 N.4       4 LYC4        0.0000 
     59 NZ         34.3970   10.8460    0.0160 N.4      16 LYL4        0.0000 
     60 N          35.5330   11.5555   -0.4040 N.am      2 SEC2        0.0000 
     61 N          34.3970   10.8460    0.0160 N.am     14 SEL2        0.0000 
     62 N          36.6690   12.2650   -0.8240 N.am      8 SEP2        0.0000 
     63 CA         38.2945    8.6460    2.0985 C.3       6 GLC5        0.0000 
     64 CA         36.2480    8.4320    2.8160 C.3      18 GLL5        0.0000 
     65 CA         40.3410    8.8600    1.3810 C.3      12 GLP5        0.0000 
     66 CA         36.9430    9.2090   -0.1120 C.3       6 GLC5        0.0000 
     67 CA         36.3890    9.5610    1.9820 C.3      18 GLL5        0.0000 
     68 CA         37.4970    8.8570   -2.2060 C.3      12 GLP5        0.0000 
     69 CA         38.3370   12.3765    2.8795 C.3       6 GLC5        0.0000 
     70 CA         36.7770   13.5090    3.6730 C.3      18 GLL5        0.0000 
     71 CA         39.8970   11.2440    2.0860 C.3      12 GLP5        0.0000 
     72 CA         34.6155    1.1530    0.1140 C.3       6 GLC5        0.0000 
     73 CA         34.2170    2.3640    1.4430 C.3      18 GLL5        0.0000 
     74 CA         35.7100   -0.1830   -0.9000 C.3      12 GLP5        0.0000 
     75 CA         36.7537    6.5795    4.0267 C.3       6 GLC5        0.0000 
     76 CA         36.1370    7.0320    2.2490 C.3      18 GLL5        0.0000 
     77 CA         37.3150    5.4270    5.5210 C.3      12 GLP5        0.0000 
     78 CA         38.0757   10.9444    2.5531 C.3       6 GLC5        0.0000 
     79 CA         36.9047    7.8533    5.3490 C.3       6 GLC5        0.0000 
     80 CA         35.9600    9.9610    4.6360 C.3      18 GLL5        0.0000 
     81 CA         37.8210    6.4010    6.3010 C.3      12 GLP5        0.0000 
@<TRIPOS>BOND
@<TRIPOS>SUBSTRUCTURE
     1 ALC1       15 GROUP        1 X    ALC  0     ROOT ALC X 1
     2 SEC2       24 GROUP        1 X    SEC  0     **** SEC X 2
     3 ASC3        8 GROUP        1 X    ASC  0     **** ASC X 3
     4 LYC4       51 GROUP        1 X    LYC  0     **** LYC X 4
     5 ZIC7       27 GROUP        1 X    ZIC  0     **** ZIC X 5
     6 GLC5        1 GROUP        1 X    GLC  0     **** GLC X 6
     7 ALP1       17 GROUP        1 Y    ALP  0     ROOT ALP Y 8
     8 SEP2       26 GROUP        1 Y    SEP  0     **** SEP Y 9
     9 ASP3       10 GROUP        1 Y    ASP  0     **** ASP Y 10
    10 LYP4       53 GROUP        1 Y    LYP  0     **** LYP Y 11
    11 ZIP7       29 GROUP        1 Y    ZIP  0     **** ZIP Y 12
    12 GLP5        3 GROUP        1 Y    GLP  0     **** GLP Y 13
    13 ALL1       16 GROUP        1 Z    ALL  0     ROOT ALL Z 15
    14 SEL2       25 GROUP        1 Z    SEL  0     **** SEL Z 16
    15 ASL3        9 GROUP        1 Z    ASL  0     **** ASL Z 17
    16 LYL4       52 GROUP        1 Z    LYL  0     **** LYL Z 18
    17 ZIL7       28 GROUP        1 Z    ZIL  0     **** ZIL Z 19
    18 GLL5        2 GROUP        1 Z    GLL  0     **** GLL Z 20
@<TRIPOS>SET

