#    Name: 3b7r_BIR_2_ligand
#    Modification time : Mon Mar 24 19:06:37 2014

@<TRIPOS>MOLECULE
3b7r_BIR_2_ligand
   55    56     1     0     0
SMALL
NO_CHARGES


@<TRIPOS>ATOM
      1 C3         32.8250    2.6140    0.8130 C.3       1 BIR1001     0.0000 
      2 C2         34.2170    2.3640    1.4430 C.3       1 BIR1001     0.0000 
      3 N1         34.1820    1.3220    2.4450 N.4       1 BIR1001     0.0000 
      4 P4         34.9260    3.8990    2.2280 P.3       1 BIR1001     0.0000 
      5 O6         36.3960    3.6750    2.6340 O.co2     1 BIR1001     0.0000 
      6 O5         34.0400    4.0820    3.5170 O.co2     1 BIR1001     0.0000 
      7 C7         34.5310    5.3200    1.1620 C.3       1 BIR1001     0.0000 
      8 C8         34.7190    6.6990    1.7610 C.3       1 BIR1001     0.0000 
      9 C10        34.4030    7.6590    0.6470 C.2       1 BIR1001     0.0000 
     10 O23        35.0260    7.5960   -0.3910 O.2       1 BIR1001     0.0000 
     11 N24        33.1880    8.2850    0.7060 N.am      1 BIR1001     0.0000 
     12 C25        32.6930    9.0770   -0.3730 C.3       1 BIR1001     0.0000 
     13 C26        31.4260    9.8110    0.0460 C.3       1 BIR1001     0.0000 
     14 C27        33.7680   10.1380   -0.7670 C.2       1 BIR1001     0.0000 
     15 O28        33.9410   10.2050   -2.0880 O.co2     1 BIR1001     0.0000 
     16 O29        34.3970   10.8460    0.0160 O.co2     1 BIR1001     0.0000 
     17 C9         36.1370    7.0320    2.2490 C.3       1 BIR1001     0.0000 
     18 C11        36.2480    8.4320    2.8160 C.ar      1 BIR1001     0.0000 
     19 C12        36.3890    9.5610    1.9820 C.ar      1 BIR1001     0.0000 
     20 C13        36.3110   10.8720    2.4490 C.ar      1 BIR1001     0.0000 
     21 C14        36.1590   11.0730    3.8250 C.ar      1 BIR1001     0.0000 
     22 C15        35.9600    9.9610    4.6360 C.ar      1 BIR1001     0.0000 
     23 C16        36.0170    8.6500    4.1580 C.ar      1 BIR1001     0.0000 
     24 C17        36.0680   12.4610    4.3410 C.ar      1 BIR1001     0.0000 
     25 C18        35.2070   12.7980    5.4030 C.ar      1 BIR1001     0.0000 
     26 C19        35.1200   14.1300    5.8460 C.ar      1 BIR1001     0.0000 
     27 C20        35.8640   15.1660    5.2190 C.ar      1 BIR1001     0.0000 
     28 C21        36.7050   14.8250    4.1400 C.ar      1 BIR1001     0.0000 
     29 C22        36.7770   13.5090    3.6730 C.ar      1 BIR1001     0.0000 
     30 H          34.9539    2.1765    0.6773 H         1 BIR1001     0.0000 
     31 H          33.4967    5.1056    0.8793 H         1 BIR1001     0.0000 
     32 H          35.1692    5.1316    0.2944 H         1 BIR1001     0.0000 
     33 H          34.0153    6.8595    2.5456 H         1 BIR1001     0.0000 
     34 H          32.5884    8.1965    1.5514 H         1 BIR1001     0.0000 
     35 H          32.4841    8.4938   -1.2439 H         1 BIR1001     0.0000 
     36 H          36.8329    6.9213    1.4073 H         1 BIR1001     0.0000 
     37 H          36.4245    6.3019    3.0166 H         1 BIR1001     0.0000 
     38 H          36.5608    9.3986    0.9611 H         1 BIR1001     0.0000 
     39 H          36.3627   11.6581    1.8123 H         1 BIR1001     0.0000 
     40 H          35.7576   10.1112    5.6540 H         1 BIR1001     0.0000 
     41 H          35.8878    7.8653    4.8028 H         1 BIR1001     0.0000 
     42 H          34.6435   12.0715    5.8531 H         1 BIR1001     0.0000 
     43 H          34.5074   14.3657    6.6392 H         1 BIR1001     0.0000 
     44 H          35.7888   16.1178    5.5411 H         1 BIR1001     0.0000 
     45 H          37.2725   15.5595    3.6927 H         1 BIR1001     0.0000 
     46 H          37.3377   13.2789    2.8475 H         1 BIR1001     0.0000 
     47 H          32.8552    3.3335    0.1192 H         1 BIR1001     0.0000 
     48 H          32.4656    1.7933    0.3688 H         1 BIR1001     0.0000 
     49 H          32.1525    2.8951    1.4977 H         1 BIR1001     0.0000 
     50 H          33.8772    0.4495    2.0630 H         1 BIR1001     0.0000 
     51 H          35.0829    1.1658    2.8501 H         1 BIR1001     0.0000 
     52 H          33.5589    1.5477    3.1940 H         1 BIR1001     0.0000 
     53 H          31.5894   10.4212    0.8212 H         1 BIR1001     0.0000 
     54 H          31.0590   10.3719   -0.6962 H         1 BIR1001     0.0000 
     55 H          30.7027    9.1769    0.3194 H         1 BIR1001     0.0000 
@<TRIPOS>BOND
     1    2    1 1    
     2   47    1 1    
     3   48    1 1    
     4   49    1 1    
     5    3    2 1    
     6    4    2 1    
     7   30    2 1    
     8   50    3 1    
     9   51    3 1    
    10   52    3 1    
    11    5    4 ar   
    12    6    4 ar   
    13    7    4 1    
    14    8    7 1    
    15   31    7 1    
    16   32    7 1    
    17    9    8 1    
    18   17    8 1    
    19   33    8 1    
    20   10    9 2    
    21   11    9 am   
    22   12   11 1    
    23   34   11 1    
    24   13   12 1    
    25   14   12 1    
    26   35   12 1    
    27   53   13 1    
    28   54   13 1    
    29   55   13 1    
    30   15   14 ar   
    31   16   14 ar   
    32   18   17 1    
    33   36   17 1    
    34   37   17 1    
    35   19   18 ar   
    36   23   18 ar   
    37   20   19 ar   
    38   38   19 1    
    39   21   20 ar   
    40   39   20 1    
    41   22   21 ar   
    42   24   21 1    
    43   23   22 ar   
    44   40   22 1    
    45   41   23 1    
    46   25   24 ar   
    47   29   24 ar   
    48   26   25 ar   
    49   42   25 1    
    50   27   26 ar   
    51   43   26 1    
    52   28   27 ar   
    53   44   27 1    
    54   29   28 ar   
    55   45   28 1    
    56   46   29 1    
@<TRIPOS>SUBSTRUCTURE
     1 BIR1001     1 GROUP   
@<TRIPOS>SET

