#    Name: 2r4u_ADP_1_INTS_M
#    Modification time : Mon Mar 24 23:09:29 2014

@<TRIPOS>MOLECULE
2r4u_ADP_1_INTS_M
   73     0    12     0     0
SMALL
NO_CHARGES


@<TRIPOS>ATOM
      1 NZ          4.0025  -41.9655  -38.6535 N.4       3 LYC4        0.0000 
      2 NZ          4.9400  -42.3640  -37.6240 N.4      11 LYL4        0.0000 
      3 NZ          2.5290  -40.3480  -39.6720 N.4       7 LYP4        0.0000 
      4 NZ          4.0195  -43.0730  -36.7720 N.4       3 LYC4        0.0000 
      5 NZ          3.0990  -43.7820  -35.9200 N.4       7 LYP4        0.0000 
      6 N           4.0025  -41.9655  -38.6535 N.am      2 SEC2        0.0000 
      7 N           4.9400  -42.3640  -37.6240 N.am     10 SEL2        0.0000 
      8 N           3.0650  -41.5670  -39.6830 N.am      6 SEP2        0.0000 
      9 N           4.0195  -43.0730  -36.7720 N.am      2 SEC2        0.0000 
     10 N           3.0990  -43.7820  -35.9200 N.am      6 SEP2        0.0000 
     11 NZ          3.7400  -39.7145  -37.6730 N.4       3 LYC4        0.0000 
     12 NZ          4.5350  -39.9980  -36.5500 N.4      11 LYL4        0.0000 
     13 N           3.7400  -39.7145  -37.6730 N.am      2 SEC2        0.0000 
     14 N           4.5350  -39.9980  -36.5500 N.am     10 SEL2        0.0000 
     15 N           2.9450  -39.4310  -38.7960 N.am      6 SEP2        0.0000 
     16 N           7.6505  -39.7225  -36.7795 N.am      2 SEC2        0.0000 
     17 N           6.8830  -40.8030  -37.1990 N.am     10 SEL2        0.0000 
     18 N           8.4180  -38.6420  -36.3600 N.am      6 SEP2        0.0000 
     19 N           8.1245  -43.1595  -33.2270 N.am      2 SEC2        0.0000 
     20 N           8.0060  -42.4330  -34.5990 N.am     10 SEL2        0.0000 
     21 N           8.2430  -43.8860  -31.8550 N.am      6 SEP2        0.0000 
     22 N           7.1295  -43.1060  -32.3870 N.am      2 SEC2        0.0000 
     23 N           6.0160  -42.3260  -32.9190 N.am     10 SEL2        0.0000 
     24 N           6.4800  -42.5465  -31.3465 N.am      2 SEC2        0.0000 
     25 N           6.9440  -42.7670  -29.7740 N.am      6 SEP2        0.0000 
     26 CA          5.2630  -40.1105  -31.8230 C.3       4 GLC5        0.0000 
     27 CA          5.9790  -39.3070  -33.7280 C.3      12 GLL5        0.0000 
     28 CA          4.5470  -40.9140  -29.9180 C.3       8 GLP5        0.0000 
     29 CA          8.0220  -38.6150  -30.1920 C.3       4 GLC5        0.0000 
     30 CA          6.7710  -38.2040  -31.6290 C.3      12 GLL5        0.0000 
     31 CA          9.2730  -39.0260  -28.7550 C.3       8 GLP5        0.0000 
     32 N           8.2455  -36.1070  -31.5160 N.am      2 SEC2        0.0000 
     33 N           7.8180  -37.3430  -31.1500 N.am     10 SEL2        0.0000 
     34 N           8.6730  -34.8710  -31.8820 N.am      6 SEP2        0.0000 
     35 O           9.1690  -37.4070  -31.5735 O.2       1 ALC1        0.0000 
     36 O           7.8180  -37.3430  -31.1500 O.2       9 ALL1        0.0000 
     37 O          10.5200  -37.4710  -31.9970 O.2       5 ALP1        0.0000 
     38 CA          3.6315  -37.3405  -30.0995 C.3       4 GLC5        0.0000 
     39 CA          5.4150  -37.6860  -31.1810 C.3      12 GLL5        0.0000 
     40 CA          1.8480  -36.9950  -29.0180 C.3       8 GLP5        0.0000 
     41 CA          6.7820  -35.6170  -32.7590 C.3       4 GLC5        0.0000 
     42 CA          5.2150  -36.5590  -32.1870 C.3      12 GLL5        0.0000 
     43 CA          8.3490  -34.6750  -33.3310 C.3       8 GLP5        0.0000 
     44 CA         -0.1390  -33.8590  -30.3865 C.3       4 GLC5        0.0000 
     45 CA          1.1050  -34.0720  -31.9800 C.3      12 GLL5        0.0000 
     46 CA         -1.3830  -33.6460  -28.7930 C.3       8 GLP5        0.0000 
     47 CA          0.6225  -32.1965  -32.6125 C.3       4 GLC5        0.0000 
     48 CA          0.1400  -30.3210  -33.2450 C.3       8 GLP5        0.0000 
     49 O          -1.1400  -32.8775  -32.4455 O.2       1 ALC1        0.0000 
     50 O          -0.1780  -34.0020  -32.3940 O.2       9 ALL1        0.0000 
     51 O          -2.1020  -31.7530  -32.4970 O.2       5 ALP1        0.0000 
     52 N           1.2490  -31.5710  -31.0615 N.am      2 SEC2        0.0000 
     53 N           1.6170  -33.1100  -31.1690 N.am     10 SEL2        0.0000 
     54 N           0.8810  -30.0320  -30.9540 N.am      6 SEP2        0.0000 
     55 CA          2.3715  -35.0705  -29.8850 C.3       4 GLC5        0.0000 
     56 CA          2.8950  -33.1460  -30.7520 C.3      12 GLL5        0.0000 
     57 CA          1.4015  -33.2580  -29.3785 C.3       4 GLC5        0.0000 
     58 CA         -0.0920  -33.3700  -28.0050 C.3       8 GLP5        0.0000 
     59 CA          2.1225  -31.2040  -30.2730 C.3       4 GLC5        0.0000 
     60 CA          1.3500  -29.2620  -29.7940 C.3       8 GLP5        0.0000 
     61 CA          3.9565  -31.6235  -29.9115 C.3       4 GLC5        0.0000 
     62 CA          5.0180  -30.1010  -29.0710 C.3       8 GLP5        0.0000 
     63 CA          3.2050  -33.7550  -28.9215 C.3       4 GLC5        0.0000 
     64 CA          3.5150  -34.3640  -27.0910 C.3       8 GLP5        0.0000 
     65 CA          6.6055  -37.8053  -35.2555 C.3       4 GLC5        0.0000 
     66 CA          6.6730  -38.0920  -33.1440 C.3      12 GLL5        0.0000 
     67 CA          6.8850  -36.9110  -37.0750 C.3       8 GLP5        0.0000 
     68 CA          7.9710  -38.9487  -34.6000 C.3       4 GLC5        0.0000 
     69 CA          9.6160  -39.1980  -35.7640 C.3       8 GLP5        0.0000 
     70 CA          7.5355  -36.4115  -32.8588 C.3       4 GLC5        0.0000 
     71 CA          5.3200  -39.4295  -30.6615 C.3       4 GLC5        0.0000 
     72 CA          2.1101  -35.9325  -30.5379 C.3       4 GLC5        0.0000 
     73 CA          1.9200  -35.1280  -32.3870 C.3      12 GLL5        0.0000 
@<TRIPOS>BOND
@<TRIPOS>SUBSTRUCTURE
     1 ALC1       35 GROUP        1 X    ALC  0     ROOT ALC X 1
     2 SEC2        6 GROUP        1 X    SEC  0     **** SEC X 2
     3 LYC4        1 GROUP        1 X    LYC  0     **** LYC X 4
     4 GLC5       26 GROUP        1 X    GLC  0     **** GLC X 6
     5 ALP1       37 GROUP        1 Y    ALP  0     ROOT ALP Y 8
     6 SEP2        8 GROUP        1 Y    SEP  0     **** SEP Y 9
     7 LYP4        3 GROUP        1 Y    LYP  0     **** LYP Y 11
     8 GLP5       28 GROUP        1 Y    GLP  0     **** GLP Y 13
     9 ALL1       36 GROUP        1 Z    ALL  0     ROOT ALL Z 15
    10 SEL2        7 GROUP        1 Z    SEL  0     **** SEL Z 16
    11 LYL4        2 GROUP        1 Z    LYL  0     **** LYL Z 18
    12 GLL5       27 GROUP        1 Z    GLL  0     **** GLL Z 20
@<TRIPOS>SET

