#    Name: 2r4u_ADP_1_ligand
#    Modification time : Mon Mar 24 23:09:29 2014

@<TRIPOS>MOLECULE
2r4u_ADP_1_ligand
   39    41     1     0     0
SMALL
NO_CHARGES


@<TRIPOS>ATOM
      1 PB          5.4200  -41.2170  -36.7500 P.3       1 ADP501      0.0000 
      2 O1B         4.9400  -42.3640  -37.6240 O.co2     1 ADP501      0.0000 
      3 O2B         4.5350  -39.9980  -36.5500 O.co2     1 ADP501      0.0000 
      4 O3B         6.8830  -40.8030  -37.1990 O.co2     1 ADP501      0.0000 
      5 PA          6.7300  -41.8120  -34.1540 P.3       1 ADP501      0.0000 
      6 O1A         8.0060  -42.4330  -34.5990 O.co2     1 ADP501      0.0000 
      7 O2A         6.0160  -42.3260  -32.9190 O.co2     1 ADP501      0.0000 
      8 O3A         5.5920  -41.9240  -35.2950 O.3       1 ADP501      0.0000 
      9 O5'         7.0010  -40.2370  -34.0100 O.3       1 ADP501      0.0000 
     10 C5'         5.9790  -39.3070  -33.7280 C.3       1 ADP501      0.0000 
     11 C4'         6.6730  -38.0920  -33.1440 C.3       1 ADP501      0.0000 
     12 O4'         5.8460  -36.9610  -33.4090 O.3       1 ADP501      0.0000 
     13 C3'         6.7710  -38.2040  -31.6290 C.3       1 ADP501      0.0000 
     14 O3'         7.8180  -37.3430  -31.1500 O.3       1 ADP501      0.0000 
     15 C2'         5.4150  -37.6860  -31.1810 C.3       1 ADP501      0.0000 
     16 O2'         5.3930  -37.2280  -29.8220 O.3       1 ADP501      0.0000 
     17 C1'         5.2150  -36.5590  -32.1870 C.3       1 ADP501      0.0000 
     18 N9          3.8010  -36.2260  -32.4400 N.pl3     1 ADP501      0.0000 
     19 C8          2.9130  -36.9010  -33.2000 C.2       1 ADP501      0.0000 
     20 N7          1.7390  -36.2320  -33.1570 N.2       1 ADP501      0.0000 
     21 C5          1.9200  -35.1280  -32.3870 C.ar      1 ADP501      0.0000 
     22 C6          1.1050  -34.0720  -31.9800 C.ar      1 ADP501      0.0000 
     23 N6         -0.1780  -34.0020  -32.3940 N.pl3     1 ADP501      0.0000 
     24 N1          1.6170  -33.1100  -31.1690 N.ar      1 ADP501      0.0000 
     25 C2          2.8950  -33.1460  -30.7520 C.ar      1 ADP501      0.0000 
     26 N3          3.7040  -34.1520  -31.1180 N.ar      1 ADP501      0.0000 
     27 C4          3.2320  -35.1400  -31.9320 C.ar      1 ADP501      0.0000 
     28 H           5.2734  -39.6776  -32.9930 H         1 ADP501      0.0000 
     29 H           5.4462  -38.9947  -34.6190 H         1 ADP501      0.0000 
     30 H           7.6335  -37.9863  -33.5568 H         1 ADP501      0.0000 
     31 H           6.8699  -39.2027  -31.3627 H         1 ADP501      0.0000 
     32 H           4.6923  -38.4394  -31.4020 H         1 ADP501      0.0000 
     33 H           5.7318  -35.6780  -31.7937 H         1 ADP501      0.0000 
     34 H           3.0836  -37.7128  -33.6858 H         1 ADP501      0.0000 
     35 H          -0.4896  -34.7433  -32.9885 H         1 ADP501      0.0000 
     36 H          -0.7028  -33.2151  -32.0694 H         1 ADP501      0.0000 
     37 H           3.2609  -32.3813  -30.1361 H         1 ADP501      0.0000 
     38 H           8.6328  -37.6180  -31.6603 H         1 ADP501      0.0000 
     39 H           6.3268  -37.3598  -29.4895 H         1 ADP501      0.0000 
@<TRIPOS>BOND
     1    2    1 ar   
     2    3    1 ar   
     3    4    1 ar   
     4    8    1 1    
     5    6    5 ar   
     6    7    5 ar   
     7    8    5 1    
     8    9    5 1    
     9   10    9 1    
    10   11   10 1    
    11   28   10 1    
    12   29   10 1    
    13   12   11 1    
    14   13   11 1    
    15   30   11 1    
    16   17   12 1    
    17   14   13 1    
    18   15   13 1    
    19   31   13 1    
    20   38   14 1    
    21   16   15 1    
    22   17   15 1    
    23   32   15 1    
    24   39   16 1    
    25   18   17 1    
    26   33   17 1    
    27   19   18 1    
    28   27   18 1    
    29   20   19 2    
    30   34   19 1    
    31   21   20 1    
    32   22   21 ar   
    33   27   21 ar   
    34   23   22 1    
    35   24   22 ar   
    36   35   23 1    
    37   36   23 1    
    38   25   24 ar   
    39   26   25 ar   
    40   37   25 1    
    41   27   26 ar   
@<TRIPOS>SUBSTRUCTURE
     1 ADP501      1 GROUP   
@<TRIPOS>SET

