#    Name: 3a2h_TEJ_1_INTS_M
#    Modification time : Tue Mar 25 11:33:02 2014

@<TRIPOS>MOLECULE
3a2h_TEJ_1_INTS_M
  114     0     9     0     0
SMALL
NO_CHARGES


@<TRIPOS>ATOM
      1 N           6.4830   -1.6715   12.5735 N.am      2 SEC2        0.0000 
      2 N           5.7660   -0.9820   11.5000 N.am      8 SEL2        0.0000 
      3 N           7.2000   -2.3610   13.6470 N.am      5 SEP2        0.0000 
      4 CA          1.9665    1.6770   10.8525 C.3       3 GLC5        0.0000 
      5 CA          4.0400    1.2800   10.9540 C.3       9 GLL5        0.0000 
      6 CA         -0.1070    2.0740   10.7510 C.3       6 GLP5        0.0000 
      7 CA          3.9245    2.1565    9.0470 C.3       3 GLC5        0.0000 
      8 CA          3.8090    3.0330    7.1400 C.3       6 GLP5        0.0000 
      9 CA          3.8040    3.6445   13.3990 C.3       3 GLC5        0.0000 
     10 CA          5.4620    2.3330   12.7040 C.3       9 GLL5        0.0000 
     11 CA          2.1460    4.9560   14.0940 C.3       6 GLP5        0.0000 
     12 CA          7.1120   -0.2175   14.2400 C.3       3 GLC5        0.0000 
     13 CA          6.5880    1.7150   13.5470 C.3       9 GLL5        0.0000 
     14 CA          7.6360   -2.1500   14.9330 C.3       6 GLP5        0.0000 
     15 N           7.0385   -0.9785   13.3310 N.am      2 SEC2        0.0000 
     16 N           6.8770    0.4040   13.0150 N.am      8 SEL2        0.0000 
     17 CA          8.0635    2.6290   11.4795 C.3       3 GLC5        0.0000 
     18 CA          7.7980    2.6280   13.4600 C.3       9 GLL5        0.0000 
     19 CA          8.3290    2.6300    9.4990 C.3       6 GLP5        0.0000 
     20 CA          6.9670    4.2630   16.8125 C.3       3 GLC5        0.0000 
     21 CA          7.8170    2.9890   16.0270 C.3       9 GLL5        0.0000 
     22 CA          6.1170    5.5370   17.5980 C.3       6 GLP5        0.0000 
     23 CA          5.8535    2.2955   16.1015 C.3       3 GLC5        0.0000 
     24 CA          3.8900    1.6020   16.1760 C.3       6 GLP5        0.0000 
     25 CA          7.5445    1.5230   17.4595 C.3       3 GLC5        0.0000 
     26 CA          7.2720    0.0570   18.8920 C.3       6 GLP5        0.0000 
     27 CA          9.3750    3.5675   17.2530 C.3       3 GLC5        0.0000 
     28 CA         10.9330    4.1460   18.4790 C.3       6 GLP5        0.0000 
     29 CA         13.7755    5.4960   13.3005 C.3       3 GLC5        0.0000 
     30 CA         11.9880    4.3870   13.9440 C.3       9 GLL5        0.0000 
     31 CA         15.5630    6.6050   12.6570 C.3       6 GLP5        0.0000 
     32 CA         12.0235    6.5760   15.5845 C.3       3 GLC5        0.0000 
     33 CA         11.0570    5.6010   14.0580 C.3       9 GLL5        0.0000 
     34 CA         12.9900    7.5510   17.1110 C.3       6 GLP5        0.0000 
     35 CA          9.2680    6.2930   10.7110 C.3       3 GLC5        0.0000 
     36 CA          9.4260    4.7720   12.2830 C.3       9 GLL5        0.0000 
     37 CA          9.1100    7.8140    9.1390 C.3       6 GLP5        0.0000 
     38 CA          8.8775    3.7010   10.8910 C.3       3 GLC5        0.0000 
     39 CA         12.3535    7.6160   14.6495 C.3       3 GLC5        0.0000 
     40 CA         11.3370    6.8030   13.2050 C.3       9 GLL5        0.0000 
     41 CA         13.3700    8.4290   16.0940 C.3       6 GLP5        0.0000 
     42 CA         11.4910    8.7620   14.5840 C.3       3 GLC5        0.0000 
     43 CA         10.4080    7.9850   13.4560 C.3       9 GLL5        0.0000 
     44 CA         12.5740    9.5390   15.7120 C.3       6 GLP5        0.0000 
     45 CA          9.0195    7.6795   11.3125 C.3       3 GLC5        0.0000 
     46 CA          8.9290    7.5450   13.4860 C.3       9 GLL5        0.0000 
     47 CA         10.1450    8.6570   14.9315 C.3       3 GLC5        0.0000 
     48 CA         11.3610    9.7690   16.3770 C.3       6 GLP5        0.0000 
     49 CA         12.8290    9.8380    7.4110 C.3       3 GLC5        0.0000 
     50 CA         13.4270    9.1270    9.4120 C.3       9 GLL5        0.0000 
     51 CA         12.2310   10.5490    5.4100 C.3       6 GLP5        0.0000 
     52 CA         11.8525    8.6575    8.1975 C.3       3 GLC5        0.0000 
     53 CA         10.2780    8.1880    6.9830 C.3       6 GLP5        0.0000 
     54 CA         16.9260    9.2760    8.1755 C.3       3 GLC5        0.0000 
     55 CA         14.8390    9.0880    8.8080 C.3       9 GLL5        0.0000 
     56 CA         19.0130    9.4640    7.5430 C.3       6 GLP5        0.0000 
     57 CA         15.5315   10.5995    7.7150 C.3       3 GLC5        0.0000 
     58 CA         16.2240   12.1110    6.6220 C.3       6 GLP5        0.0000 
     59 CA         15.8960    8.0550   10.4810 C.3       3 GLC5        0.0000 
     60 CA         16.9530    7.0220   12.1540 C.3       6 GLP5        0.0000 
     61 CA         15.6205   10.5870   10.0345 C.3       3 GLC5        0.0000 
     62 CA         16.4020   12.0860   11.2610 C.3       6 GLP5        0.0000 
     63 N          17.1045    9.6175    9.2210 N.am      2 SEC2        0.0000 
     64 N          15.8260    9.1640    9.8360 N.am      8 SEL2        0.0000 
     65 N          18.3830   10.0710    8.6060 N.am      5 SEP2        0.0000 
     66 O          15.7185   10.1285   10.8590 O.2       1 ALC1        0.0000 
     67 O          15.8260    9.1640    9.8360 O.2       7 ALL1        0.0000 
     68 O          15.6110   11.0930   11.8820 O.2       4 ALP1        0.0000 
     69 CA         17.0335    7.9525    7.6960 C.3       3 GLC5        0.0000 
     70 CA         15.1080    7.8120    8.0150 C.3       9 GLL5        0.0000 
     71 CA         18.9590    8.0930    7.3770 C.3       6 GLP5        0.0000 
     72 CA         16.2535    5.3095    8.8590 C.3       3 GLC5        0.0000 
     73 CA         14.8430    6.5300    8.8020 C.3       9 GLL5        0.0000 
     74 CA         17.6640    4.0890    8.9160 C.3       6 GLP5        0.0000 
     75 N          15.9260    5.2480    6.7700 N.am      2 SEC2        0.0000 
     76 N          14.9020    5.4500    7.8680 N.am      8 SEL2        0.0000 
     77 N          16.9500    5.0460    5.6720 N.am      5 SEP2        0.0000 
     78 O          13.8855    5.0045    7.0620 O.2       1 ALC1        0.0000 
     79 O          14.9020    5.4500    7.8680 O.2       7 ALL1        0.0000 
     80 O          12.8690    4.5590    6.2560 O.2       4 ALP1        0.0000 
     81 CA         11.8855    7.3975    8.2255 C.3       3 GLC5        0.0000 
     82 CA         13.4930    6.6070    9.4680 C.3       9 GLL5        0.0000 
     83 CA         10.9980    6.4310    8.5645 C.3       3 GLC5        0.0000 
     84 CA         12.6270    5.5980    9.3820 C.3       9 GLL5        0.0000 
     85 CA          9.3690    7.2640    7.7470 C.3       6 GLP5        0.0000 
     86 CA         12.8330    4.3775    7.7425 C.3       3 GLC5        0.0000 
     87 CA         13.0390    3.1570    6.1030 C.3       6 GLP5        0.0000 
     88 CA          6.7923    2.1947   10.8795 C.3       3 GLC5        0.0000 
     89 CA          4.9575    1.8130   14.6507 C.3       3 GLC5        0.0000 
     90 CA         10.6747    3.8460   16.5185 C.3       3 GLC5        0.0000 
     91 CA          9.7270    3.8570   14.6960 C.3       9 GLL5        0.0000 
     92 CA         12.3240    3.1125   12.4690 C.3       3 GLC5        0.0000 
     93 CA         11.1060    3.2350   14.4200 C.3       9 GLL5        0.0000 
     94 CA         13.1010    2.4140   10.7560 C.3       6 GLP5        0.0000 
     95 CA         12.8310    2.4180   14.8465 C.3       3 GLC5        0.0000 
     96 CA         14.1150    1.0250   15.5110 C.3       6 GLP5        0.0000 
     97 CA         13.6960    6.7018   12.6975 C.3       3 GLC5        0.0000 
     98 CA          8.9558    9.6930   13.6080 C.3       3 GLC5        0.0000 
     99 CA          8.2430   11.6210   13.7450 C.3       6 GLP5        0.0000 
    100 CA          6.7498    7.1380   13.3235 C.3       3 GLC5        0.0000 
    101 CA          4.7180    7.4110   12.8210 C.3       6 GLP5        0.0000 
    102 CA          7.9337    7.3300   15.4560 C.3       3 GLC5        0.0000 
    103 CA          7.0860    7.7950   17.0860 C.3       6 GLP5        0.0000 
    104 CA         13.4507    8.4345   13.1412 C.3       3 GLC5        0.0000 
    105 CA         12.3210    6.7940   12.2710 C.3       9 GLL5        0.0000 
    106 CA         14.4230    9.5040   14.4450 C.3       6 GLP5        0.0000 
    107 CA         11.0015    7.8548    9.9607 C.3       3 GLC5        0.0000 
    108 CA         12.6360    7.9360   11.4040 C.3       9 GLL5        0.0000 
    109 CA         14.2280    7.2503   11.7197 C.3       3 GLC5        0.0000 
    110 CA         13.1500    7.8550   10.1610 C.3       9 GLL5        0.0000 
    111 CA         13.6460   10.8878    9.0800 C.3       3 GLC5        0.0000 
    112 CA         13.1590   12.6680    9.0500 C.3       6 GLP5        0.0000 
    113 CA         14.8655    6.5868   10.8960 C.3       3 GLC5        0.0000 
    114 CA         13.0805    4.2583   10.0905 C.3       3 GLC5        0.0000 
@<TRIPOS>BOND
@<TRIPOS>SUBSTRUCTURE
     1 ALC1       66 GROUP        1 X    ALC  0     ROOT ALC X 1
     2 SEC2        1 GROUP        1 X    SEC  0     **** SEC X 2
     3 GLC5        4 GROUP        1 X    GLC  0     **** GLC X 6
     4 ALP1       68 GROUP        1 Y    ALP  0     ROOT ALP Y 8
     5 SEP2        3 GROUP        1 Y    SEP  0     **** SEP Y 9
     6 GLP5        6 GROUP        1 Y    GLP  0     **** GLP Y 13
     7 ALL1       67 GROUP        1 Z    ALL  0     ROOT ALL Z 15
     8 SEL2        2 GROUP        1 Z    SEL  0     **** SEL Z 16
     9 GLL5        5 GROUP        1 Z    GLL  0     **** GLL Z 20
@<TRIPOS>SET

