#    Name: 3a2h_TEJ_1_ligand
#    Modification time : Tue Mar 25 11:33:03 2014

@<TRIPOS>MOLECULE
3a2h_TEJ_1_ligand
   65    68     1     0     0
SMALL
NO_CHARGES


@<TRIPOS>ATOM
      1 O21         5.7660   -0.9820   11.5000 O.2       1 TEJ1        0.0000 
      2 C17         5.8400    0.1210   12.0330 C.2       1 TEJ1        0.0000 
      3 C18         5.0490    1.1860   11.8160 C.2       1 TEJ1        0.0000 
      4 C20         4.0400    1.2800   10.9540 C.2       1 TEJ1        0.0000 
      5 C19         5.4620    2.3330   12.7040 C.3       1 TEJ1        0.0000 
      6 C15         6.5880    1.7150   13.5470 C.3       1 TEJ1        0.0000 
      7 O16         6.8770    0.4040   13.0150 O.3       1 TEJ1        0.0000 
      8 C12         7.7980    2.6280   13.4600 C.3       1 TEJ1        0.0000 
      9 C10         8.6230    2.7760   14.7470 C.3       1 TEJ1        0.0000 
     10 C11         7.8170    2.9890   16.0270 C.3       1 TEJ1        0.0000 
     11 C7          9.7270    3.8570   14.6960 C.3       1 TEJ1        0.0000 
     12 C8         11.1060    3.2350   14.4200 C.3       1 TEJ1        0.0000 
     13 C9         11.9880    4.3870   13.9440 C.3       1 TEJ1        0.0000 
     14 C5         11.0570    5.6010   14.0580 C.3       1 TEJ1        0.0000 
     15 C6          9.6470    5.0950   13.7780 C.3       1 TEJ1        0.0000 
     16 C22         9.4260    4.7720   12.2830 C.3       1 TEJ1        0.0000 
     17 C4         11.3370    6.8030   13.2050 C.2       1 TEJ1        0.0000 
     18 C3         10.4080    7.9850   13.4560 C.3       1 TEJ1        0.0000 
     19 C2          8.9290    7.5450   13.4860 C.3       1 TEJ1        0.0000 
     20 C1          8.6340    6.1850   14.1660 C.3       1 TEJ1        0.0000 
     21 C23        12.3210    6.7940   12.2710 C.2       1 TEJ1        0.0000 
     22 C24        12.6360    7.9360   11.4040 C.2       1 TEJ1        0.0000 
     23 C25        13.1500    7.8550   10.1610 C.2       1 TEJ1        0.0000 
     24 C26        13.4270    9.1270    9.4120 C.3       1 TEJ1        0.0000 
     25 C27        14.8390    9.0880    8.8080 C.3       1 TEJ1        0.0000 
     26 O34        15.8260    9.1640    9.8360 O.3       1 TEJ1        0.0000 
     27 C73        15.1080    7.8120    8.0150 C.3       1 TEJ1        0.0000 
     28 C29        14.8430    6.5300    8.8020 C.3       1 TEJ1        0.0000 
     29 O32        14.9020    5.4500    7.8680 O.3       1 TEJ1        0.0000 
     30 C30        13.4930    6.6070    9.4680 C.2       1 TEJ1        0.0000 
     31 C31        12.6270    5.5980    9.3820 C.2       1 TEJ1        0.0000 
     32 H           4.6650    2.6163   13.3378 H         1 TEJ1        0.0000 
     33 H           5.8526    3.1270   12.1259 H         1 TEJ1        0.0000 
     34 H           6.2521    1.6678   14.5590 H         1 TEJ1        0.0000 
     35 H           7.4663    3.6393   13.1393 H         1 TEJ1        0.0000 
     36 H           8.4704    2.2623   12.6539 H         1 TEJ1        0.0000 
     37 H           9.1794    1.8014   14.9000 H         1 TEJ1        0.0000 
     38 H           9.8421    4.2690   15.7551 H         1 TEJ1        0.0000 
     39 H          11.0176    2.5037   13.6491 H         1 TEJ1        0.0000 
     40 H          11.4986    2.8272   15.3236 H         1 TEJ1        0.0000 
     41 H          12.2593    4.2403   12.9338 H         1 TEJ1        0.0000 
     42 H          12.8096    4.5062   14.5970 H         1 TEJ1        0.0000 
     43 H          11.0486    5.9082   15.1245 H         1 TEJ1        0.0000 
     44 H          10.5379    8.7249   12.6658 H         1 TEJ1        0.0000 
     45 H          10.6560    8.4469   14.4119 H         1 TEJ1        0.0000 
     46 H           8.5502    7.5053   12.4450 H         1 TEJ1        0.0000 
     47 H           8.3367    8.3289   13.9994 H         1 TEJ1        0.0000 
     48 H           8.6532    6.3233   15.2506 H         1 TEJ1        0.0000 
     49 H           7.6298    5.8600   13.8801 H         1 TEJ1        0.0000 
     50 H          12.9171    5.9422   12.1251 H         1 TEJ1        0.0000 
     51 H          12.4245    8.8845   11.8346 H         1 TEJ1        0.0000 
     52 H          13.3586    9.9792   10.0846 H         1 TEJ1        0.0000 
     53 H          12.7063    9.2510    8.6067 H         1 TEJ1        0.0000 
     54 H          14.9414    9.9285    8.1269 H         1 TEJ1        0.0000 
     55 H          16.1571    7.8141    7.6782 H         1 TEJ1        0.0000 
     56 H          14.4784    7.8128    7.1108 H         1 TEJ1        0.0000 
     57 H          15.6082    6.4412    9.5498 H         1 TEJ1        0.0000 
     58 H           8.4087    3.0746   16.8286 H         1 TEJ1        0.0000 
     59 H           7.2619    3.8196   15.9824 H         1 TEJ1        0.0000 
     60 H           7.1925    2.2282   16.2036 H         1 TEJ1        0.0000 
     61 H           9.3821    5.6016   11.7264 H         1 TEJ1        0.0000 
     62 H          10.1641    4.2086   11.9117 H         1 TEJ1        0.0000 
     63 H           8.5725    4.2729   12.1331 H         1 TEJ1        0.0000 
     64 H          15.4795    9.8486   10.4772 H         1 TEJ1        0.0000 
     65 H          13.9872    5.4048    7.4667 H         1 TEJ1        0.0000 
@<TRIPOS>BOND
     1    2    1 2    
     2    3    2 1    
     3    7    2 1    
     4    4    3 2    
     5    5    3 1    
     6    6    5 1    
     7   32    5 1    
     8   33    5 1    
     9    7    6 1    
    10    8    6 1    
    11   34    6 1    
    12    9    8 1    
    13   35    8 1    
    14   36    8 1    
    15   10    9 1    
    16   11    9 1    
    17   37    9 1    
    18   58   10 1    
    19   59   10 1    
    20   60   10 1    
    21   12   11 1    
    22   15   11 1    
    23   38   11 1    
    24   13   12 1    
    25   39   12 1    
    26   40   12 1    
    27   14   13 1    
    28   41   13 1    
    29   42   13 1    
    30   15   14 1    
    31   17   14 1    
    32   43   14 1    
    33   16   15 1    
    34   20   15 1    
    35   61   16 1    
    36   62   16 1    
    37   63   16 1    
    38   18   17 1    
    39   21   17 2    
    40   19   18 1    
    41   44   18 1    
    42   45   18 1    
    43   20   19 1    
    44   46   19 1    
    45   47   19 1    
    46   48   20 1    
    47   49   20 1    
    48   22   21 1    
    49   50   21 1    
    50   23   22 2    
    51   51   22 1    
    52   24   23 1    
    53   30   23 1    
    54   25   24 1    
    55   52   24 1    
    56   53   24 1    
    57   26   25 1    
    58   27   25 1    
    59   54   25 1    
    60   64   26 1    
    61   28   27 1    
    62   55   27 1    
    63   56   27 1    
    64   29   28 1    
    65   30   28 1    
    66   57   28 1    
    67   65   29 1    
    68   31   30 2    
@<TRIPOS>SUBSTRUCTURE
     1 TEJ1        1 GROUP   
@<TRIPOS>SET

