#    Name: 3lla_ACP_2_INTS_M
#    Modification time : Mon Mar 24 21:45:51 2014

@<TRIPOS>MOLECULE
3lla_ACP_2_INTS_M
   68     0    12     0     0
SMALL
NO_CHARGES


@<TRIPOS>ATOM
      1 N         -13.4435  -18.2770   -8.6170 N.am      2 SEC2        0.0000 
      2 N         -13.2670  -17.7050   -7.3750 N.am     10 SEL2        0.0000 
      3 N         -13.6200  -18.8490   -9.8590 N.am      6 SEP2        0.0000 
      4 N         -15.3370  -20.2090   -8.2665 N.am      2 SEC2        0.0000 
      5 N         -15.7600  -19.2200   -7.3740 N.am     10 SEL2        0.0000 
      6 N         -14.9140  -21.1980   -9.1590 N.am      6 SEP2        0.0000 
      7 N         -16.7550  -20.1100   -8.2075 N.am      2 SEC2        0.0000 
      8 N         -17.7500  -21.0000   -9.0410 N.am      6 SEP2        0.0000 
      9 NZ        -18.2655  -18.9905   -4.0630 N.4       3 LYC4        0.0000 
     10 NZ        -17.1560  -19.1750   -5.2330 N.4      11 LYL4        0.0000 
     11 NZ        -19.9970  -19.8360   -3.4500 N.4       7 LYP4        0.0000 
     12 N         -18.3725  -19.7360   -4.9310 N.am      2 SEC2        0.0000 
     13 N         -17.1560  -19.1750   -5.2330 N.am     10 SEL2        0.0000 
     14 N         -19.5890  -20.2970   -4.6290 N.am      6 SEP2        0.0000 
     15 N         -18.2655  -18.9905   -4.0630 N.am      2 SEC2        0.0000 
     16 N         -19.3750  -18.8060   -2.8930 N.am      6 SEP2        0.0000 
     17 NZ        -18.9780  -17.7485   -3.7850 N.4       3 LYC4        0.0000 
     18 NZ        -18.5810  -16.6910   -4.6770 N.4      11 LYL4        0.0000 
     19 NZ        -19.7745  -16.0765   -4.0060 N.4       3 LYC4        0.0000 
     20 NZ        -20.9680  -15.4620   -3.3350 N.4       7 LYP4        0.0000 
     21 N         -18.9780  -17.7485   -3.7850 N.am      2 SEC2        0.0000 
     22 N         -18.5810  -16.6910   -4.6770 N.am     10 SEL2        0.0000 
     23 N         -19.7745  -16.0765   -4.0060 N.am      2 SEC2        0.0000 
     24 N         -20.9680  -15.4620   -3.3350 N.am      6 SEP2        0.0000 
     25 CA        -16.8155  -15.9725   -9.1170 C.3       4 GLC5        0.0000 
     26 CA        -18.4590  -14.9260   -8.1050 C.3      12 GLL5        0.0000 
     27 CA        -15.1720  -17.0190  -10.1290 C.3       8 GLP5        0.0000 
     28 CA        -19.4090  -12.6915   -9.7360 C.3       4 GLC5        0.0000 
     29 CA        -18.4610  -13.4030   -8.2060 C.3      12 GLL5        0.0000 
     30 CA        -20.3570  -11.9800  -11.2660 C.3       8 GLP5        0.0000 
     31 CA        -16.8270  -11.5685   -5.6005 C.3       4 GLC5        0.0000 
     32 CA        -17.5580  -12.6980   -7.2060 C.3      12 GLL5        0.0000 
     33 CA        -16.0960  -10.4390   -3.9950 C.3       8 GLP5        0.0000 
     34 CA        -17.1885  -10.2995   -5.8865 C.3       4 GLC5        0.0000 
     35 CA        -18.2130  -11.3510   -7.0450 C.3      12 GLL5        0.0000 
     36 CA        -16.1640   -9.2480   -4.7280 C.3       8 GLP5        0.0000 
     37 CA        -20.0225  -11.8115   -9.2640 C.3       4 GLC5        0.0000 
     38 CA        -19.6880  -11.6430   -7.2620 C.3      12 GLL5        0.0000 
     39 CA        -19.0525  -10.2795   -5.6280 C.3       4 GLC5        0.0000 
     40 CA        -18.4170   -8.9160   -3.9940 C.3       8 GLP5        0.0000 
     41 N         -21.0400  -14.0765   -3.7030 N.am      2 SEC2        0.0000 
     42 N         -21.1120  -12.6910   -4.0710 N.am     10 SEL2        0.0000 
     43 CA        -21.9800  -13.6960   -4.3025 C.3       4 GLC5        0.0000 
     44 CA        -21.8920  -11.6240   -4.2970 C.3      12 GLL5        0.0000 
     45 CA        -22.0680  -15.7680   -4.3080 C.3       8 GLP5        0.0000 
     46 CA        -20.8835  -11.8875   -2.3665 C.3       4 GLC5        0.0000 
     47 CA        -19.8750  -12.1510   -0.4360 C.3       8 GLP5        0.0000 
     48 CA        -24.6760  -11.3875   -4.5805 C.3       4 GLC5        0.0000 
     49 CA        -23.0120  -10.9580   -3.5960 C.3      12 GLL5        0.0000 
     50 CA        -26.3400  -11.8170   -5.5650 C.3       8 GLP5        0.0000 
     51 CA        -22.0420   -9.7005   -2.3830 C.3       4 GLC5        0.0000 
     52 CA        -21.0720   -8.4430   -1.1700 C.3       8 GLP5        0.0000 
     53 O         -23.1225  -12.6855   -1.7890 O.2       1 ALC1        0.0000 
     54 O         -23.4770  -11.4350   -2.4210 O.2       9 ALL1        0.0000 
     55 O         -22.7680  -13.9360   -1.1570 O.2       5 ALP1        0.0000 
     56 O         -24.8535  -11.1485   -1.9360 O.2       1 ALC1        0.0000 
     57 O         -26.2300  -10.8620   -1.4510 O.2       5 ALP1        0.0000 
     58 N         -24.2860   -8.7780   -3.5110 N.am      2 SEC2        0.0000 
     59 N         -23.5560   -9.8550   -4.1630 N.am     10 SEL2        0.0000 
     60 N         -25.0160   -7.7010   -2.8590 N.am      6 SEP2        0.0000 
     61 CA        -24.7200  -10.5995   -5.4550 C.3       4 GLC5        0.0000 
     62 CA        -23.1000   -9.3820   -5.3450 C.3      12 GLL5        0.0000 
     63 CA        -24.8865   -8.7695   -5.8000 C.3       4 GLC5        0.0000 
     64 CA        -26.6730   -8.1570   -6.2550 C.3       8 GLP5        0.0000 
     65 CA        -22.9055   -8.1900   -3.8425 C.3       4 GLC5        0.0000 
     66 CA        -22.7110   -6.9980   -2.3400 C.3       8 GLP5        0.0000 
     67 CA        -18.4105  -14.9932   -9.9838 C.3       4 GLC5        0.0000 
     68 CA        -18.3610  -15.8220  -11.8120 C.3       8 GLP5        0.0000 
@<TRIPOS>BOND
@<TRIPOS>SUBSTRUCTURE
     1 ALC1       53 GROUP        1 X    ALC  0     ROOT ALC X 1
     2 SEC2        1 GROUP        1 X    SEC  0     **** SEC X 2
     3 LYC4        9 GROUP        1 X    LYC  0     **** LYC X 4
     4 GLC5       25 GROUP        1 X    GLC  0     **** GLC X 6
     5 ALP1       55 GROUP        1 Y    ALP  0     ROOT ALP Y 8
     6 SEP2        3 GROUP        1 Y    SEP  0     **** SEP Y 9
     7 LYP4       11 GROUP        1 Y    LYP  0     **** LYP Y 11
     8 GLP5       27 GROUP        1 Y    GLP  0     **** GLP Y 13
     9 ALL1       54 GROUP        1 Z    ALL  0     ROOT ALL Z 15
    10 SEL2        2 GROUP        1 Z    SEL  0     **** SEL Z 16
    11 LYL4       10 GROUP        1 Z    LYL  0     **** LYL Z 18
    12 GLL5       26 GROUP        1 Z    GLL  0     **** GLL Z 20
@<TRIPOS>SET

