#    Name: 3lla_ACP_2_ligand
#    Modification time : Mon Mar 24 21:45:51 2014

@<TRIPOS>MOLECULE
3lla_ACP_2_ligand
   45    47     1     0     0
SMALL
NO_CHARGES


@<TRIPOS>ATOM
      1 PG        -13.7460  -16.6780   -6.3680 P.3       1 ACP1303     0.0000 
      2 O1G       -13.2670  -17.7050   -7.3750 O.co2     1 ACP1303     0.0000 
      3 O2G       -14.4630  -15.5130   -7.0070 O.co2     1 ACP1303     0.0000 
      4 O3G       -12.7060  -16.2260   -5.3710 O.co2     1 ACP1303     0.0000 
      5 PB        -16.3020  -18.4080   -6.2160 P.3       1 ACP1303     0.0000 
      6 O1B       -15.7600  -19.2200   -7.3740 O.co2     1 ACP1303     0.0000 
      7 O2B       -17.1560  -19.1750   -5.2330 O.co2     1 ACP1303     0.0000 
      8 C3B       -14.9550  -17.5630   -5.3200 C.3       1 ACP1303     0.0000 
      9 PA        -17.8390  -16.1160   -5.8590 P.3       1 ACP1303     0.0000 
     10 O1A       -16.7280  -15.1270   -5.6310 O.co2     1 ACP1303     0.0000 
     11 O2A       -18.5810  -16.6910   -4.6770 O.co2     1 ACP1303     0.0000 
     12 O3A       -17.2920  -17.2920   -6.8000 O.3       1 ACP1303     0.0000 
     13 O5'       -18.8710  -15.3430   -6.8030 O.3       1 ACP1303     0.0000 
     14 C5'       -18.4590  -14.9260   -8.1050 C.3       1 ACP1303     0.0000 
     15 C4'       -18.4610  -13.4030   -8.2060 C.3       1 ACP1303     0.0000 
     16 O4'       -19.7680  -12.9030   -7.9390 O.3       1 ACP1303     0.0000 
     17 C3'       -17.5580  -12.6980   -7.2060 C.3       1 ACP1303     0.0000 
     18 O3'       -16.2230  -12.5830   -7.6840 O.3       1 ACP1303     0.0000 
     19 C2'       -18.2130  -11.3510   -7.0450 C.3       1 ACP1303     0.0000 
     20 O2'       -17.7730  -10.4950   -8.1060 O.3       1 ACP1303     0.0000 
     21 C1'       -19.6880  -11.6430   -7.2620 C.3       1 ACP1303     0.0000 
     22 N9        -20.4410  -11.8100   -5.9950 N.pl3     1 ACP1303     0.0000 
     23 C8        -20.2530  -12.8040   -5.1050 C.2       1 ACP1303     0.0000 
     24 N7        -21.1120  -12.6910   -4.0710 N.2       1 ACP1303     0.0000 
     25 C5        -21.8920  -11.6240   -4.2970 C.ar      1 ACP1303     0.0000 
     26 C6        -23.0120  -10.9580   -3.5960 C.ar      1 ACP1303     0.0000 
     27 N6        -23.4770  -11.4350   -2.4210 N.pl3     1 ACP1303     0.0000 
     28 N1        -23.5560   -9.8550   -4.1630 N.ar      1 ACP1303     0.0000 
     29 C2        -23.1000   -9.3820   -5.3450 C.ar      1 ACP1303     0.0000 
     30 N3        -22.0860   -9.9360   -6.0340 N.ar      1 ACP1303     0.0000 
     31 C4        -21.4500  -11.0440   -5.5730 C.ar      1 ACP1303     0.0000 
     32 H         -15.4073  -16.8394   -4.7103 H         1 ACP1303     0.0000 
     33 H         -14.4198  -18.3073   -4.8106 H         1 ACP1303     0.0000 
     34 H         -19.1287  -15.3138   -8.8863 H         1 ACP1303     0.0000 
     35 H         -17.4433  -15.2754   -8.3407 H         1 ACP1303     0.0000 
     36 H         -18.1535  -13.1115   -9.2011 H         1 ACP1303     0.0000 
     37 H         -17.6348  -13.2184   -6.2751 H         1 ACP1303     0.0000 
     38 H         -18.0602  -10.9802   -6.0972 H         1 ACP1303     0.0000 
     39 H         -20.1203  -10.8735   -7.8548 H         1 ACP1303     0.0000 
     40 H         -19.5820  -13.5147   -5.1959 H         1 ACP1303     0.0000 
     41 H         -23.0538  -12.2785   -2.0901 H         1 ACP1303     0.0000 
     42 H         -24.2032  -10.9023   -1.9863 H         1 ACP1303     0.0000 
     43 H         -23.5755   -8.5163   -5.7538 H         1 ACP1303     0.0000 
     44 H         -15.9410  -13.5197   -7.8916 H         1 ACP1303     0.0000 
     45 H         -16.9832  -10.9615   -8.5041 H         1 ACP1303     0.0000 
@<TRIPOS>BOND
     1    2    1 ar   
     2    3    1 ar   
     3    4    1 ar   
     4    8    1 1    
     5    6    5 ar   
     6    7    5 ar   
     7    8    5 1    
     8   12    5 1    
     9   32    8 1    
    10   33    8 1    
    11   10    9 ar   
    12   11    9 ar   
    13   12    9 1    
    14   13    9 1    
    15   14   13 1    
    16   15   14 1    
    17   34   14 1    
    18   35   14 1    
    19   16   15 1    
    20   17   15 1    
    21   36   15 1    
    22   21   16 1    
    23   18   17 1    
    24   19   17 1    
    25   37   17 1    
    26   44   18 1    
    27   20   19 1    
    28   21   19 1    
    29   38   19 1    
    30   45   20 1    
    31   22   21 1    
    32   39   21 1    
    33   23   22 1    
    34   31   22 1    
    35   24   23 2    
    36   40   23 1    
    37   25   24 1    
    38   26   25 ar   
    39   31   25 ar   
    40   27   26 1    
    41   28   26 ar   
    42   41   27 1    
    43   42   27 1    
    44   29   28 ar   
    45   30   29 ar   
    46   43   29 1    
    47   31   30 ar   
@<TRIPOS>SUBSTRUCTURE
     1 ACP1303     1 GROUP   
@<TRIPOS>SET

