#    Name: 1fqx_0ZT_1_INTS_M
#    Modification time : Tue Mar 25 02:01:48 2014

@<TRIPOS>MOLECULE
1fqx_0ZT_1_INTS_M
  112     0    12     0     0
SMALL
NO_CHARGES


@<TRIPOS>ATOM
      1 CA         -9.2700   11.7625   -3.9225 C.3       4 GLC5        0.0000 
      2 CA         -9.3530   13.9470   -3.5410 C.3      12 GLL5        0.0000 
      3 CA         -9.1870    9.5780   -4.3040 C.3       8 GLP5        0.0000 
      4 CA         -8.0330   13.2160   -4.6265 C.3       4 GLC5        0.0000 
      5 CA         -6.7130   12.4850   -5.7120 C.3       8 GLP5        0.0000 
      6 CA        -11.1520   17.5730   -3.6435 C.3       4 GLC5        0.0000 
      7 CA        -10.0610   16.1340   -2.5470 C.3      12 GLL5        0.0000 
      8 CA        -12.2430   19.0120   -4.7400 C.3       8 GLP5        0.0000 
      9 CA        -10.0335   16.8405   -0.7695 C.3       4 GLC5        0.0000 
     10 CA        -10.0060   17.5470    1.0080 C.3       8 GLP5        0.0000 
     11 CA         -6.8635   17.0875   -3.4310 C.3       4 GLC5        0.0000 
     12 CA         -8.1590   16.0760   -4.1760 C.3      12 GLL5        0.0000 
     13 CA         -5.5680   18.0990   -2.6860 C.3       8 GLP5        0.0000 
     14 CA         -7.0565   17.5080   -5.2910 C.3       4 GLC5        0.0000 
     15 CA         -5.9540   18.9400   -6.4060 C.3       8 GLP5        0.0000 
     16 CA         -7.3710   14.8505   -5.4415 C.3       4 GLC5        0.0000 
     17 CA         -6.5830   13.6250   -6.7070 C.3       8 GLP5        0.0000 
     18 O         -12.7425   16.5995   -6.6090 O.2       1 ALC1        0.0000 
     19 O         -11.4570   15.6260   -6.9140 O.2       9 ALL1        0.0000 
     20 O         -14.0280   17.5730   -6.3040 O.2       5 ALP1        0.0000 
     21 CA        -10.5440   13.3700   -7.9310 C.3       4 GLC5        0.0000 
     22 CA        -11.6330   15.2330   -8.3130 C.3      12 GLL5        0.0000 
     23 CA         -9.4550   11.5070   -7.5490 C.3       8 GLP5        0.0000 
     24 O         -12.6235   18.7520   -9.6625 O.2       1 ALC1        0.0000 
     25 O         -12.4040   17.4230   -9.0800 O.2       9 ALL1        0.0000 
     26 O         -12.8430   20.0810  -10.2450 O.2       5 ALP1        0.0000 
     27 O         -12.1490   18.1665  -10.4555 O.2       1 ALC1        0.0000 
     28 O         -11.8940   18.9100  -11.8310 O.2       5 ALP1        0.0000 
     29 CA        -15.0365   15.5500   -8.5675 C.3       4 GLC5        0.0000 
     30 CA        -13.0240   14.6030   -8.4940 C.3      12 GLL5        0.0000 
     31 CA        -17.0490   16.4970   -8.6410 C.3       8 GLP5        0.0000 
     32 CA        -14.9355   12.5225   -9.2260 C.3       4 GLC5        0.0000 
     33 CA        -13.1790   12.1490   -7.9340 C.3      12 GLL5        0.0000 
     34 CA        -16.6920   12.8960  -10.5180 C.3       8 GLP5        0.0000 
     35 OD1       -10.4170   19.6770   -9.6220 O.co2     3 ASC3        0.0000 
     36 OD1        -9.8840   18.2020  -10.0310 O.co2    11 ASL3        0.0000 
     37 OD1       -10.9500   21.1520   -9.2130 O.co2     7 ASP3        0.0000 
     38 OD1       -10.1820   18.9650   -8.8270 O.co2     3 ASC3        0.0000 
     39 OD1       -10.4800   19.7280   -7.6230 O.co2     7 ASP3        0.0000 
     40 OD1       -11.3635   19.1415  -10.1380 O.co2     3 ASC3        0.0000 
     41 OD1       -12.8430   20.0810  -10.2450 O.co2     7 ASP3        0.0000 
     42 OD1       -10.8890   18.5560  -10.9310 O.co2     3 ASC3        0.0000 
     43 OD1       -11.8940   18.9100  -11.8310 O.co2     7 ASP3        0.0000 
     44 CA         -9.0940   20.3210  -11.2165 C.3       4 GLC5        0.0000 
     45 CA         -8.5970   18.3520  -10.7220 C.3      12 GLL5        0.0000 
     46 CA         -9.5910   22.2900  -11.7110 C.3       8 GLP5        0.0000 
     47 O          -8.0705   19.3405  -13.0510 O.2       1 ALC1        0.0000 
     48 O          -7.9110   17.7650  -12.9760 O.2       9 ALL1        0.0000 
     49 O          -8.2300   20.9160  -13.1260 O.2       5 ALP1        0.0000 
     50 CA         -8.9780   18.4820  -14.3910 C.3       4 GLC5        0.0000 
     51 CA         -7.6050   16.8760  -14.0870 C.3      12 GLL5        0.0000 
     52 CA        -10.3510   20.0880  -14.6950 C.3       8 GLP5        0.0000 
     53 CA         -6.4385   15.4015  -12.9850 C.3       4 GLC5        0.0000 
     54 CA         -5.2720   13.9270  -11.8830 C.3       8 GLP5        0.0000 
     55 N          -8.2105   19.6495  -16.1275 N.am      2 SEC2        0.0000 
     56 N          -7.3370   18.7590  -15.5450 N.am     10 SEL2        0.0000 
     57 N          -9.0840   20.5400  -16.7100 N.am      6 SEP2        0.0000 
     58 CA         -8.7175   14.3610  -13.6710 C.3       4 GLC5        0.0000 
     59 CA         -8.8980   16.2380  -14.6030 C.3      12 GLL5        0.0000 
     60 CA         -8.5370   12.4840  -12.7390 C.3       8 GLP5        0.0000 
     61 CA        -10.2630   17.7485  -14.6980 C.3       4 GLC5        0.0000 
     62 CA        -11.6280   19.2590  -14.7930 C.3       8 GLP5        0.0000 
     63 CA         -8.1065   13.6485  -14.7470 C.3       4 GLC5        0.0000 
     64 CA         -8.7280   15.2620  -15.7540 C.3      12 GLL5        0.0000 
     65 CA         -7.4850   12.0350  -13.7400 C.3       8 GLP5        0.0000 
     66 CA         -8.7755   13.7475  -16.6155 C.3       4 GLC5        0.0000 
     67 CA         -8.8230   12.2330  -17.4770 C.3       8 GLP5        0.0000 
     68 N          -9.6275   18.0950  -18.2070 N.am      2 SEC2        0.0000 
     69 N          -9.2600   16.8380  -17.4520 N.am     10 SEL2        0.0000 
     70 N          -9.9950   19.3520  -18.9620 N.am      6 SEP2        0.0000 
     71 N          -8.5575   17.0230  -18.8440 N.am      2 SEC2        0.0000 
     72 N          -7.8550   17.2080  -20.2360 N.am      6 SEP2        0.0000 
     73 N          -7.6530   16.4180  -18.9785 N.am      2 SEC2        0.0000 
     74 N          -7.4510   15.6280  -17.7210 N.am     10 SEL2        0.0000 
     75 O          -5.3130   15.9360  -15.0920 O.2       1 ALC1        0.0000 
     76 O          -5.8210   17.1150  -15.7220 O.2       9 ALL1        0.0000 
     77 O          -4.8050   14.7570  -14.4620 O.2       5 ALP1        0.0000 
     78 CA         -6.2405   19.3410  -17.6375 C.3       4 GLC5        0.0000 
     79 CA         -5.0780   17.7920  -16.7730 C.3      12 GLL5        0.0000 
     80 CA         -7.4030   20.8900  -18.5020 C.3       8 GLP5        0.0000 
     81 N          -4.5885   14.3120  -17.1945 N.am      2 SEC2        0.0000 
     82 N          -4.9780   15.6800  -17.9060 N.am     10 SEL2        0.0000 
     83 N          -4.1990   12.9440  -16.4830 N.am      6 SEP2        0.0000 
     84 CA         -7.4934   14.5527   -2.9319 C.3       4 GLC5        0.0000 
     85 CA         -9.5040   15.4510   -3.7820 C.3      12 GLL5        0.0000 
     86 CA         -6.1930   13.7180   -1.9450 C.3       8 GLP5        0.0000 
     87 CA        -13.4505   10.3105   -8.6762 C.3       4 GLC5        0.0000 
     88 CA        -13.6100    8.9980   -9.8650 C.3       8 GLP5        0.0000 
     89 CA        -11.3901   11.7305   -7.4679 C.3       4 GLC5        0.0000 
     90 CA        -13.4030   11.0970   -7.0410 C.3      12 GLL5        0.0000 
     91 CA         -5.9080   17.0077   -8.5888 C.3       4 GLC5        0.0000 
     92 CA         -7.4310   18.3440   -9.7220 C.3      12 GLL5        0.0000 
     93 CA         -5.0630   15.5840   -7.1330 C.3       8 GLP5        0.0000 
     94 CA         -4.1772   19.5172   -9.5355 C.3       4 GLC5        0.0000 
     95 CA         -6.0750   18.5190  -10.3670 C.3      12 GLL5        0.0000 
     96 CA         -2.8240   20.8930   -8.9150 C.3       8 GLP5        0.0000 
     97 CA         -5.9117   18.5189   -8.2004 C.3       4 GLC5        0.0000 
     98 CA         -4.9860   17.7640   -9.9450 C.3      12 GLL5        0.0000 
     99 CA         -4.8165   15.8842  -11.0627 C.3       4 GLC5        0.0000 
    100 CA         -4.7120   16.7127   -8.6877 C.3       4 GLC5        0.0000 
    101 CA         -4.0448   20.2073  -10.3052 C.3       4 GLC5        0.0000 
    102 CA         -5.8890   19.4410  -11.3960 C.3      12 GLL5        0.0000 
    103 CA         -3.2372   19.6365   -9.9837 C.3       4 GLC5        0.0000 
    104 CA         -3.5650   18.8410  -11.5650 C.3      12 GLL5        0.0000 
    105 CA         -5.5420   21.1380  -11.1141 C.3       4 GLC5        0.0000 
    106 CA         -4.6420   19.6020  -11.9950 C.3      12 GLL5        0.0000 
    107 CA         -5.7720   22.9850  -10.7900 C.3       8 GLP5        0.0000 
    108 CA         -2.4880   17.2991  -10.2224 C.3       4 GLC5        0.0000 
    109 CA         -1.0130   16.2570   -9.5410 C.3       8 GLP5        0.0000 
    110 CA         -2.6905   14.3365  -15.0176 C.3       4 GLC5        0.0000 
    111 CA         -1.9510   15.4780  -15.0300 C.3      12 GLL5        0.0000 
    112 CA         -3.7540   12.7090  -15.1260 C.3       8 GLP5        0.0000 
@<TRIPOS>BOND
@<TRIPOS>SUBSTRUCTURE
     1 ALC1       18 GROUP        1 X    ALC  0     ROOT ALC X 1
     2 SEC2       55 GROUP        1 X    SEC  0     **** SEC X 2
     3 ASC3       35 GROUP        1 X    ASC  0     **** ASC X 3
     4 GLC5        1 GROUP        1 X    GLC  0     **** GLC X 6
     5 ALP1       20 GROUP        1 Y    ALP  0     ROOT ALP Y 8
     6 SEP2       57 GROUP        1 Y    SEP  0     **** SEP Y 9
     7 ASP3       37 GROUP        1 Y    ASP  0     **** ASP Y 10
     8 GLP5        3 GROUP        1 Y    GLP  0     **** GLP Y 13
     9 ALL1       19 GROUP        1 Z    ALL  0     ROOT ALL Z 15
    10 SEL2       56 GROUP        1 Z    SEL  0     **** SEL Z 16
    11 ASL3       36 GROUP        1 Z    ASL  0     **** ASL Z 17
    12 GLL5        2 GROUP        1 Z    GLL  0     **** GLL Z 20
@<TRIPOS>SET

