#    Name: 1fqx_0ZT_1_ligand
#    Modification time : Tue Mar 25 02:01:48 2014

@<TRIPOS>MOLECULE
1fqx_0ZT_1_ligand
   98   100     1     0     0
SMALL
NO_CHARGES


@<TRIPOS>ATOM
      1 O1         -9.4890   14.4550   -6.6010 O.2       1 0ZT201      0.0000 
      2 C         -10.3890   15.1810   -6.1760 C.2       1 0ZT201      0.0000 
      3 O2        -10.5030   15.6900   -4.8990 O.3       1 0ZT201      0.0000 
      4 CT         -9.5040   15.4510   -3.7820 C.3       1 0ZT201      0.0000 
      5 C1         -9.3530   13.9470   -3.5410 C.3       1 0ZT201      0.0000 
      6 C2        -10.0610   16.1340   -2.5470 C.3       1 0ZT201      0.0000 
      7 C3         -8.1590   16.0760   -4.1760 C.3       1 0ZT201      0.0000 
      8 N         -11.4570   15.6260   -6.9140 N.am      1 0ZT201      0.0000 
      9 CA        -11.6330   15.2330   -8.3130 C.3       1 0ZT201      0.0000 
     10 C4        -11.4420   16.4110   -9.3170 C.3       1 0ZT201      0.0000 
     11 OS        -12.4040   17.4230   -9.0800 O.3       1 0ZT201      0.0000 
     12 CB        -13.0240   14.6030   -8.4940 C.3       1 0ZT201      0.0000 
     13 CG        -13.3160   13.4730   -7.5310 C.ar      1 0ZT201      0.0000 
     14 CD1       -13.6880   13.7330   -6.2100 C.ar      1 0ZT201      0.0000 
     15 CD2       -13.1790   12.1490   -7.9340 C.ar      1 0ZT201      0.0000 
     16 CE1       -13.9160   12.6850   -5.3050 C.ar      1 0ZT201      0.0000 
     17 CE2       -13.4030   11.0970   -7.0410 C.ar      1 0ZT201      0.0000 
     18 CZ        -13.7700   11.3650   -5.7260 C.ar      1 0ZT201      0.0000 
     19 CM        -10.0180   17.0080   -9.1970 C.3       1 0ZT201      0.0000 
     20 N1         -9.8840   18.2020  -10.0310 N.4       1 0ZT201      0.0000 
     21 CA1        -8.5970   18.3520  -10.7220 C.3       1 0ZT201      0.0000 
     22 C5         -8.3210   17.2990  -11.8000 C.2       1 0ZT201      0.0000 
     23 O          -8.4550   16.0950  -11.5680 O.2       1 0ZT201      0.0000 
     24 CB1        -7.4310   18.3440   -9.7220 C.3       1 0ZT201      0.0000 
     25 CG1        -6.0750   18.5190  -10.3670 C.ar      1 0ZT201      0.0000 
     26 CD11       -4.9860   17.7640   -9.9450 C.ar      1 0ZT201      0.0000 
     27 CD21       -5.8890   19.4410  -11.3960 C.ar      1 0ZT201      0.0000 
     28 CE11       -3.7360   17.9190  -10.5400 C.ar      1 0ZT201      0.0000 
     29 CE21       -4.6420   19.6020  -11.9950 C.ar      1 0ZT201      0.0000 
     30 CZ1        -3.5650   18.8410  -11.5650 C.ar      1 0ZT201      0.0000 
     31 N2         -7.9110   17.7650  -12.9760 N.am      1 0ZT201      0.0000 
     32 CA2        -7.6050   16.8760  -14.0870 C.3       1 0ZT201      0.0000 
     33 C6         -6.9070   17.6660  -15.1900 C.2       1 0ZT201      0.0000 
     34 O3         -7.3370   18.7590  -15.5450 O.2       1 0ZT201      0.0000 
     35 CB2        -8.8980   16.2380  -14.6030 C.3       1 0ZT201      0.0000 
     36 CG2        -8.7280   15.2620  -15.7540 C.3       1 0ZT201      0.0000 
     37 CD         -8.4600   15.9590  -17.0690 C.2       1 0ZT201      0.0000 
     38 OE1        -9.2600   16.8380  -17.4520 O.co2     1 0ZT201      0.0000 
     39 OE2        -7.4510   15.6280  -17.7210 O.co2     1 0ZT201      0.0000 
     40 N3         -5.8210   17.1150  -15.7220 N.am      1 0ZT201      0.0000 
     41 CA3        -5.0780   17.7920  -16.7730 C.3       1 0ZT201      0.0000 
     42 C7         -4.5830   16.8420  -17.8550 C.2       1 0ZT201      0.0000 
     43 O4         -4.9780   15.6800  -17.9060 O.2       1 0ZT201      0.0000 
     44 CB3        -3.8870   18.5530  -16.1750 C.3       1 0ZT201      0.0000 
     45 CG3        -2.8100   17.6680  -15.5950 C.ar      1 0ZT201      0.0000 
     46 CD12       -1.6500   18.2260  -15.0800 C.ar      1 0ZT201      0.0000 
     47 CD22       -2.9470   16.2880  -15.5630 C.ar      1 0ZT201      0.0000 
     48 CE12       -0.6530   17.4180  -14.5480 C.ar      1 0ZT201      0.0000 
     49 CE22       -1.9510   15.4780  -15.0300 C.ar      1 0ZT201      0.0000 
     50 CZ2        -0.8050   16.0450  -14.5220 C.ar      1 0ZT201      0.0000 
     51 N4         -3.7010   17.3360  -18.7150 N.am      1 0ZT201      0.0000 
     52 H         -12.1702   16.2501   -6.5114 H         1 0ZT201      0.0000 
     53 H         -10.9007   14.4613   -8.5778 H         1 0ZT201      0.0000 
     54 H         -11.5371   15.9994  -10.3168 H         1 0ZT201      0.0000 
     55 H         -13.1077   14.2332   -9.5295 H         1 0ZT201      0.0000 
     56 H         -13.7836   15.3933   -8.3732 H         1 0ZT201      0.0000 
     57 H         -13.7975   14.7085   -5.8923 H         1 0ZT201      0.0000 
     58 H         -12.9073   11.9360   -8.9090 H         1 0ZT201      0.0000 
     59 H         -14.1883   12.8942   -4.3406 H         1 0ZT201      0.0000 
     60 H         -13.2957   10.1259   -7.3590 H         1 0ZT201      0.0000 
     61 H         -13.9326   10.5945   -5.0686 H         1 0ZT201      0.0000 
     62 H          -9.3060   16.2339   -9.4983 H         1 0ZT201      0.0000 
     63 H          -9.8425   17.2410   -8.1426 H         1 0ZT201      0.0000 
     64 H          -8.5590   19.3401  -11.2212 H         1 0ZT201      0.0000 
     65 H          -7.4532   17.3921   -9.1666 H         1 0ZT201      0.0000 
     66 H          -7.5948   19.1494   -8.9875 H         1 0ZT201      0.0000 
     67 H          -5.1045   17.0788   -9.1801 H         1 0ZT201      0.0000 
     68 H          -6.6876   20.0125  -11.7183 H         1 0ZT201      0.0000 
     69 H          -2.9417   17.3507  -10.2196 H         1 0ZT201      0.0000 
     70 H          -4.5226   20.2843  -12.7543 H         1 0ZT201      0.0000 
     71 H          -2.6425   18.9582  -12.0029 H         1 0ZT201      0.0000 
     72 H          -7.7888   18.7824  -13.1607 H         1 0ZT201      0.0000 
     73 H          -6.9438   16.0863  -13.7623 H         1 0ZT201      0.0000 
     74 H          -9.5901   17.0471  -14.9145 H         1 0ZT201      0.0000 
     75 H          -9.3955   15.7180  -13.7588 H         1 0ZT201      0.0000 
     76 H          -9.6376   14.6526  -15.8447 H         1 0ZT201      0.0000 
     77 H          -7.8957   14.5816  -15.5273 H         1 0ZT201      0.0000 
     78 H          -5.4547   16.1936  -15.4220 H         1 0ZT201      0.0000 
     79 H          -5.7166   18.5425  -17.2578 H         1 0ZT201      0.0000 
     80 H          -4.2656   19.2330  -15.3900 H         1 0ZT201      0.0000 
     81 H          -3.4507   19.1938  -16.9630 H         1 0ZT201      0.0000 
     82 H          -1.5248   19.2515  -15.0914 H         1 0ZT201      0.0000 
     83 H          -3.8076   15.8515  -15.9433 H         1 0ZT201      0.0000 
     84 H           0.2060   17.8496  -14.1703 H         1 0ZT201      0.0000 
     85 H          -2.0768   14.4557  -15.0183 H         1 0ZT201      0.0000 
     86 H          -0.0634   15.4518  -14.1242 H         1 0ZT201      0.0000 
     87 H          -3.4309   18.2879  -18.5702 H         1 0ZT201      0.0000 
     88 H          -3.3863   16.7117  -19.4300 H         1 0ZT201      0.0000 
     89 H          -9.0257   13.4711   -4.3573 H         1 0ZT201      0.0000 
     90 H          -8.7021   13.7519   -2.8073 H         1 0ZT201      0.0000 
     91 H         -10.2212   13.5232   -3.2830 H         1 0ZT201      0.0000 
     92 H          -9.4569   16.0243   -1.7576 H         1 0ZT201      0.0000 
     93 H         -10.1825   17.1164   -2.6888 H         1 0ZT201      0.0000 
     94 H         -10.9526   15.7628   -2.2876 H         1 0ZT201      0.0000 
     95 H          -7.4647   15.9393   -3.4694 H         1 0ZT201      0.0000 
     96 H          -7.7990   15.6805   -5.0210 H         1 0ZT201      0.0000 
     97 H          -8.2367   17.0620   -4.3237 H         1 0ZT201      0.0000 
     98 H         -12.1554   18.1666   -9.7007 H         1 0ZT201      0.0000 
@<TRIPOS>BOND
     1    2    1 2    
     2    3    2 1    
     3    8    2 am   
     4    4    3 1    
     5    5    4 1    
     6    6    4 1    
     7    7    4 1    
     8   89    5 1    
     9   90    5 1    
    10   91    5 1    
    11   92    6 1    
    12   93    6 1    
    13   94    6 1    
    14   95    7 1    
    15   96    7 1    
    16   97    7 1    
    17    9    8 1    
    18   52    8 1    
    19   10    9 1    
    20   12    9 1    
    21   53    9 1    
    22   11   10 1    
    23   19   10 1    
    24   54   10 1    
    25   98   11 1    
    26   13   12 1    
    27   55   12 1    
    28   56   12 1    
    29   14   13 ar   
    30   15   13 ar   
    31   16   14 ar   
    32   57   14 1    
    33   17   15 ar   
    34   58   15 1    
    35   18   16 ar   
    36   59   16 1    
    37   18   17 ar   
    38   60   17 1    
    39   61   18 1    
    40   20   19 1    
    41   62   19 1    
    42   63   19 1    
    43   21   20 1    
    44   22   21 1    
    45   24   21 1    
    46   64   21 1    
    47   23   22 2    
    48   31   22 am   
    49   25   24 1    
    50   65   24 1    
    51   66   24 1    
    52   26   25 ar   
    53   27   25 ar   
    54   28   26 ar   
    55   67   26 1    
    56   29   27 ar   
    57   68   27 1    
    58   30   28 ar   
    59   69   28 1    
    60   30   29 ar   
    61   70   29 1    
    62   71   30 1    
    63   32   31 1    
    64   72   31 1    
    65   33   32 1    
    66   35   32 1    
    67   73   32 1    
    68   34   33 2    
    69   40   33 am   
    70   36   35 1    
    71   74   35 1    
    72   75   35 1    
    73   37   36 1    
    74   76   36 1    
    75   77   36 1    
    76   38   37 ar   
    77   39   37 ar   
    78   41   40 1    
    79   78   40 1    
    80   42   41 1    
    81   44   41 1    
    82   79   41 1    
    83   43   42 2    
    84   51   42 am   
    85   45   44 1    
    86   80   44 1    
    87   81   44 1    
    88   46   45 ar   
    89   47   45 ar   
    90   48   46 ar   
    91   82   46 1    
    92   49   47 ar   
    93   83   47 1    
    94   50   48 ar   
    95   84   48 1    
    96   50   49 ar   
    97   85   49 1    
    98   86   50 1    
    99   87   51 1    
   100   88   51 1    
@<TRIPOS>SUBSTRUCTURE
     1 0ZT201      1 GROUP   
@<TRIPOS>SET

