#    Name: 3doc_NAD_3_INTS_M
#    Modification time : Mon Mar 24 23:54:02 2014

@<TRIPOS>MOLECULE
3doc_NAD_3_INTS_M
   68     0     9     0     0
SMALL
NO_CHARGES


@<TRIPOS>ATOM
      1 N          -4.2545  -22.3345   12.1685 N.am      2 SEC2        0.0000 
      2 N          -2.8610  -23.1530   12.1850 N.am      8 SEL2        0.0000 
      3 N          -5.6480  -21.5160   12.1520 N.am      5 SEP2        0.0000 
      4 CA         -7.1055  -27.6895   11.0080 C.3       3 GLC5        0.0000 
      5 CA         -5.2680  -27.2270   11.8250 C.3       9 GLL5        0.0000 
      6 CA         -8.9430  -28.1520   10.1910 C.3       6 GLP5        0.0000 
      7 O          -6.8495  -28.2675   14.7625 O.2       1 ALC1        0.0000 
      8 O          -5.9180  -27.0430   14.1490 O.2       7 ALL1        0.0000 
      9 O          -7.7810  -29.4920   15.3760 O.2       4 ALP1        0.0000 
     10 O          -7.2680  -27.5505   14.1080 O.2       1 ALC1        0.0000 
     11 O          -8.6180  -28.0580   14.0670 O.2       4 ALP1        0.0000 
     12 O          -6.4375  -29.4470   15.0435 O.2       1 ALC1        0.0000 
     13 O          -5.0940  -29.4020   14.7110 O.2       7 ALL1        0.0000 
     14 CA         -7.3155  -28.8070   11.2650 C.3       3 GLC5        0.0000 
     15 CA         -5.6880  -29.4620   12.3390 C.3       9 GLL5        0.0000 
     16 CA         -6.7655  -34.5045   12.3720 C.3       3 GLC5        0.0000 
     17 CA         -6.5740  -33.9000   10.4990 C.3       9 GLL5        0.0000 
     18 CA         -6.9570  -35.1090   14.2450 C.3       6 GLP5        0.0000 
     19 O          -6.9840  -36.2665    9.8335 O.2       1 ALC1        0.0000 
     20 O          -6.0380  -35.1090   10.2730 O.2       7 ALL1        0.0000 
     21 O          -7.9300  -37.4240    9.3940 O.2       4 ALP1        0.0000 
     22 CA         -9.4210  -31.7670   12.5740 C.3       3 GLC5        0.0000 
     23 CA         -8.5500  -32.6020   10.9560 C.3       9 GLL5        0.0000 
     24 CA        -10.2920  -30.9320   14.1920 C.3       6 GLP5        0.0000 
     25 CA         -7.7535  -33.8555   12.6005 C.3       3 GLC5        0.0000 
     26 CA         -7.8950  -31.6520    9.5395 C.3       3 GLC5        0.0000 
     27 CA         -7.2400  -30.7020    8.1230 C.3       6 GLP5        0.0000 
     28 N          -5.5155  -21.4690    9.6255 N.am      2 SEC2        0.0000 
     29 N          -4.4550  -22.5330    9.5880 N.am      8 SEL2        0.0000 
     30 N          -6.5760  -20.4050    9.6630 N.am      5 SEP2        0.0000 
     31 CA         -4.6440  -22.1490    7.0295 C.3       3 GLC5        0.0000 
     32 CA         -3.7330  -24.1990    7.1750 C.3       9 GLL5        0.0000 
     33 CA         -5.5550  -20.0990    6.8840 C.3       6 GLP5        0.0000 
     34 N          -5.2475  -23.4735    4.4365 N.am      2 SEC2        0.0000 
     35 N          -3.9070  -23.0280    5.1040 N.am      8 SEL2        0.0000 
     36 N          -6.5880  -23.9190    3.7690 N.am      5 SEP2        0.0000 
     37 CA         -2.8140  -23.4915    2.5060 C.3       3 GLC5        0.0000 
     38 CA         -2.8020  -22.5910    4.3280 C.3       9 GLL5        0.0000 
     39 CA         -2.8260  -24.3920    0.6840 C.3       6 GLP5        0.0000 
     40 CA         -3.9200  -20.3390    6.2415 C.3       3 GLC5        0.0000 
     41 CA         -2.2850  -20.5790    5.5990 C.3       9 GLL5        0.0000 
     42 N          -0.8540  -15.9780    7.1485 N.am      2 SEC2        0.0000 
     43 N          -1.2330  -17.2230    6.7540 N.am      8 SEL2        0.0000 
     44 N          -0.4750  -14.7330    7.5430 N.am      5 SEP2        0.0000 
     45 CA         -1.3150  -17.4140    3.5010 C.3       3 GLC5        0.0000 
     46 CA         -2.4650  -18.3770    4.6120 C.3       9 GLL5        0.0000 
     47 CA         -0.1650  -16.4510    2.3900 C.3       6 GLP5        0.0000 
     48 CA         -2.3370  -17.3425    2.7000 C.3       3 GLC5        0.0000 
     49 CA         -2.8870  -18.9440    3.4220 C.3       9 GLL5        0.0000 
     50 CA         -1.7870  -15.7410    1.9780 C.3       6 GLP5        0.0000 
     51 CA         -4.2710  -20.2175    5.1110 C.3       3 GLC5        0.0000 
     52 CA         -2.9870  -20.3360    3.3380 C.3       9 GLL5        0.0000 
     53 CA         -5.1318  -27.8493    9.5772 C.3       3 GLC5        0.0000 
     54 CA         -5.5480  -28.8000    7.7410 C.3       6 GLP5        0.0000 
     55 CA         -5.7261  -25.4146   12.5314 C.3       3 GLC5        0.0000 
     56 CA         -4.1630  -26.5700   11.0020 C.3       9 GLL5        0.0000 
     57 CA         -6.6570  -23.6480   12.7100 C.3       6 GLP5        0.0000 
     58 CA         -5.5515  -32.9942   12.8303 C.3       3 GLC5        0.0000 
     59 CA         -6.4060  -31.6820   11.4220 C.3       9 GLL5        0.0000 
     60 CA         -5.0070  -33.7300   14.4670 C.3       6 GLP5        0.0000 
     61 CA         -6.7665  -31.6134    9.6000 C.3       3 GLC5        0.0000 
     62 CA         -5.7860  -32.8350   10.9650 C.3       9 GLL5        0.0000 
     63 CA         -2.6984  -26.3420    5.7420 C.3       3 GLC5        0.0000 
     64 CA         -2.2260  -24.6560    5.2300 C.3       9 GLL5        0.0000 
     65 CA         -2.4410  -28.2300    5.6590 C.3       6 GLP5        0.0000 
     66 CA         -4.1246  -18.7593    5.3701 C.3       3 GLC5        0.0000 
     67 CA         -2.1860  -19.1930    5.6970 C.3       9 GLL5        0.0000 
     68 CA         -5.6430  -18.6540    6.4520 C.3       6 GLP5        0.0000 
@<TRIPOS>BOND
@<TRIPOS>SUBSTRUCTURE
     1 ALC1        7 GROUP        1 X    ALC  0     ROOT ALC X 1
     2 SEC2        1 GROUP        1 X    SEC  0     **** SEC X 2
     3 GLC5        4 GROUP        1 X    GLC  0     **** GLC X 6
     4 ALP1        9 GROUP        1 Y    ALP  0     ROOT ALP Y 8
     5 SEP2        3 GROUP        1 Y    SEP  0     **** SEP Y 9
     6 GLP5        6 GROUP        1 Y    GLP  0     **** GLP Y 13
     7 ALL1        8 GROUP        1 Z    ALL  0     ROOT ALL Z 15
     8 SEL2        2 GROUP        1 Z    SEL  0     **** SEL Z 16
     9 GLL5        5 GROUP        1 Z    GLL  0     **** GLL Z 20
@<TRIPOS>SET

