#    Name: 3doc_NAD_3_ligand
#    Modification time : Mon Mar 24 23:54:02 2014

@<TRIPOS>MOLECULE
3doc_NAD_3_ligand
   70    74     1     0     0
SMALL
NO_CHARGES


@<TRIPOS>ATOM
      1 PA         -2.7350  -24.3940   11.3990 P.3       1 NAD901      0.0000 
      2 O1A        -1.7870  -25.4070   11.9450 O.co2     1 NAD901      0.0000 
      3 O2A        -2.8610  -23.1530   12.1850 O.co2     1 NAD901      0.0000 
      4 O5B        -4.1480  -25.1770   11.2610 O.3       1 NAD901      0.0000 
      5 C5B        -4.1630  -26.5700   11.0020 C.3       1 NAD901      0.0000 
      6 C4B        -5.2680  -27.2270   11.8250 C.3       1 NAD901      0.0000 
      7 O4B        -5.5780  -28.5060   11.2870 O.3       1 NAD901      0.0000 
      8 C3B        -4.8750  -27.4640   13.2920 C.3       1 NAD901      0.0000 
      9 O3B        -5.9180  -27.0430   14.1490 O.3       1 NAD901      0.0000 
     10 C2B        -4.7310  -28.9760   13.4190 C.3       1 NAD901      0.0000 
     11 O2B        -5.0940  -29.4020   14.7110 O.3       1 NAD901      0.0000 
     12 C1B        -5.6880  -29.4620   12.3390 C.3       1 NAD901      0.0000 
     13 N9A        -5.4220  -30.8100   11.8170 N.pl3     1 NAD901      0.0000 
     14 C8A        -4.2090  -31.4070   11.6030 C.2       1 NAD901      0.0000 
     15 N7A        -4.4450  -32.6470   11.0940 N.2       1 NAD901      0.0000 
     16 C5A        -5.7860  -32.8350   10.9650 C.ar      1 NAD901      0.0000 
     17 C6A        -6.5740  -33.9000   10.4990 C.ar      1 NAD901      0.0000 
     18 N6A        -6.0380  -35.1090   10.2730 N.pl3     1 NAD901      0.0000 
     19 N1A        -7.9580  -33.7630   10.5060 N.ar      1 NAD901      0.0000 
     20 C2A        -8.5500  -32.6020   10.9560 C.ar      1 NAD901      0.0000 
     21 N3A        -7.7580  -31.5710   11.4140 N.ar      1 NAD901      0.0000 
     22 C4A        -6.4060  -31.6820   11.4220 C.ar      1 NAD901      0.0000 
     23 O3         -2.3490  -23.9410    9.8910 O.3       1 NAD901      0.0000 
     24 PN         -3.0290  -22.6710    9.1700 P.3       1 NAD901      0.0000 
     25 O1N        -2.1500  -21.5090    9.3130 O.co2     1 NAD901      0.0000 
     26 O2N        -4.4550  -22.5330    9.5880 O.co2     1 NAD901      0.0000 
     27 O5D        -2.9600  -23.1020    7.6190 O.3       1 NAD901      0.0000 
     28 C5D        -3.7330  -24.1990    7.1750 C.3       1 NAD901      0.0000 
     29 C4D        -3.6380  -24.3050    5.6650 C.3       1 NAD901      0.0000 
     30 O4D        -3.9070  -23.0280    5.1040 O.3       1 NAD901      0.0000 
     31 C3D        -2.2260  -24.6560    5.2300 C.3       1 NAD901      0.0000 
     32 O3D        -2.3070  -25.3960    4.0290 O.3       1 NAD901      0.0000 
     33 C2D        -1.6100  -23.3040    4.9400 C.3       1 NAD901      0.0000 
     34 O2D        -0.4940  -23.3620    4.0750 O.3       1 NAD901      0.0000 
     35 C1D        -2.8020  -22.5910    4.3280 C.3       1 NAD901      0.0000 
     36 N1N        -2.6810  -21.1300    4.4190 N.pl3     1 NAD901      0.0000 
     37 C2N        -2.2850  -20.5790    5.5990 C.ar      1 NAD901      0.0000 
     38 C3N        -2.1860  -19.1930    5.6970 C.ar      1 NAD901      0.0000 
     39 C7N        -1.7020  -18.5200    6.9360 C.2       1 NAD901      0.0000 
     40 O7N        -1.2330  -17.2230    6.7540 O.2       1 NAD901      0.0000 
     41 N7N        -1.7010  -19.1070    8.1310 N.am      1 NAD901      0.0000 
     42 C4N        -2.4650  -18.3770    4.6120 C.ar      1 NAD901      0.0000 
     43 C5N        -2.8870  -18.9440    3.4220 C.ar      1 NAD901      0.0000 
     44 C6N        -2.9870  -20.3360    3.3380 C.ar      1 NAD901      0.0000 
     45 H          -3.2157  -27.0498   11.2747 H         1 NAD901      0.0000 
     46 H          -4.3593  -26.7905    9.9462 H         1 NAD901      0.0000 
     47 H          -6.1408  -26.5918   11.8160 H         1 NAD901      0.0000 
     48 H          -3.9498  -27.0140   13.4776 H         1 NAD901      0.0000 
     49 H          -3.7440  -29.2287   13.1251 H         1 NAD901      0.0000 
     50 H          -6.6968  -29.4115   12.7541 H         1 NAD901      0.0000 
     51 H          -3.3549  -31.0200   11.7801 H         1 NAD901      0.0000 
     52 H          -6.6722  -35.8231    9.9767 H         1 NAD901      0.0000 
     53 H          -5.0522  -35.1880   10.4211 H         1 NAD901      0.0000 
     54 H          -9.5739  -32.5061   10.9500 H         1 NAD901      0.0000 
     55 H          -4.7931  -24.0881    7.4379 H         1 NAD901      0.0000 
     56 H          -3.3825  -25.1481    7.6011 H         1 NAD901      0.0000 
     57 H          -4.3074  -25.0415    5.3083 H         1 NAD901      0.0000 
     58 H          -1.7254  -25.1185    6.0049 H         1 NAD901      0.0000 
     59 H          -1.4151  -22.8341    5.8849 H         1 NAD901      0.0000 
     60 H          -2.8998  -22.9110    3.3152 H         1 NAD901      0.0000 
     61 H          -2.0597  -21.1627    6.4119 H         1 NAD901      0.0000 
     62 H          -1.3579  -18.5559    8.8917 H         1 NAD901      0.0000 
     63 H          -2.0434  -20.0461    8.1602 H         1 NAD901      0.0000 
     64 H          -2.3591  -17.3585    4.6913 H         1 NAD901      0.0000 
     65 H          -3.1221  -18.3629    2.6179 H         1 NAD901      0.0000 
     66 H          -3.2957  -20.7646    2.4480 H         1 NAD901      0.0000 
     67 H          -6.7127  -27.5845   13.8747 H         1 NAD901      0.0000 
     68 H          -6.0939  -29.3909   14.7156 H         1 NAD901      0.0000 
     69 H          -1.6461  -24.9651    3.4146 H         1 NAD901      0.0000 
     70 H           0.2804  -23.5865    4.6665 H         1 NAD901      0.0000 
@<TRIPOS>BOND
     1    2    1 ar   
     2    3    1 ar   
     3    4    1 1    
     4   23    1 1    
     5    5    4 1    
     6    6    5 1    
     7   45    5 1    
     8   46    5 1    
     9    7    6 1    
    10    8    6 1    
    11   47    6 1    
    12   12    7 1    
    13    9    8 1    
    14   10    8 1    
    15   48    8 1    
    16   67    9 1    
    17   11   10 1    
    18   12   10 1    
    19   49   10 1    
    20   68   11 1    
    21   13   12 1    
    22   50   12 1    
    23   14   13 1    
    24   22   13 1    
    25   15   14 2    
    26   51   14 1    
    27   16   15 1    
    28   17   16 ar   
    29   22   16 ar   
    30   18   17 1    
    31   19   17 ar   
    32   52   18 1    
    33   53   18 1    
    34   20   19 ar   
    35   21   20 ar   
    36   54   20 1    
    37   22   21 ar   
    38   24   23 1    
    39   25   24 ar   
    40   26   24 ar   
    41   27   24 1    
    42   28   27 1    
    43   29   28 1    
    44   55   28 1    
    45   56   28 1    
    46   30   29 1    
    47   31   29 1    
    48   57   29 1    
    49   35   30 1    
    50   32   31 1    
    51   33   31 1    
    52   58   31 1    
    53   69   32 1    
    54   34   33 1    
    55   35   33 1    
    56   59   33 1    
    57   70   34 1    
    58   36   35 1    
    59   60   35 1    
    60   37   36 ar   
    61   44   36 ar   
    62   38   37 ar   
    63   61   37 1    
    64   39   38 1    
    65   42   38 ar   
    66   40   39 2    
    67   41   39 am   
    68   62   41 1    
    69   63   41 1    
    70   43   42 ar   
    71   64   42 1    
    72   44   43 ar   
    73   65   43 1    
    74   66   44 1    
@<TRIPOS>SUBSTRUCTURE
     1 NAD901      1 GROUP   
@<TRIPOS>SET

