#    Name: 2zrd_ADP_1_INTS_M
#    Modification time : Mon Apr  7 18:48:49 2014

@<TRIPOS>MOLECULE
2zrd_ADP_1_INTS_M
   55     0    12     0     0
SMALL
NO_CHARGES


@<TRIPOS>ATOM
      1 NZ        -18.2900   16.1635   -6.4595 N.4       3 LYC4        0.0000 
      2 NZ        -17.6060   17.0520   -7.4780 N.4      11 LYL4        0.0000 
      3 NZ        -18.9740   15.2750   -5.4410 N.4       7 LYP4        0.0000 
      4 N         -17.7215   15.9475   -8.6070 N.am      2 SEC2        0.0000 
      5 N         -17.6060   17.0520   -7.4780 N.am     10 SEL2        0.0000 
      6 N         -17.8370   14.8430   -9.7360 N.am      6 SEP2        0.0000 
      7 N         -18.2900   16.1635   -6.4595 N.am      2 SEC2        0.0000 
      8 N         -18.9740   15.2750   -5.4410 N.am      6 SEP2        0.0000 
      9 NZ        -19.4920   15.7090   -6.5325 N.4       3 LYC4        0.0000 
     10 NZ        -20.0100   16.1430   -7.6240 N.4      11 LYL4        0.0000 
     11 N         -20.2940   15.1660   -8.5355 N.am      2 SEC2        0.0000 
     12 N         -20.0100   16.1430   -7.6240 N.am     10 SEL2        0.0000 
     13 N         -20.5780   14.1890   -9.4470 N.am      6 SEP2        0.0000 
     14 N         -21.3450   16.0115   -8.3235 N.am      2 SEC2        0.0000 
     15 N         -22.6800   15.8800   -9.0230 N.am      6 SEP2        0.0000 
     16 N         -21.3970   16.6450   -7.1070 N.am      2 SEC2        0.0000 
     17 N         -22.7840   17.1470   -6.5900 N.am      6 SEP2        0.0000 
     18 N         -19.4920   15.7090   -6.5325 N.am      2 SEC2        0.0000 
     19 NZ        -19.2745   16.9020   -6.1225 N.4       3 LYC4        0.0000 
     20 NZ        -19.5750   18.5290   -6.8040 N.4      11 LYL4        0.0000 
     21 N         -20.5180   19.1165   -6.1980 N.am      2 SEC2        0.0000 
     22 N         -19.5750   18.5290   -6.8040 N.am     10 SEL2        0.0000 
     23 N         -21.4610   19.7040   -5.5920 N.am      6 SEP2        0.0000 
     24 N         -19.1795   19.8580   -6.2330 N.am      2 SEC2        0.0000 
     25 N         -18.7840   21.1870   -5.6620 N.am      6 SEP2        0.0000 
     26 N         -22.2305   20.1555   -8.0450 N.am      2 SEC2        0.0000 
     27 N         -21.5250   18.7910   -8.8460 N.am     10 SEL2        0.0000 
     28 N         -22.9360   21.5200   -7.2440 N.am      6 SEP2        0.0000 
     29 CA        -20.3265   16.6325  -11.2320 C.3       4 GLC5        0.0000 
     30 CA        -21.8860   18.2040  -11.6230 C.3      12 GLL5        0.0000 
     31 CA        -18.7670   15.0610  -10.8410 C.3       8 GLP5        0.0000 
     32 CA        -22.7895   17.5525  -10.2310 C.3       4 GLC5        0.0000 
     33 CA        -23.6930   16.9010   -8.8390 C.3       8 GLP5        0.0000 
     34 CA        -24.2790   19.3275  -13.2885 C.3       4 GLC5        0.0000 
     35 CA        -22.3070   18.7990  -12.9750 C.3      12 GLL5        0.0000 
     36 CA        -26.2510   19.8560  -13.6020 C.3       8 GLP5        0.0000 
     37 N         -21.6655   15.6610  -14.3985 N.am      2 SEC2        0.0000 
     38 N         -21.3210   17.3020  -14.5860 N.am     10 SEL2        0.0000 
     39 N         -22.0100   14.0200  -14.2110 N.am      6 SEP2        0.0000 
     40 CA        -22.7910   20.2570  -16.9325 C.3       4 GLC5        0.0000 
     41 CA        -21.7100   19.6470  -15.0560 C.3      12 GLL5        0.0000 
     42 CA        -23.8720   20.8670  -18.8090 C.3       8 GLP5        0.0000 
     43 CA        -22.5775   22.5485  -13.2395 C.3       4 GLC5        0.0000 
     44 CA        -22.0890   20.8160  -14.1390 C.3      12 GLL5        0.0000 
     45 CA        -23.0660   24.2810  -12.3400 C.3       8 GLP5        0.0000 
     46 CA        -24.1700   20.3360  -13.8705 C.3       4 GLC5        0.0000 
     47 O         -17.3150   26.2860  -14.1905 O.2       1 ALC1        0.0000 
     48 O         -17.6880   24.8610  -13.8720 O.2       9 ALL1        0.0000 
     49 O         -16.9420   27.7110  -14.5090 O.2       5 ALP1        0.0000 
     50 CA        -21.6145   24.2250  -17.3355 C.3       4 GLC5        0.0000 
     51 CA        -19.8590   23.8740  -16.4800 C.3      12 GLL5        0.0000 
     52 CA        -23.3700   24.5760  -18.1910 C.3       8 GLP5        0.0000 
     53 CA        -19.6530   25.5555  -13.7188 C.3       4 GLC5        0.0000 
     54 CA        -18.6330   24.2090  -14.5410 C.3      12 GLL5        0.0000 
     55 CA        -20.3040   27.4020  -13.2100 C.3       8 GLP5        0.0000 
@<TRIPOS>BOND
@<TRIPOS>SUBSTRUCTURE
     1 ALC1       47 GROUP        1 X    ALC  0     ROOT ALC X 1
     2 SEC2        4 GROUP        1 X    SEC  0     **** SEC X 2
     3 LYC4        1 GROUP        1 X    LYC  0     **** LYC X 4
     4 GLC5       29 GROUP        1 X    GLC  0     **** GLC X 6
     5 ALP1       49 GROUP        1 Y    ALP  0     ROOT ALP Y 8
     6 SEP2        6 GROUP        1 Y    SEP  0     **** SEP Y 9
     7 LYP4        3 GROUP        1 Y    LYP  0     **** LYP Y 11
     8 GLP5       31 GROUP        1 Y    GLP  0     **** GLP Y 13
     9 ALL1       48 GROUP        1 Z    ALL  0     ROOT ALL Z 15
    10 SEL2        5 GROUP        1 Z    SEL  0     **** SEL Z 16
    11 LYL4        2 GROUP        1 Z    LYL  0     **** LYL Z 18
    12 GLL5       30 GROUP        1 Z    GLL  0     **** GLL Z 20
@<TRIPOS>SET

