#    Name: 2zrd_ADP_1_ligand
#    Modification time : Mon Apr  7 18:48:49 2014

@<TRIPOS>MOLECULE
2zrd_ADP_1_ligand
   39    41     1     0     0
SMALL
NO_CHARGES


@<TRIPOS>ATOM
      1 PB        -19.1550   17.3410   -7.7930 P.3       1 ADP500      0.0000 
      2 O1B       -17.6060   17.0520   -7.4780 O.co2     1 ADP500      0.0000 
      3 O2B       -20.0100   16.1430   -7.6240 O.co2     1 ADP500      0.0000 
      4 O3B       -19.5750   18.5290   -6.8040 O.co2     1 ADP500      0.0000 
      5 PA        -20.3190   19.0670   -9.6590 P.3       1 ADP500      0.0000 
      6 O1A       -19.6950   20.4040   -9.5620 O.co2     1 ADP500      0.0000 
      7 O2A       -21.5250   18.7910   -8.8460 O.co2     1 ADP500      0.0000 
      8 O3A       -19.2120   17.9500   -9.2880 O.3       1 ADP500      0.0000 
      9 O5'       -20.6340   18.7590  -11.2110 O.3       1 ADP500      0.0000 
     10 C5'       -21.8860   18.2040  -11.6230 C.3       1 ADP500      0.0000 
     11 C4'       -22.3070   18.7990  -12.9750 C.3       1 ADP500      0.0000 
     12 O4'       -22.5130   20.2230  -12.8940 O.3       1 ADP500      0.0000 
     13 C3'       -21.2170   18.6200  -14.0390 C.3       1 ADP500      0.0000 
     14 O3'       -21.3210   17.3020  -14.5860 O.3       1 ADP500      0.0000 
     15 C2'       -21.7100   19.6470  -15.0560 C.3       1 ADP500      0.0000 
     16 O2'       -22.8720   19.1660  -15.7360 O.3       1 ADP500      0.0000 
     17 C1'       -22.0890   20.8160  -14.1390 C.3       1 ADP500      0.0000 
     18 N9        -20.9220   21.6740  -13.8260 N.pl3     1 ADP500      0.0000 
     19 C8        -20.3150   21.7550  -12.6450 C.2       1 ADP500      0.0000 
     20 N7        -19.3590   22.6850  -12.6910 N.2       1 ADP500      0.0000 
     21 C5        -19.3710   23.2090  -13.9140 C.ar      1 ADP500      0.0000 
     22 C6        -18.6330   24.2090  -14.5410 C.ar      1 ADP500      0.0000 
     23 N6        -17.6880   24.8610  -13.8720 N.pl3     1 ADP500      0.0000 
     24 N1        -18.9100   24.5110  -15.8180 N.ar      1 ADP500      0.0000 
     25 C2        -19.8590   23.8740  -16.4800 C.ar      1 ADP500      0.0000 
     26 N3        -20.5760   22.9140  -15.9140 N.ar      1 ADP500      0.0000 
     27 C4        -20.3630   22.5600  -14.6430 C.ar      1 ADP500      0.0000 
     28 H         -22.6843   18.4205  -10.9033 H         1 ADP500      0.0000 
     29 H         -21.8293   17.1157  -11.7438 H         1 ADP500      0.0000 
     30 H         -23.1917   18.3062  -13.3257 H         1 ADP500      0.0000 
     31 H         -20.3174   18.8983  -13.6617 H         1 ADP500      0.0000 
     32 H         -20.9216   19.9363  -15.6638 H         1 ADP500      0.0000 
     33 H         -22.8680   21.3703  -14.5794 H         1 ADP500      0.0000 
     34 H         -20.5353   21.2135  -11.8572 H         1 ADP500      0.0000 
     35 H         -17.2248   24.3462  -13.1506 H         1 ADP500      0.0000 
     36 H         -17.5254   25.8076  -14.1503 H         1 ADP500      0.0000 
     37 H         -20.0535   24.1360  -17.4901 H         1 ADP500      0.0000 
     38 H         -22.0843   17.3488  -15.2304 H         1 ADP500      0.0000 
     39 H         -23.6317   19.3511  -15.1126 H         1 ADP500      0.0000 
@<TRIPOS>BOND
     1    2    1 ar   
     2    3    1 ar   
     3    4    1 ar   
     4    8    1 1    
     5    6    5 ar   
     6    7    5 ar   
     7    8    5 1    
     8    9    5 1    
     9   10    9 1    
    10   11   10 1    
    11   28   10 1    
    12   29   10 1    
    13   12   11 1    
    14   13   11 1    
    15   30   11 1    
    16   17   12 1    
    17   14   13 1    
    18   15   13 1    
    19   31   13 1    
    20   38   14 1    
    21   16   15 1    
    22   17   15 1    
    23   32   15 1    
    24   39   16 1    
    25   18   17 1    
    26   33   17 1    
    27   19   18 1    
    28   27   18 1    
    29   20   19 2    
    30   34   19 1    
    31   21   20 1    
    32   22   21 ar   
    33   27   21 ar   
    34   23   22 1    
    35   24   22 ar   
    36   35   23 1    
    37   36   23 1    
    38   25   24 ar   
    39   26   25 ar   
    40   37   25 1    
    41   27   26 ar   
@<TRIPOS>SUBSTRUCTURE
     1 ADP500      1 GROUP   
@<TRIPOS>SET

