#    Name: 3vb4_ALA_VAL_LEU_BOC_0JU_2_INTS_M
#    Modification time : Tue Mar 25 00:24:07 2014

@<TRIPOS>MOLECULE
3vb4_ALA_VAL_LEU_BOC_0JU_2_INTS_M
   74     0     9     0     0
SMALL
NO_CHARGES


@<TRIPOS>ATOM
      1 O          24.1385   11.2295   -1.0160 O.2       1 ALC1        0.0000 
      2 O          23.0370   10.7040   -0.5540 O.2       7 ALL1        0.0000 
      3 O          25.2400   11.7550   -1.4780 O.2       4 ALP1        0.0000 
      4 CA         22.4495    8.5280    0.4390 C.3       3 GLC5        0.0000 
      5 CA         22.5080   10.6320    0.7960 C.3       9 GLL5        0.0000 
      6 CA         22.3910    6.4240    0.0820 C.3       6 GLP5        0.0000 
      7 CA         24.2315   11.0310    3.5035 C.3       3 GLC5        0.0000 
      8 CA         23.6550   10.6430    1.7960 C.3       9 GLL5        0.0000 
      9 CA         24.8080   11.4190    5.2110 C.3       6 GLP5        0.0000 
     10 CA         24.0250    8.9745    2.6105 C.3       3 GLC5        0.0000 
     11 CA         24.3950    7.3060    3.4250 C.3       6 GLP5        0.0000 
     12 CA         25.5840    9.5810    1.3395 C.3       3 GLC5        0.0000 
     13 CA         27.5130    8.5190    0.8830 C.3       6 GLP5        0.0000 
     14 O          20.5375   10.3855    2.5765 O.2       1 ALC1        0.0000 
     15 O          20.6880   11.7110    1.9600 O.2       7 ALL1        0.0000 
     16 O          20.3870    9.0600    3.1930 O.2       4 ALP1        0.0000 
     17 CA         20.6955   14.5765    1.5520 C.3       3 GLC5        0.0000 
     18 CA         19.8050   12.8190    2.2750 C.3       9 GLL5        0.0000 
     19 CA         21.5860   16.3340    0.8290 C.3       6 GLP5        0.0000 
     20 N          19.9905   11.1990    5.2645 N.am      2 SEC2        0.0000 
     21 N          19.9770   12.5310    4.6300 N.am      8 SEL2        0.0000 
     22 N          20.0040    9.8670    5.8990 N.am      5 SEP2        0.0000 
     23 O          19.7595   15.4840    2.6605 O.2       1 ALC1        0.0000 
     24 O          20.2470   14.6090    3.8550 O.2       7 ALL1        0.0000 
     25 O          19.2720   16.3590    1.4660 O.2       4 ALP1        0.0000 
     26 CA         21.3865   13.4435    5.7690 C.3       3 GLC5        0.0000 
     27 CA         20.4400   15.1570    5.1900 C.3       9 GLL5        0.0000 
     28 CA         22.3330   11.7300    6.3480 C.3       6 GLP5        0.0000 
     29 CA         21.0235   17.7820    6.6165 C.3       3 GLC5        0.0000 
     30 CA         21.0860   16.5340    5.0390 C.3       9 GLL5        0.0000 
     31 CA         20.9610   19.0300    8.1940 C.3       6 GLP5        0.0000 
     32 CA         20.5200   18.2090    3.9820 C.3       3 GLC5        0.0000 
     33 CA         19.9540   19.8840    2.9250 C.3       6 GLP5        0.0000 
     34 CA         22.4205   17.6870    6.3415 C.3       3 GLC5        0.0000 
     35 CA         22.5330   16.4780    4.5520 C.3       9 GLL5        0.0000 
     36 CA         22.3080   18.8960    8.1310 C.3       6 GLP5        0.0000 
     37 CA         23.2770   18.8510    6.1235 C.3       3 GLC5        0.0000 
     38 CA         23.1740   17.8630    4.5880 C.3       9 GLL5        0.0000 
     39 CA         23.3800   19.8390    7.6590 C.3       6 GLP5        0.0000 
     40 CA         22.3700   19.2605    3.6105 C.3       3 GLC5        0.0000 
     41 CA         21.5660   20.6580    2.6330 C.3       6 GLP5        0.0000 
     42 CA         24.8660   17.1455    3.4135 C.3       3 GLC5        0.0000 
     43 CA         26.5580   16.4280    2.2390 C.3       6 GLP5        0.0000 
     44 CA         22.8545   13.5995    5.8380 C.3       3 GLC5        0.0000 
     45 CA         23.3760   15.4690    5.3280 C.3       9 GLL5        0.0000 
     46 CA         25.3275   15.4310    5.5805 C.3       3 GLC5        0.0000 
     47 CA         27.2790   15.3930    5.8330 C.3       6 GLP5        0.0000 
     48 CA         24.1185   10.4765   -3.6970 C.3       3 GLC5        0.0000 
     49 CA         21.9590   10.9340   -4.0360 C.3       9 GLL5        0.0000 
     50 CA         26.2780   10.0190   -3.3580 C.3       6 GLP5        0.0000 
     51 CA         24.6400   10.4420   -4.9985 C.3       3 GLC5        0.0000 
     52 CA         22.8240   11.3860   -5.2090 C.3       9 GLL5        0.0000 
     53 CA         26.4560    9.4980   -4.7880 C.3       6 GLP5        0.0000 
     54 N          16.5160   15.2310   10.5145 N.am      2 SEC2        0.0000 
     55 N          16.6190   15.8390    9.0400 N.am      8 SEL2        0.0000 
     56 N          16.4130   14.6230   11.9890 N.am      5 SEP2        0.0000 
     57 CA         17.7125   11.8945    9.6145 C.3       3 GLC5        0.0000 
     58 CA         17.2780   12.8160    7.6730 C.3       9 GLL5        0.0000 
     59 CA         18.1470   10.9730   11.5560 C.3       6 GLP5        0.0000 
     60 CA         19.2555   12.0825    7.5055 C.3       3 GLC5        0.0000 
     61 CA         21.2330   11.3490    7.3380 C.3       6 GLP5        0.0000 
     62 CA         13.8840   13.3045    7.3265 C.3       3 GLC5        0.0000 
     63 CA         15.8540   12.3610    7.3950 C.3       9 GLL5        0.0000 
     64 CA         11.9140   14.2480    7.2580 C.3       6 GLP5        0.0000 
     65 N          17.4875   10.2470    9.1475 N.am      2 SEC2        0.0000 
     66 N          16.8060   10.2580    7.8960 N.am      8 SEL2        0.0000 
     67 N          18.1690   10.2360   10.3990 N.am      5 SEP2        0.0000 
     68 O          15.0200    8.7300    6.3555 O.2       1 ALC1        0.0000 
     69 O          14.7680   10.2380    6.9160 O.2       7 ALL1        0.0000 
     70 O          15.2720    7.2220    5.7950 O.2       4 ALP1        0.0000 
     71 CA         22.0389   16.7593    2.7604 C.3       3 GLC5        0.0000 
     72 CA         17.6645   13.8105    8.6438 C.3       3 GLC5        0.0000 
     73 CA         17.4780   14.3100    7.4110 C.3       9 GLL5        0.0000 
     74 CA         18.7130   14.6590    9.8190 C.3       6 GLP5        0.0000 
@<TRIPOS>BOND
@<TRIPOS>SUBSTRUCTURE
     1 ALC1        1 GROUP        1 X    ALC  0     ROOT ALC X 1
     2 SEC2       20 GROUP        1 X    SEC  0     **** SEC X 2
     3 GLC5        4 GROUP        1 X    GLC  0     **** GLC X 6
     4 ALP1        3 GROUP        1 Y    ALP  0     ROOT ALP Y 8
     5 SEP2       22 GROUP        1 Y    SEP  0     **** SEP Y 9
     6 GLP5        6 GROUP        1 Y    GLP  0     **** GLP Y 13
     7 ALL1        2 GROUP        1 Z    ALL  0     ROOT ALL Z 15
     8 SEL2       21 GROUP        1 Z    SEL  0     **** SEL Z 16
     9 GLL5        5 GROUP        1 Z    GLL  0     **** GLL Z 20
@<TRIPOS>SET

