#    Name: 3vb4_ALA_VAL_LEU_BOC_0JU_2_ligand
#    Modification time : Tue Mar 25 00:24:08 2014

@<TRIPOS>MOLECULE
3vb4_ALA_VAL_LEU_BOC_0JU_2_ligand
   77    76     5     0     0
SMALL
NO_CHARGES


@<TRIPOS>ATOM
      1 N          23.0370   10.7040   -0.5540 N.am      1 ALA2        0.0000
      2 CA         22.5080   10.6320    0.7960 C.3       1 ALA2        0.0000
      3 C          21.6440   11.8280    1.0410 C.2       1 ALA2        0.0000
      4 O          21.8380   12.8500    0.4050 O.2       1 ALA2        0.0000
      5 CB         23.6550   10.6430    1.7960 C.3       1 ALA2        0.0000
      6 H          24.0409   10.9343   -0.6446 H         1 ALA2        0.0000
      7 HA         21.9345    9.7432    0.9387 H         1 ALA2        0.0000
      8 HB1        24.2744    9.8699    1.6592 H         1 ALA2        0.0000
      9 HB2        24.2043   11.4754    1.7220 H         1 ALA2        0.0000
     10 HB3        23.3261   10.5918    2.7390 H         1 ALA2        0.0000
     11 N          20.6880   11.7110    1.9600 N.am      2 VAL3        0.0000
     12 CA         19.8050   12.8190    2.2750 C.3       2 VAL3        0.0000
     13 C          20.0150   13.3070    3.6860 C.2       2 VAL3        0.0000
     14 O          19.9770   12.5310    4.6300 O.2       2 VAL3        0.0000
     15 CB         18.3960   12.2450    2.1120 C.3       2 VAL3        0.0000
     16 CG1        17.3650   12.9860    2.9620 C.3       2 VAL3        0.0000
     17 CG2        17.9770   12.2520    0.6450 C.3       2 VAL3        0.0000
     18 HNCA       20.5289   10.8322    2.4901 H         2 VAL3        0.0000
     19 HA         19.9237   13.6111    1.5790 H         2 VAL3        0.0000
     20 HB         18.4172   11.1997    2.4439 H         2 VAL3        0.0000
     21 H          17.5865   12.9424    3.9362 H         2 VAL3        0.0000
     22 H          17.3085   13.9539    2.7172 H         2 VAL3        0.0000
     23 H          16.4482   12.6020    2.8524 H         2 VAL3        0.0000
     24 HG21       17.9730   13.1767    0.2643 H         2 VAL3        0.0000
     25 HG22       18.5945   11.7050    0.0798 H         2 VAL3        0.0000
     26 HG23       17.0575   11.8794    0.5196 H         2 VAL3        0.0000
     27 N          20.2470   14.6090    3.8550 N.am      3 LEU4        0.0000
     28 CA         20.4400   15.1570    5.1900 C.3       3 LEU4        0.0000
     29 C          19.0810   15.2800    5.8200 C.2       3 LEU4        0.0000
     30 O          18.3270   16.1740    5.4820 O.2       3 LEU4        0.0000
     31 CB         21.0860   16.5340    5.0390 C.3       3 LEU4        0.0000
     32 CG         22.5330   16.4780    4.5520 C.3       3 LEU4        0.0000
     33 CD1        23.1740   17.8630    4.5880 C.3       3 LEU4        0.0000
     34 CD2        23.3760   15.4690    5.3280 C.3       3 LEU4        0.0000
     35 HNCA       20.3002   15.2766    3.0704 H         3 LEU4        0.0000
     36 HA         21.0607   14.5345    5.7722 H         3 LEU4        0.0000
     37 HB2        21.0547   17.0518    6.0093 H         3 LEU4        0.0000
     38 HB3        20.4928   17.1314    4.3306 H         3 LEU4        0.0000
     39 HG         22.5163   16.1557    3.4961 H         3 LEU4        0.0000
     40 HD11       24.1217   17.8420    4.2697 H         3 LEU4        0.0000
     41 HD12       22.6844   18.5140    4.0080 H         3 LEU4        0.0000
     42 HD13       23.1837   18.2438    5.5126 H         3 LEU4        0.0000
     43 HD21       24.3204   15.4440    5.0002 H         3 LEU4        0.0000
     44 HD22       23.4100   15.6858    6.3036 H         3 LEU4        0.0000
     45 HD23       23.0128   14.5409    5.2465 H         3 LEU4        0.0000
     46 O1         21.0720   10.1850   -1.4810 O.co2     4 BOC1        0.0000
     47 C          22.2500   10.4810   -1.6030 C.2       4 BOC1        0.0000
     48 O2         22.8040   10.5760   -2.9410 O.3       4 BOC1        0.0000
     49 CT         21.9590   10.9340   -4.0360 C.3       4 BOC1        0.0000
     50 C1         21.0510   12.0870   -3.6070 C.3       4 BOC1        0.0000
     51 C2         21.1260    9.7140   -4.4260 C.3       4 BOC1        0.0000
     52 C3         22.8240   11.3860   -5.2090 C.3       4 BOC1        0.0000
     53 H          21.5772   12.8930   -3.3360 H         4 BOC1        0.0000
     54 H          20.4382   12.3713   -4.3443 H         4 BOC1        0.0000
     55 H          20.4760   11.8368   -2.8280 H         4 BOC1        0.0000
     56 H          21.7015    8.9442   -4.7021 H         4 BOC1        0.0000
     57 H          20.5553    9.3965   -3.6687 H         4 BOC1        0.0000
     58 H          20.5138    9.9116   -5.1916 H         4 BOC1        0.0000
     59 H          23.3877   12.1771   -4.9716 H         4 BOC1        0.0000
     60 H          23.4455   10.6636   -5.5122 H         4 BOC1        0.0000
     61 H          22.2704   11.6473   -5.9997 H         4 BOC1        0.0000
     62 C          17.5180   15.0070    8.7370 C.2       5 0JU5        0.0000
     63 NF         16.6190   15.8390    9.0400 N.2       5 0JU5        0.0000
     64 CA         17.4780   14.3100    7.4110 C.3       5 0JU5        0.0000
     65 N          18.7600   14.3560    6.7200 N.4       5 0JU5        0.0000
     66 CB         17.2780   12.8160    7.6730 C.3       5 0JU5        0.0000
     67 CG         15.8540   12.3610    7.3950 C.3       5 0JU5        0.0000
     68 CD         15.8470   10.8520    7.4210 C.2       5 0JU5        0.0000
     69 OE         16.8060   10.2580    7.8960 O.2       5 0JU5        0.0000
     70 NE         14.7680   10.2380    6.9160 N.am      5 0JU5        0.0000
     71 H          16.6933   14.6492    6.8108 H         5 0JU5        0.0000
     72 H          17.5291   12.6017    8.7188 H         5 0JU5        0.0000
     73 H          17.9699   12.2482    7.0393 H         5 0JU5        0.0000
     74 H          15.5481   12.7127    6.4233 H         5 0JU5        0.0000
     75 H          15.1990   12.7442    8.1602 H         5 0JU5        0.0000
     76 H          14.0379   10.8346    6.5827 H         5 0JU5        0.0000
     77 H          14.7896    9.2382    6.9177 H         5 0JU5        0.0000
@<TRIPOS>BOND
     1    2    1 1
     2    6    1 1
     3    3    2 1
     4    5    2 1
     5    7    2 1
     6    4    3 2
     7    8    5 1
     8    9    5 1
     9   10    5 1
    10   12   11 1
    11   18   11 1
    12   13   12 1
    13   15   12 1
    14   19   12 1
    15   14   13 2
    16   16   15 1
    17   17   15 1
    18   20   15 1
    19   21   16 1
    20   22   16 1
    21   23   16 1
    22   24   17 1
    23   25   17 1
    24   26   17 1
    25   28   27 1
    26   35   27 1
    27   29   28 1
    28   31   28 1
    29   36   28 1
    30   30   29 2
    31   32   31 1
    32   37   31 1
    33   38   31 1
    34   33   32 1
    35   34   32 1
    36   39   32 1
    37   40   33 1
    38   41   33 1
    39   42   33 1
    40   43   34 1
    41   44   34 1
    42   45   34 1
    43   47   46 ar
    44   48   47 1
    45   49   48 1
    46   50   49 1
    47   51   49 1
    48   52   49 1
    49   53   50 1
    50   54   50 1
    51   55   50 1
    52   56   51 1
    53   57   51 1
    54   58   51 1
    55   59   52 1
    56   60   52 1
    57   61   52 1
    58   63   62 2
    59   64   62 1
    60   65   64 1
    61   66   64 1
    62   71   64 1
    63   67   66 1
    64   72   66 1
    65   73   66 1
    66   68   67 1
    67   74   67 1
    68   75   67 1
    69   69   68 2
    70   70   68 am
    71   76   70 1
    72   77   70 1
    73   47    1 1 
    74   11    3 am
    75   27   13 am
    76   65   29 1 
@<TRIPOS>SUBSTRUCTURE
     1 ALA2        1 RESIDUE
     2 VAL3       11 RESIDUE
     3 LEU4       27 RESIDUE
     4 BOC1       46 GROUP
     5 0JU5       62 GROUP
@<TRIPOS>SET

