#    Name: 2D5M_1_CAVITY_N1_6.mol2
#    Modification time : Tue Mar 11 08:18:45 2014

@<TRIPOS>MOLECULE
2D5M_1_CAVITY_N1_6.mol2
  128     0     7     0     0
SMALL
NO_CHARGES


@<TRIPOS>ATOM
      1 O          14.8273   20.4804   22.6048 O.2       2 ALA2        0.0000 
      2 CA         14.2598   19.2844   21.8994 C.3       6 GLY6        0.0000 
      3 CA         12.5170   18.0964   22.1261 C.3       6 GLY6        0.0000 
      4 CA         13.5204   20.1897   20.9593 C.3       6 GLY6        0.0000 
      5 N          14.6957   20.1816   20.0273 N.2       2 ALA2        0.0000 
      6 N          15.8710   20.1736   19.0953 N.2       2 ALA2        0.0000 
      7 OG         11.7776   19.0017   21.1860 O.2       1 SER1        0.0000 
      8 CA         12.9529   18.9936   20.2539 C.3       6 GLY6        0.0000 
      9 O          14.1282   18.9856   19.3219 O.2       2 ALA2        0.0000 
     10 O          15.3035   18.9776   18.3899 O.2       2 ALA2        0.0000 
     11 N          11.2101   17.8057   20.4806 N.2       2 ALA2        0.0000 
     12 CA         12.3854   17.7976   19.5486 C.3       6 GLY6        0.0000 
     13 O          13.5607   17.7896   18.6166 O.2       2 ALA2        0.0000 
     14 CA         20.3600   24.6429   17.4751 C.3       6 GLY6        0.0000 
     15 N          14.5238   22.2829   19.7925 N.2       2 ALA2        0.0000 
     16 O          22.7508   22.2268   13.2684 O.2       2 ALA2        0.0000 
     17 N          12.7810   21.0949   20.0192 N.2       2 ALA2        0.0000 
     18 N          13.9563   21.0869   19.0871 N.2       2 ALA2        0.0000 
     19 N          15.1316   21.0789   18.1551 N.2       2 ALA2        0.0000 
     20 OG         11.0383   19.9069   20.2458 O.2       1 SER1        0.0000 
     21 CA         12.2135   19.8989   19.3138 C.3       6 GLY6        0.0000 
     22 CA         13.3888   19.8909   18.3818 C.3       6 GLY6        0.0000 
     23 O          14.5641   19.8829   17.4498 O.2       2 ALA2        0.0000 
     24 O          15.7394   19.8749   16.5178 O.2       2 ALA2        0.0000 
     25 NZ         20.7959   25.5401   15.6030 N.2       4 LYS4        0.0000 
     26 NZ         21.9712   25.5321   14.6710 N.2       4 LYS4        0.0000 
     27 N          19.0531   24.3521   15.8297 N.2       2 ALA2        0.0000 
     28 DU         20.2284   24.3441   14.8976 H         7 CUB7        0.0000 
     29 DU         21.4037   24.3361   13.9656 H         7 CUB7        0.0000 
     30 CA         22.5790   24.3281   13.0336 C.3       6 GLY6        0.0000 
     31 N          13.7845   23.1882   18.8524 N.2       2 ALA2        0.0000 
     32 N          18.4856   23.1561   15.1243 N.2       2 ALA2        0.0000 
     33 DU         19.6609   23.1481   14.1923 H         7 CUB7        0.0000 
     34 CZ         20.8362   23.1401   13.2603 C.ar      5 PHE5        0.0000 
     35 CZ         22.0115   23.1321   12.3283 C.ar      5 PHE5        0.0000 
     36 OD1        10.8664   22.0082   20.0110 O.3       3 ASP3        0.0000 
     37 N          12.0417   22.0002   19.0790 N.2       2 ALA2        0.0000 
     38 N          13.2170   21.9922   18.1470 N.2       2 ALA2        0.0000 
     39 N          14.3923   21.9841   17.2150 N.2       2 ALA2        0.0000 
     40 N          16.7428   21.9681   15.3510 N.2       2 ALA2        0.0000 
     41 N          17.9181   21.9601   14.4190 N.2       2 ALA2        0.0000 
     42 DU         19.0934   21.9521   13.4870 H         7 CUB7        0.0000 
     43 DU         20.2687   21.9441   12.5549 H         7 CUB7        0.0000 
     44 CZ         21.4440   21.9360   11.6229 C.ar      5 PHE5        0.0000 
     45 CZ         22.6192   21.9280   10.6909 C.ar      5 PHE5        0.0000 
     46 O          10.2989   20.8122   19.3057 O.2       2 ALA2        0.0000 
     47 CA         11.4742   20.8042   18.3737 C.3       6 GLY6        0.0000 
     48 CA         12.6495   20.7962   17.4417 C.3       6 GLY6        0.0000 
     49 O          13.8248   20.7881   16.5097 O.2       2 ALA2        0.0000 
     50 O          15.0000   20.7801   15.5776 O.2       2 ALA2        0.0000 
     51 O          16.1753   20.7721   14.6456 O.2       2 ALA2        0.0000 
     52 DU         17.3506   20.7641   13.7136 H         7 CUB7        0.0000 
     53 DU         19.7012   20.7481   11.8496 H         7 CUB7        0.0000 
     54 DU         20.8765   20.7400   10.9176 H         7 CUB7        0.0000 
     55 CZ         22.0517   20.7320    9.9856 C.ar      5 PHE5        0.0000 
     56 O          15.6078   19.5761   13.9403 O.2       2 ALA2        0.0000 
     57 O          16.7831   19.5681   13.0083 O.2       2 ALA2        0.0000 
     58 DU         19.1337   19.5520   11.1443 H         7 CUB7        0.0000 
     59 CZ         20.3090   19.5440   10.2123 C.ar      5 PHE5        0.0000 
     60 O          15.0403   18.3801   13.2350 O.2       2 ALA2        0.0000 
     61 O          16.2156   18.3721   12.3029 O.2       2 ALA2        0.0000 
     62 DU         17.3909   18.3641   11.3709 H         7 CUB7        0.0000 
     63 CZ         18.5662   18.3560   10.4389 C.ar      5 PHE5        0.0000 
     64 O          15.6481   17.1761   11.5976 O.2       2 ALA2        0.0000 
     65 O          16.8234   17.1681   10.6656 O.2       2 ALA2        0.0000 
     66 CA         15.0806   15.9801   10.8923 C.3       6 GLY6        0.0000 
     67 N          18.3137   25.2574   14.8895 N.2       2 ALA2        0.0000 
     68 OG         19.4890   25.2494   13.9575 O.2       1 SER1        0.0000 
     69 CZ         20.6643   25.2413   13.0255 C.ar      5 PHE5        0.0000 
     70 N          17.7462   24.0614   14.1842 N.2       2 ALA2        0.0000 
     71 DU         18.9215   24.0534   13.2522 H         7 CUB7        0.0000 
     72 CZ         20.0968   24.0453   12.3202 C.ar      5 PHE5        0.0000 
     73 CA         11.3023   22.9054   18.1389 C.3       6 GLY6        0.0000 
     74 CA         12.4776   22.8974   17.2069 C.3       6 GLY6        0.0000 
     75 CA         13.6529   22.8894   16.2749 C.3       6 GLY6        0.0000 
     76 CA         14.8282   22.8814   15.3429 C.3       6 GLY6        0.0000 
     77 N          16.0035   22.8734   14.4108 N.2       2 ALA2        0.0000 
     78 N          17.1787   22.8654   13.4788 N.2       2 ALA2        0.0000 
     79 DU         18.3540   22.8573   12.5468 H         7 CUB7        0.0000 
     80 CZ         19.5293   22.8493   11.6148 C.ar      5 PHE5        0.0000 
     81 CA         11.9101   21.7014   16.5015 C.3       6 GLY6        0.0000 
     82 CA         13.0854   21.6934   15.5695 C.3       6 GLY6        0.0000 
     83 N          14.2607   21.6854   14.6375 N.2       2 ALA2        0.0000 
     84 N          15.4360   21.6774   13.7055 N.2       2 ALA2        0.0000 
     85 N          16.6112   21.6694   12.7735 N.2       2 ALA2        0.0000 
     86 DU         17.7865   21.6613   11.8415 H         7 CUB7        0.0000 
     87 CZ         18.9618   21.6533   10.9095 C.ar      5 PHE5        0.0000 
     88 CZ         20.1371   21.6453    9.9775 C.ar      5 PHE5        0.0000 
     89 CZ         21.3124   21.6373    9.0455 C.ar      5 PHE5        0.0000 
     90 CA         13.6932   20.4894   13.9322 C.3       6 GLY6        0.0000 
     91 N          14.8685   20.4814   13.0002 N.2       2 ALA2        0.0000 
     92 DU         16.0437   20.4733   12.0682 H         7 CUB7        0.0000 
     93 DU         17.2190   20.4653   11.1361 H         7 CUB7        0.0000 
     94 CZ         18.3943   20.4573   10.2041 C.ar      5 PHE5        0.0000 
     95 CZ         19.5696   20.4493    9.2721 C.ar      5 PHE5        0.0000 
     96 CA         13.1257   19.2934   13.2268 C.3       6 GLY6        0.0000 
     97 O          14.3010   19.2854   12.2948 O.2       2 ALA2        0.0000 
     98 DU         15.4762   19.2773   11.3628 H         7 CUB7        0.0000 
     99 CA         16.6515   19.2693   10.4308 C.3       6 GLY6        0.0000 
    100 CZ         17.8268   19.2613    9.4988 C.ar      5 PHE5        0.0000 
    101 N          13.7335   18.0893   11.5895 N.2       2 ALA2        0.0000 
    102 N          14.9087   18.0813   10.6575 N.2       2 ALA2        0.0000 
    103 CA         16.0840   18.0733    9.7255 C.3       6 GLY6        0.0000 
    104 N          14.3412   16.8853    9.9521 N.2       2 ALA2        0.0000 
    105 OG         17.5744   26.1626   13.9494 O.2       1 SER1        0.0000 
    106 OG         18.7497   26.1546   13.0174 O.2       1 SER1        0.0000 
    107 OG         19.9250   26.1466   12.0854 O.2       1 SER1        0.0000 
    108 CA         17.0069   24.9666   13.2440 C.3       6 GLY6        0.0000 
    109 OG         18.1822   24.9586   12.3120 O.2       1 SER1        0.0000 
    110 CZ         19.3575   24.9506   11.3800 C.ar      5 PHE5        0.0000 
    111 N          16.4394   23.7706   12.5387 N.2       2 ALA2        0.0000 
    112 DU         17.6147   23.7626   11.6067 H         7 CUB7        0.0000 
    113 CZ         18.7900   23.7546   10.6747 C.ar      5 PHE5        0.0000 
    114 N          15.8719   22.5746   11.8334 N.2       2 ALA2        0.0000 
    115 O          17.0472   22.5666   10.9014 O.2       2 ALA2        0.0000 
    116 CA         18.2225   22.5586    9.9693 C.3       6 GLY6        0.0000 
    117 N          15.3044   21.3786   11.1280 N.2       2 ALA2        0.0000 
    118 O          16.4797   21.3706   10.1960 O.2       2 ALA2        0.0000 
    119 CZ         17.6550   21.3626    9.2640 C.ar      5 PHE5        0.0000 
    120 N          13.5616   20.1906   11.3547 N.2       2 ALA2        0.0000 
    121 O          14.7369   20.1826   10.4227 O.2       2 ALA2        0.0000 
    122 CA         15.9122   20.1746    9.4907 C.3       6 GLY6        0.0000 
    123 N          14.1694   18.9866    9.7173 N.2       2 ALA2        0.0000 
    124 CA         17.4428   25.8639   11.3719 C.3       6 GLY6        0.0000 
    125 CZ         18.6181   25.8559   10.4399 C.ar      5 PHE5        0.0000 
    126 CA         15.7000   24.6759   11.5986 C.3       6 GLY6        0.0000 
    127 CA         16.8753   24.6679   10.6666 C.3       6 GLY6        0.0000 
    128 CA         18.0506   24.6599    9.7346 C.3       6 GLY6        0.0000 
@<TRIPOS>BOND
@<TRIPOS>SUBSTRUCTURE
     1 SER1        7 GROUP   
     2 ALA2        1 GROUP   
     3 ASP3       36 GROUP   
     4 LYS4       25 GROUP   
     5 PHE5       34 GROUP   
     6 GLY6        2 GROUP   
     7 CUB7       28 GROUP   
@<TRIPOS>SET

