#    Name: 2d5m_FMN_1_INTS_M
#    Modification time : Tue Mar 25 09:42:49 2014

@<TRIPOS>MOLECULE
2d5m_FMN_1_INTS_M
   79     0    12     0     0
SMALL
NO_CHARGES


@<TRIPOS>ATOM
      1 N          14.3170   18.7010   14.4305 N.am      2 SEC2        0.0000 
      2 N          14.1530   19.5650   13.2410 N.am     10 SEL2        0.0000 
      3 N          14.4810   17.8370   15.6200 N.am      6 SEP2        0.0000 
      4 N          11.8860   16.6310   12.7575 N.am      2 SEC2        0.0000 
      5 N          12.7540   17.8360   12.7920 N.am     10 SEL2        0.0000 
      6 N          11.0180   15.4260   12.7230 N.am      6 SEP2        0.0000 
      7 O          12.5460   18.4300   10.1135 O.2       1 ALC1        0.0000 
      8 O          13.3490   19.1780   11.0390 O.2       9 ALL1        0.0000 
      9 O          11.7430   17.6820    9.1880 O.2       5 ALP1        0.0000 
     10 N          14.3445   20.9395    7.9195 N.am      2 SEC2        0.0000 
     11 N          13.9700   20.4470    9.2460 N.am     10 SEL2        0.0000 
     12 N          14.7190   21.4320    6.5930 N.am      6 SEP2        0.0000 
     13 N          14.2800   21.9680    8.8460 N.am      2 SEC2        0.0000 
     14 N          14.5900   23.4890    8.4460 N.am      6 SEP2        0.0000 
     15 N          15.1330   22.7135    9.6460 N.am      2 SEC2        0.0000 
     16 N          15.6760   21.9380   10.8460 N.am     10 SEL2        0.0000 
     17 CA         16.9410   23.9040    9.3515 C.3       4 GLC5        0.0000 
     18 CA         17.1310   23.7820   11.2780 C.3      12 GLL5        0.0000 
     19 CA         16.7510   24.0260    7.4250 C.3       8 GLP5        0.0000 
     20 CA         20.2580   25.8125   10.7130 C.3       4 GLC5        0.0000 
     21 CA         18.6920   25.7620   11.5760 C.3      12 GLL5        0.0000 
     22 CA         21.8240   25.8630    9.8500 C.3       8 GLP5        0.0000 
     23 CA         19.1805   27.6770   11.3655 C.3       4 GLC5        0.0000 
     24 CA         19.6690   29.5920   11.1550 C.3       8 GLP5        0.0000 
     25 CA         12.5820   21.3675   14.7045 C.3       4 GLC5        0.0000 
     26 CA         14.2100   21.4860   15.7470 C.3      12 GLL5        0.0000 
     27 CA         10.9540   21.2490   13.6620 C.3       8 GLP5        0.0000 
     28 N          12.9840   24.1140   14.9705 N.am      2 SEC2        0.0000 
     29 N          13.8500   22.8380   15.4380 N.am     10 SEL2        0.0000 
     30 N          12.1180   25.3900   14.5030 N.am      6 SEP2        0.0000 
     31 O          13.5620   23.0980   14.1365 O.2       1 ALC1        0.0000 
     32 O          13.8500   22.8380   15.4380 O.2       9 ALL1        0.0000 
     33 O          13.2740   23.3580   12.8350 O.2       5 ALP1        0.0000 
     34 N          14.4855   18.8960   16.5910 N.am      2 SEC2        0.0000 
     35 N          14.4900   19.9550   17.5620 N.am     10 SEL2        0.0000 
     36 O          13.3390   23.0555   20.3920 O.2       1 ALC1        0.0000 
     37 O          13.7910   22.1130   19.4380 O.2       9 ALL1        0.0000 
     38 O          12.8870   23.9980   21.3460 O.2       5 ALP1        0.0000 
     39 CA         11.6175   19.5205   17.2455 C.3       4 GLC5        0.0000 
     40 CA         12.0060   21.2310   18.0950 C.3      12 GLL5        0.0000 
     41 CA         11.2290   17.8100   16.3960 C.3       8 GLP5        0.0000 
     42 N           9.1355   19.0025   20.0045 N.am      2 SEC2        0.0000 
     43 N          10.1250   20.0170   20.3030 N.am     10 SEL2        0.0000 
     44 N           8.1460   17.9880   19.7060 N.am      6 SEP2        0.0000 
     45 N          10.2020   20.0570   21.6840 N.am      2 SEC2        0.0000 
     46 N          10.2790   20.0970   23.0650 N.am      6 SEP2        0.0000 
     47 N           7.5795   20.1145   18.2580 N.am      2 SEC2        0.0000 
     48 N           8.8220   20.8440   18.3310 N.am     10 SEL2        0.0000 
     49 N           6.3370   19.3850   18.1850 N.am      6 SEP2        0.0000 
     50 N           7.8245   21.3615   17.6260 N.am      2 SEC2        0.0000 
     51 N           6.8270   21.8790   16.9210 N.am      6 SEP2        0.0000 
     52 NZ          9.8205   23.5995   20.2200 N.4       3 LYC4        0.0000 
     53 NZ          9.1410   22.3630   20.3380 N.4      11 LYL4        0.0000 
     54 NZ         10.5000   24.8360   20.1020 N.4       7 LYP4        0.0000 
     55 N           7.8150   22.8265   20.0990 N.am      2 SEC2        0.0000 
     56 N           9.1410   22.3630   20.3380 N.am     10 SEL2        0.0000 
     57 N           6.4890   23.2900   19.8600 N.am      6 SEP2        0.0000 
     58 N           9.2005   22.6045   21.6765 N.am      2 SEC2        0.0000 
     59 N           9.2600   22.8460   23.0150 N.am      6 SEP2        0.0000 
     60 N           9.8205   23.5995   20.2200 N.am      2 SEC2        0.0000 
     61 N          10.5000   24.8360   20.1020 N.am      6 SEP2        0.0000 
     62 CA         15.4690   24.7213   12.5490 C.3       4 GLC5        0.0000 
     63 CA         16.3310   22.7130   11.7700 C.3      12 GLL5        0.0000 
     64 CA         14.2070   26.1950   13.5740 C.3       8 GLP5        0.0000 
     65 CA         14.7645   23.4213   10.8010 C.3       4 GLC5        0.0000 
     66 CA         12.7980   23.5950   10.0780 C.3       8 GLP5        0.0000 
     67 CA         17.1275   26.8128   11.3100 C.3       4 GLC5        0.0000 
     68 CA         17.8060   24.6610   12.1100 C.3      12 GLL5        0.0000 
     69 CA         16.0060   28.4140   10.7770 C.3       8 GLP5        0.0000 
     70 CA         16.1071   25.6103   13.6113 C.3       4 GLC5        0.0000 
     71 CA         18.2910   25.4810   14.4750 C.3      12 GLL5        0.0000 
     72 CA         15.4015   24.5780   13.5880 C.3       4 GLC5        0.0000 
     73 CA         16.9260   23.4000   14.0240 C.3      12 GLL5        0.0000 
     74 CA         16.4410   24.7475   15.4621 C.3       4 GLC5        0.0000 
     75 CA         15.4360   25.3050   16.9100 C.3       8 GLP5        0.0000 
     76 CA         11.3618   22.5862   17.0663 C.3       4 GLC5        0.0000 
     77 CA         13.2770   22.0060   18.0820 C.3      12 GLL5        0.0000 
     78 CA         10.0820   23.5540   16.0440 C.3       8 GLP5        0.0000 
     79 CA         14.6121   23.5106   17.1019 C.3       4 GLC5        0.0000 
@<TRIPOS>BOND
@<TRIPOS>SUBSTRUCTURE
     1 ALC1        7 GROUP        1 X    ALC  0     ROOT ALC X 1
     2 SEC2        1 GROUP        1 X    SEC  0     **** SEC X 2
     3 LYC4       52 GROUP        1 X    LYC  0     **** LYC X 4
     4 GLC5       17 GROUP        1 X    GLC  0     **** GLC X 6
     5 ALP1        9 GROUP        1 Y    ALP  0     ROOT ALP Y 8
     6 SEP2        3 GROUP        1 Y    SEP  0     **** SEP Y 9
     7 LYP4       54 GROUP        1 Y    LYP  0     **** LYP Y 11
     8 GLP5       19 GROUP        1 Y    GLP  0     **** GLP Y 13
     9 ALL1        8 GROUP        1 Z    ALL  0     ROOT ALL Z 15
    10 SEL2        2 GROUP        1 Z    SEL  0     **** SEL Z 16
    11 LYL4       53 GROUP        1 Z    LYL  0     **** LYL Z 18
    12 GLL5       18 GROUP        1 Z    GLL  0     **** GLL Z 20
@<TRIPOS>SET

