#    Name: 2d5m_FMN_1_ligand
#    Modification time : Tue Mar 25 09:42:50 2014

@<TRIPOS>MOLECULE
2d5m_FMN_1_ligand
   50    52     1     0     0
SMALL
NO_CHARGES


@<TRIPOS>ATOM
      1 N1         14.1530   19.5650   13.2410 N.2       1 FMN1001     0.0000 
      2 C2         13.3830   18.8230   12.3850 C.2       1 FMN1001     0.0000 
      3 O2         12.7540   17.8360   12.7920 O.2       1 FMN1001     0.0000 
      4 N3         13.3490   19.1780   11.0390 N.am      1 FMN1001     0.0000 
      5 C4         14.0610   20.2090   10.4690 C.2       1 FMN1001     0.0000 
      6 O4         13.9700   20.4470    9.2460 O.2       1 FMN1001     0.0000 
      7 C4A        14.9020   20.9460   11.3480 C.2       1 FMN1001     0.0000 
      8 N5         15.6760   21.9380   10.8460 N.2       1 FMN1001     0.0000 
      9 C5A        16.3310   22.7130   11.7700 C.ar      1 FMN1001     0.0000 
     10 C6         17.1310   23.7820   11.2780 C.ar      1 FMN1001     0.0000 
     11 C7         17.8060   24.6610   12.1100 C.ar      1 FMN1001     0.0000 
     12 C7M        18.6920   25.7620   11.5760 C.3       1 FMN1001     0.0000 
     13 C8         17.6410   24.4790   13.5340 C.ar      1 FMN1001     0.0000 
     14 C8M        18.2910   25.4810   14.4750 C.3       1 FMN1001     0.0000 
     15 C9         16.9260   23.4000   14.0240 C.ar      1 FMN1001     0.0000 
     16 C9A        16.2660   22.5220   13.1800 C.ar      1 FMN1001     0.0000 
     17 N10        15.5490   21.3890   13.6230 N.pl3     1 FMN1001     0.0000 
     18 C10        14.8220   20.6350   12.7350 C.2       1 FMN1001     0.0000 
     19 C1'        15.5130   21.0590   15.0750 C.3       1 FMN1001     0.0000 
     20 C2'        14.2100   21.4860   15.7470 C.3       1 FMN1001     0.0000 
     21 O2'        13.8500   22.8380   15.4380 O.3       1 FMN1001     0.0000 
     22 C3'        14.3890   21.3670   17.2640 C.3       1 FMN1001     0.0000 
     23 O3'        14.4900   19.9550   17.5620 O.3       1 FMN1001     0.0000 
     24 C4'        13.2770   22.0060   18.0820 C.3       1 FMN1001     0.0000 
     25 O4'        13.7910   22.1130   19.4380 O.3       1 FMN1001     0.0000 
     26 C5'        12.0060   21.2310   18.0950 C.3       1 FMN1001     0.0000 
     27 O5'        11.0520   21.9550   18.9370 O.3       1 FMN1001     0.0000 
     28 P           9.7120   21.2470   19.4820 P.3       1 FMN1001     0.0000 
     29 O1P        10.1250   20.0170   20.3030 O.co2     1 FMN1001     0.0000 
     30 O2P         8.8220   20.8440   18.3310 O.co2     1 FMN1001     0.0000 
     31 O3P         9.1410   22.3630   20.3380 O.co2     1 FMN1001     0.0000 
     32 H          12.7168   18.5991   10.4017 H         1 FMN1001     0.0000 
     33 H          17.2028   23.8962   10.2425 H         1 FMN1001     0.0000 
     34 H          16.8828   23.2438   15.0531 H         1 FMN1001     0.0000 
     35 H          16.3506   21.5524   15.5933 H         1 FMN1001     0.0000 
     36 H          15.6391   19.9738   15.2169 H         1 FMN1001     0.0000 
     37 H          13.4344   20.7930   15.4608 H         1 FMN1001     0.0000 
     38 H          15.3348   21.8511   17.5198 H         1 FMN1001     0.0000 
     39 H          13.1025   23.0005   17.6935 H         1 FMN1001     0.0000 
     40 H          12.1908   20.2376   18.4966 H         1 FMN1001     0.0000 
     41 H          11.6259   21.1403   17.0803 H         1 FMN1001     0.0000 
     42 H          19.1031   26.2983   12.3131 H         1 FMN1001     0.0000 
     43 H          19.4425   25.3996   11.0234 H         1 FMN1001     0.0000 
     44 H          18.1837   26.4001   10.9976 H         1 FMN1001     0.0000 
     45 H          19.2841   25.5074   14.3610 H         1 FMN1001     0.0000 
     46 H          17.9534   26.4094   14.3198 H         1 FMN1001     0.0000 
     47 H          18.1118   25.2604   15.4338 H         1 FMN1001     0.0000 
     48 H          13.6375   22.8322   14.4609 H         1 FMN1001     0.0000 
     49 H          15.2871   19.8732   18.1602 H         1 FMN1001     0.0000 
     50 H          13.0163   22.4321   19.9839 H         1 FMN1001     0.0000 
@<TRIPOS>BOND
     1    2    1 1    
     2   18    1 2    
     3    3    2 2    
     4    4    2 am   
     5    5    4 am   
     6   32    4 1    
     7    6    5 2    
     8    7    5 1    
     9    8    7 2    
    10   18    7 1    
    11    9    8 1    
    12   10    9 ar   
    13   16    9 ar   
    14   11   10 ar   
    15   33   10 1    
    16   12   11 1    
    17   13   11 ar   
    18   42   12 1    
    19   43   12 1    
    20   44   12 1    
    21   14   13 1    
    22   15   13 ar   
    23   45   14 1    
    24   46   14 1    
    25   47   14 1    
    26   16   15 ar   
    27   34   15 1    
    28   17   16 1    
    29   18   17 1    
    30   19   17 1    
    31   20   19 1    
    32   35   19 1    
    33   36   19 1    
    34   21   20 1    
    35   22   20 1    
    36   37   20 1    
    37   48   21 1    
    38   23   22 1    
    39   24   22 1    
    40   38   22 1    
    41   49   23 1    
    42   25   24 1    
    43   26   24 1    
    44   39   24 1    
    45   50   25 1    
    46   27   26 1    
    47   40   26 1    
    48   41   26 1    
    49   28   27 1    
    50   29   28 ar   
    51   30   28 ar   
    52   31   28 ar   
@<TRIPOS>SUBSTRUCTURE
     1 FMN1001     1 GROUP   
@<TRIPOS>SET

