#    Name: 1gs4_ZK5_1_INTS_M
#    Modification time : Tue Mar 25 03:42:00 2014

@<TRIPOS>MOLECULE
1gs4_ZK5_1_INTS_M
   70     0     9     0     0
SMALL
NO_CHARGES


@<TRIPOS>ATOM
      1 CA          3.5010   27.3875    6.9515 C.3       3 GLC5        0.0000 
      2 CA          3.5190   28.0070    4.8130 C.3       9 GLL5        0.0000 
      3 CA          3.4830   26.7680    9.0900 C.3       6 GLP5        0.0000 
      4 CA          5.3835   26.9100    4.6150 C.3       3 GLC5        0.0000 
      5 CA          7.2480   25.8130    4.4170 C.3       6 GLP5        0.0000 
      6 CA          3.7550   28.0175    3.0075 C.3       3 GLC5        0.0000 
      7 CA          3.9910   28.0280    1.2020 C.3       6 GLP5        0.0000 
      8 CA          3.3700   31.5785    7.1020 C.3       3 GLC5        0.0000 
      9 CA          3.8230   30.3990    5.2650 C.3       9 GLL5        0.0000 
     10 CA          2.9170   32.7580    8.9390 C.3       6 GLP5        0.0000 
     11 CA          5.3720   30.6590    6.4070 C.3       3 GLC5        0.0000 
     12 CA          6.9210   30.9190    7.5490 C.3       6 GLP5        0.0000 
     13 CA          2.3420   32.2875    6.8955 C.3       3 GLC5        0.0000 
     14 CA          1.7670   31.8170    4.8520 C.3       9 GLL5        0.0000 
     15 CA         -3.1035   30.9930    3.9595 C.3       3 GLC5        0.0000 
     16 CA         -1.2120   31.9490    4.3540 C.3       9 GLL5        0.0000 
     17 CA         -4.9950   30.0370    3.5650 C.3       6 GLP5        0.0000 
     18 CA          3.6420   34.8870    4.4135 C.3       3 GLC5        0.0000 
     19 CA          1.8110   34.2000    3.8380 C.3       9 GLL5        0.0000 
     20 CA          5.4730   35.5740    4.9890 C.3       6 GLP5        0.0000 
     21 CA          0.6710   36.9695    3.1135 C.3       3 GLC5        0.0000 
     22 CA          0.6730   35.1680    3.4540 C.3       9 GLL5        0.0000 
     23 CA          0.6690   38.7710    2.7730 C.3       6 GLP5        0.0000 
     24 CA          0.6145   33.8290    7.6245 C.3       3 GLC5        0.0000 
     25 CA         -0.3650   33.7300    5.9160 C.3       9 GLL5        0.0000 
     26 CA          1.5940   33.9280    9.3330 C.3       6 GLP5        0.0000 
     27 CA         -1.0370   35.3135    6.6515 C.3       3 GLC5        0.0000 
     28 CA         -1.7090   36.8970    7.3870 C.3       6 GLP5        0.0000 
     29 CA          0.3300   29.9995    8.6440 C.3       3 GLC5        0.0000 
     30 CA          1.4100   29.4720    7.1130 C.3       9 GLL5        0.0000 
     31 CA         -0.7500   30.5270   10.1750 C.3       6 GLP5        0.0000 
     32 CA          2.1635   31.1150    8.0260 C.3       3 GLC5        0.0000 
     33 CA          1.0585   27.9845    8.2105 C.3       3 GLC5        0.0000 
     34 CA          0.7070   26.4970    9.3080 C.3       6 GLP5        0.0000 
     35 CA         -3.3435   34.9140    1.1110 C.3       3 GLC5        0.0000 
     36 CA         -3.1650   34.9130    3.0980 C.3       9 GLL5        0.0000 
     37 CA         -3.5220   34.9150   -0.8760 C.3       6 GLP5        0.0000 
     38 CA         -3.3580   36.4540    2.2935 C.3       3 GLC5        0.0000 
     39 CA         -3.5510   37.9950    1.4890 C.3       6 GLP5        0.0000 
     40 CA         -4.7720   35.8010    4.1400 C.3       3 GLC5        0.0000 
     41 CA         -6.3790   36.6890    5.1820 C.3       6 GLP5        0.0000 
     42 CA         -0.2310   30.3195    2.1950 C.3       3 GLC5        0.0000 
     43 CA          0.9290   30.1970    3.4330 C.3       9 GLL5        0.0000 
     44 CA         -1.3910   30.4420    0.9570 C.3       6 GLP5        0.0000 
     45 CA          2.7495   29.7395    2.3520 C.3       3 GLC5        0.0000 
     46 CA          4.5700   29.2820    1.2710 C.3       6 GLP5        0.0000 
     47 N           2.4990   24.4400    4.6470 N.am      2 SEC2        0.0000 
     48 N           3.2990   25.7240    4.2680 N.am      8 SEL2        0.0000 
     49 N           1.6990   23.1560    5.0260 N.am      5 SEP2        0.0000 
     50 O          -1.0375   34.5775    1.0060 O.2       1 ALC1        0.0000 
     51 O          -0.9230   33.7550    2.1860 O.2       7 ALL1        0.0000 
     52 O          -1.1520   35.4000   -0.1740 O.2       4 ALP1        0.0000 
     53 N          -5.1430   34.7350    3.2925 N.am      2 SEC2        0.0000 
     54 N          -4.1020   35.9810    3.2480 N.am      8 SEL2        0.0000 
     55 N          -6.1840   33.4890    3.3370 N.am      5 SEP2        0.0000 
     56 CA          0.7310   26.2188    3.6692 C.3       3 GLC5        0.0000 
     57 CA          0.6900   28.0530    5.1410 C.3       9 GLL5        0.0000 
     58 CA          0.4310   25.0580    2.1310 C.3       6 GLP5        0.0000 
     59 CA         -0.8620   27.1583    5.8438 C.3       3 GLC5        0.0000 
     60 CA          1.3720   26.7060    5.2740 C.3       9 GLL5        0.0000 
     61 CA         -2.7550   26.9370    6.4800 C.3       6 GLP5        0.0000 
     62 CA          0.8690   26.9383    7.2577 C.3       3 GLC5        0.0000 
     63 CA          4.7575   32.3713    5.7310 C.3       3 GLC5        0.0000 
     64 CA          6.0020   33.7760    6.6230 C.3       6 GLP5        0.0000 
     65 CA          3.9361   29.9696    3.0460 C.3       3 GLC5        0.0000 
     66 CA          3.2030   31.5340    4.4130 C.3       9 GLL5        0.0000 
     67 CA         -1.1498   30.8885    2.8355 C.3       3 GLC5        0.0000 
     68 CA         -0.6050   30.7210    5.0740 C.3       9 GLL5        0.0000 
     69 CA          2.3385   35.2810    2.2440 C.3       3 GLC5        0.0000 
     70 CA          3.4350   35.8780    0.8420 C.3       6 GLP5        0.0000 
@<TRIPOS>BOND
@<TRIPOS>SUBSTRUCTURE
     1 ALC1       50 GROUP        1 X    ALC  0     ROOT ALC X 1
     2 SEC2       47 GROUP        1 X    SEC  0     **** SEC X 2
     3 GLC5        1 GROUP        1 X    GLC  0     **** GLC X 6
     4 ALP1       52 GROUP        1 Y    ALP  0     ROOT ALP Y 8
     5 SEP2       49 GROUP        1 Y    SEP  0     **** SEP Y 9
     6 GLP5        3 GROUP        1 Y    GLP  0     **** GLP Y 13
     7 ALL1       51 GROUP        1 Z    ALL  0     ROOT ALL Z 15
     8 SEL2       48 GROUP        1 Z    SEL  0     **** SEL Z 16
     9 GLL5        2 GROUP        1 Z    GLL  0     **** GLL Z 20
@<TRIPOS>SET

