#    Name: 1gs4_ZK5_1_ligand
#    Modification time : Tue Mar 25 03:42:00 2014

@<TRIPOS>MOLECULE
1gs4_ZK5_1_ligand
   56    59     1     0     0
SMALL
NO_CHARGES


@<TRIPOS>ATOM
      1 C2          1.3720   26.7060    5.2740 C.3       1 ZK51918     0.0000 
      2 C3          2.7780   26.7290    4.7450 C.2       1 ZK51918     0.0000 
      3 C4          3.5190   28.0070    4.8130 C.2       1 ZK51918     0.0000 
      4 C5          2.9800   29.1620    5.1930 C.2       1 ZK51918     0.0000 
      5 C6          3.8230   30.3990    5.2650 C.3       1 ZK51918     0.0000 
      6 C7          3.2030   31.5340    4.4130 C.3       1 ZK51918     0.0000 
      7 C1          0.6900   28.0530    5.1410 C.3       1 ZK51918     0.0000 
      8 C8          1.7670   31.8170    4.8520 C.3       1 ZK51918     0.0000 
      9 C9          0.9080   30.5290    4.8440 C.3       1 ZK51918     0.0000 
     10 C10         1.5090   29.3080    5.5750 C.3       1 ZK51918     0.0000 
     11 C11        -0.6050   30.7210    5.0740 C.3       1 ZK51918     0.0000 
     12 C12        -1.2120   31.9490    4.3540 C.3       1 ZK51918     0.0000 
     13 C13        -0.3460   33.2200    4.4540 C.3       1 ZK51918     0.0000 
     14 C14         1.0760   32.8520    3.9860 C.3       1 ZK51918     0.0000 
     15 C15         1.8110   34.2000    3.8380 C.3       1 ZK51918     0.0000 
     16 C16         0.6730   35.1680    3.4540 C.3       1 ZK51918     0.0000 
     17 C17        -0.6500   34.3510    3.4460 C.3       1 ZK51918     0.0000 
     18 C18        -0.3650   33.7300    5.9160 C.3       1 ZK51918     0.0000 
     19 C19         1.4100   29.4720    7.1130 C.3       1 ZK51918     0.0000 
     20 C20        -1.8790   35.1990    3.8180 C.2       1 ZK51918     0.0000 
     21 C21        -3.1650   34.9130    3.0980 C.3       1 ZK51918     0.0000 
     22 F9          0.9290   30.1970    3.4330 F         1 ZK51918     0.0000 
     23 O1          3.2990   25.7240    4.2680 O.2       1 ZK51918     0.0000 
     24 O2         -0.8420   30.7650    6.4570 O.3       1 ZK51918     0.0000 
     25 O3         -0.9230   33.7550    2.1860 O.3       1 ZK51918     0.0000 
     26 O4         -1.8120   36.0590    4.6470 O.2       1 ZK51918     0.0000 
     27 O5         -4.1020   35.9810    3.2480 O.3       1 ZK51918     0.0000 
     28 H           1.3827   26.4135    6.3327 H         1 ZK51918     0.0000 
     29 H           0.7867   25.9533    4.7286 H         1 ZK51918     0.0000 
     30 H           4.5330   27.9355    4.5310 H         1 ZK51918     0.0000 
     31 H           4.8247   30.1964    4.8880 H         1 ZK51918     0.0000 
     32 H           3.8979   30.7461    6.2948 H         1 ZK51918     0.0000 
     33 H           3.2123   31.2328    3.3696 H         1 ZK51918     0.0000 
     34 H           3.8043   32.4303    4.5340 H         1 ZK51918     0.0000 
     35 H          -0.2554   28.0474    5.7305 H         1 ZK51918     0.0000 
     36 H           0.3767   28.2048    4.0826 H         1 ZK51918     0.0000 
     37 H           1.7789   32.1840    5.8800 H         1 ZK51918     0.0000 
     38 H          -1.0983   29.8224    4.6437 H         1 ZK51918     0.0000 
     39 H          -2.2006   32.1565    4.7847 H         1 ZK51918     0.0000 
     40 H          -1.3577   31.6994    3.2946 H         1 ZK51918     0.0000 
     41 H           0.9590   32.4525    2.9583 H         1 ZK51918     0.0000 
     42 H           2.5074   34.1403    3.0504 H         1 ZK51918     0.0000 
     43 H           2.2215   34.4844    4.7650 H         1 ZK51918     0.0000 
     44 H           0.8493   35.5593    2.4739 H         1 ZK51918     0.0000 
     45 H           0.6004   35.9456    4.1853 H         1 ZK51918     0.0000 
     46 H          -3.5768   33.9636    3.4901 H         1 ZK51918     0.0000 
     47 H          -2.9314   34.7348    2.0311 H         1 ZK51918     0.0000 
     48 H           0.0005   33.0498    6.5514 H         1 ZK51918     0.0000 
     49 H           0.1828   34.5592    6.0272 H         1 ZK51918     0.0000 
     50 H          -1.2920   33.9480    6.2213 H         1 ZK51918     0.0000 
     51 H           1.7893   28.6827    7.5958 H         1 ZK51918     0.0000 
     52 H           1.9073   30.2783    7.4333 H         1 ZK51918     0.0000 
     53 H           0.4622   29.5729    7.4155 H         1 ZK51918     0.0000 
     54 H          -1.8164   30.9716    6.5460 H         1 ZK51918     0.0000 
     55 H          -1.2263   34.5091    1.6034 H         1 ZK51918     0.0000 
     56 H          -3.7606   36.5182    4.0194 H         1 ZK51918     0.0000 
@<TRIPOS>BOND
     1    2    1 1    
     2    7    1 1    
     3   28    1 1    
     4   29    1 1    
     5    3    2 1    
     6   23    2 2    
     7    4    3 2    
     8   30    3 1    
     9    5    4 1    
    10   10    4 1    
    11    6    5 1    
    12   31    5 1    
    13   32    5 1    
    14    8    6 1    
    15   33    6 1    
    16   34    6 1    
    17   10    7 1    
    18   35    7 1    
    19   36    7 1    
    20    9    8 1    
    21   14    8 1    
    22   37    8 1    
    23   10    9 1    
    24   11    9 1    
    25   22    9 1    
    26   19   10 1    
    27   12   11 1    
    28   24   11 1    
    29   38   11 1    
    30   13   12 1    
    31   39   12 1    
    32   40   12 1    
    33   14   13 1    
    34   17   13 1    
    35   18   13 1    
    36   15   14 1    
    37   41   14 1    
    38   16   15 1    
    39   42   15 1    
    40   43   15 1    
    41   17   16 1    
    42   44   16 1    
    43   45   16 1    
    44   20   17 1    
    45   25   17 1    
    46   48   18 1    
    47   49   18 1    
    48   50   18 1    
    49   51   19 1    
    50   52   19 1    
    51   53   19 1    
    52   21   20 1    
    53   26   20 2    
    54   27   21 1    
    55   46   21 1    
    56   47   21 1    
    57   54   24 1    
    58   55   25 1    
    59   56   27 1    
@<TRIPOS>SUBSTRUCTURE
     1 ZK51918     1 GROUP   
@<TRIPOS>SET

