#    Name: 2b37_8PS_1_INTS_M
#    Modification time : Mon Mar 24 19:50:47 2014

@<TRIPOS>MOLECULE
2b37_8PS_1_INTS_M
   63     0     9     0     0
SMALL
NO_CHARGES


@<TRIPOS>ATOM
      1 CA         31.8625   27.6815  103.3215 C.3       3 GLC5        0.0000 
      2 CA         30.3110   28.6620  104.1160 C.3       9 GLL5        0.0000 
      3 CA         33.4140   26.7010  102.5270 C.3       6 GLP5        0.0000 
      4 CA         31.2420   27.4480  102.1310 C.3       3 GLC5        0.0000 
      5 CA         29.8070   27.6800  103.2600 C.3       9 GLL5        0.0000 
      6 CA         32.6770   27.2160  101.0020 C.3       6 GLP5        0.0000 
      7 CA         30.6415   26.0885  102.1170 C.3       3 GLC5        0.0000 
      8 CA         29.5280   26.4140  103.7700 C.3       9 GLL5        0.0000 
      9 CA         31.7550   25.7630  100.4640 C.3       6 GLP5        0.0000 
     10 CA         27.4875   19.0775  102.5180 C.3       3 GLC5        0.0000 
     11 CA         26.7350   20.6200  103.3840 C.3       9 GLL5        0.0000 
     12 CA         28.2400   17.5350  101.6520 C.3       6 GLP5        0.0000 
     13 CA         25.7705   18.9925  104.3785 C.3       3 GLC5        0.0000 
     14 CA         24.8060   17.3650  105.3730 C.3       6 GLP5        0.0000 
     15 CA         27.5780   22.1540  100.8180 C.3       3 GLC5        0.0000 
     16 CA         26.3550   21.2010  102.0160 C.3       9 GLL5        0.0000 
     17 CA         28.8010   23.1070   99.6200 C.3       6 GLP5        0.0000 
     18 CA         21.7520   21.1405   99.2025 C.3       3 GLC5        0.0000 
     19 CA         23.4450   19.9430   98.4470 C.3       9 GLL5        0.0000 
     20 CA         20.0590   22.3380   99.9580 C.3       6 GLP5        0.0000 
     21 CA         22.7465   18.9550   95.4285 C.3       3 GLC5        0.0000 
     22 CA         22.9230   19.0430   97.2910 C.3       9 GLL5        0.0000 
     23 CA         22.5700   18.8670   93.5660 C.3       6 GLP5        0.0000 
     24 CA         23.0965   21.2285   96.8850 C.3       3 GLC5        0.0000 
     25 CA         23.2700   23.4140   96.4790 C.3       6 GLP5        0.0000 
     26 CA         23.6410   17.9460   95.4665 C.3       3 GLC5        0.0000 
     27 CA         23.3190   17.5860   97.4980 C.3       9 GLL5        0.0000 
     28 CA         23.9630   18.3060   93.4350 C.3       6 GLP5        0.0000 
     29 N          31.8210   23.8100  104.9670 N.am      2 SEC2        0.0000 
     30 N          30.8240   23.1580  104.2920 N.am      8 SEL2        0.0000 
     31 N          32.8180   24.4620  105.6420 N.am      5 SEP2        0.0000 
     32 O          31.2740   22.9680  103.0305 O.2       1 ALC1        0.0000 
     33 O          30.8240   23.1580  104.2920 O.2       7 ALL1        0.0000 
     34 O          31.7240   22.7780  101.7690 O.2       4 ALP1        0.0000 
     35 CA         30.5482   21.0135  103.4262 C.3       3 GLC5        0.0000 
     36 CA         29.4900   23.0070  104.3410 C.3       9 GLL5        0.0000 
     37 CA         31.9380   19.5810  102.7600 C.3       6 GLP5        0.0000 
     38 CA         30.7355   23.9463  105.8597 C.3       3 GLC5        0.0000 
     39 CA         32.3780   24.4050  106.9790 C.3       6 GLP5        0.0000 
     40 CA         31.1288   25.5392  106.2800 C.3       3 GLC5        0.0000 
     41 CA         29.5890   26.1990  105.1720 C.3       9 GLL5        0.0000 
     42 CA         31.4232   29.9640  104.3075 C.3       3 GLC5        0.0000 
     43 CA         30.4540   28.4120  105.4840 C.3       9 GLL5        0.0000 
     44 CA         32.4640   31.3910  103.8150 C.3       6 GLP5        0.0000 
     45 CA         32.1957   28.4475  105.4332 C.3       3 GLC5        0.0000 
     46 CA         34.0800   28.6740  105.9400 C.3       6 GLP5        0.0000 
     47 CA         28.4648   26.8755  102.2700 C.3       3 GLC5        0.0000 
     48 CA         27.2620   26.7040  101.0250 C.3       6 GLP5        0.0000 
     49 CA         24.7722   18.9195  100.7730 C.3       3 GLC5        0.0000 
     50 CA         25.6440   20.2320  101.1220 C.3       9 GLL5        0.0000 
     51 CA         23.9950   17.2930  101.1190 C.3       6 GLP5        0.0000 
     52 CA         27.3046   19.5751  100.6877 C.3       3 GLC5        0.0000 
     53 CA         25.4550   20.8600   99.7320 C.3       9 GLL5        0.0000 
     54 CA         28.8820   18.3620  100.7250 C.3       6 GLP5        0.0000 
     55 CA         26.5825   19.3710   98.1412 C.3       3 GLC5        0.0000 
     56 CA         27.9250   18.3550   97.1170 C.3       6 GLP5        0.0000 
     57 CA         26.7695   21.3515   98.2468 C.3       3 GLC5        0.0000 
     58 CA         25.0250   19.9140   98.5990 C.3       9 GLL5        0.0000 
     59 CA         28.2990   22.3160   97.3280 C.3       6 GLP5        0.0000 
     60 CA         23.7525   21.6713   97.5010 C.3       3 GLC5        0.0000 
     61 CA         24.1150   18.6108   99.8210 C.3       3 GLC5        0.0000 
     62 CA         22.5100   17.2653   98.8293 C.3       3 GLC5        0.0000 
     63 CA         21.8990   16.2160  100.2640 C.3       6 GLP5        0.0000 
@<TRIPOS>BOND
@<TRIPOS>SUBSTRUCTURE
     1 ALC1       32 GROUP        1 X    ALC  0     ROOT ALC X 1
     2 SEC2       29 GROUP        1 X    SEC  0     **** SEC X 2
     3 GLC5        1 GROUP        1 X    GLC  0     **** GLC X 6
     4 ALP1       34 GROUP        1 Y    ALP  0     ROOT ALP Y 8
     5 SEP2       31 GROUP        1 Y    SEP  0     **** SEP Y 9
     6 GLP5        3 GROUP        1 Y    GLP  0     **** GLP Y 13
     7 ALL1       33 GROUP        1 Z    ALL  0     ROOT ALL Z 15
     8 SEL2       30 GROUP        1 Z    SEL  0     **** SEL Z 16
     9 GLL5        2 GROUP        1 Z    GLL  0     **** GLL Z 20
@<TRIPOS>SET

