#    Name: 2b37_8PS_1_ligand
#    Modification time : Mon Mar 24 19:50:47 2014

@<TRIPOS>MOLECULE
2b37_8PS_1_ligand
   48    49     1     0     0
SMALL
NO_CHARGES


@<TRIPOS>ATOM
      1 C1         28.8270   21.8850  103.8440 C.ar      1 8PS300      0.0000 
      2 C2         27.4720   21.7100  104.0950 C.ar      1 8PS300      0.0000 
      3 C3         26.7060   22.6890  104.7430 C.ar      1 8PS300      0.0000 
      4 C4         27.3380   23.7400  105.3870 C.ar      1 8PS300      0.0000 
      5 C5         28.6960   23.9680  105.1400 C.ar      1 8PS300      0.0000 
      6 C6         29.4900   23.0070  104.3410 C.ar      1 8PS300      0.0000 
      7 C8         29.5890   26.1990  105.1720 C.ar      1 8PS300      0.0000 
      8 C9         30.1700   27.1480  105.9900 C.ar      1 8PS300      0.0000 
      9 C10        30.4540   28.4120  105.4840 C.ar      1 8PS300      0.0000 
     10 C11        30.3110   28.6620  104.1160 C.ar      1 8PS300      0.0000 
     11 C12        29.8070   27.6800  103.2600 C.ar      1 8PS300      0.0000 
     12 C13        29.5280   26.4140  103.7700 C.ar      1 8PS300      0.0000 
     13 C14        26.7350   20.6200  103.3840 C.3       1 8PS300      0.0000 
     14 C15        26.3550   21.2010  102.0160 C.3       1 8PS300      0.0000 
     15 C16        25.6440   20.2320  101.1220 C.3       1 8PS300      0.0000 
     16 C17        25.4550   20.8600   99.7320 C.3       1 8PS300      0.0000 
     17 C18        25.0250   19.9140   98.5990 C.3       1 8PS300      0.0000 
     18 C19        23.4450   19.9430   98.4470 C.3       1 8PS300      0.0000 
     19 C20        22.9230   19.0430   97.2910 C.3       1 8PS300      0.0000 
     20 C21        23.3190   17.5860   97.4980 C.3       1 8PS300      0.0000 
     21 O17        30.8240   23.1580  104.2920 O.3       1 8PS300      0.0000 
     22 O7         29.4020   24.9700  105.7430 O.3       1 8PS300      0.0000 
     23 H          29.3437   21.1885  103.2918 H         1 8PS300      0.0000 
     24 H          25.6831   22.6208  104.7361 H         1 8PS300      0.0000 
     25 H          26.8264   24.3423  106.0329 H         1 8PS300      0.0000 
     26 H          30.3930   26.9257  106.9681 H         1 8PS300      0.0000 
     27 H          30.7679   29.1613  106.1105 H         1 8PS300      0.0000 
     28 H          30.5807   29.5815  103.7352 H         1 8PS300      0.0000 
     29 H          29.6458   27.8889  102.2740 H         1 8PS300      0.0000 
     30 H          29.2814   25.6420  103.1528 H         1 8PS300      0.0000 
     31 H          25.8414   20.3615  103.9140 H         1 8PS300      0.0000 
     32 H          27.3688   19.7696  103.2383 H         1 8PS300      0.0000 
     33 H          27.2769   21.5566  101.5221 H         1 8PS300      0.0000 
     34 H          25.7209   22.0904  102.1809 H         1 8PS300      0.0000 
     35 H          24.6675   19.9906  101.5303 H         1 8PS300      0.0000 
     36 H          26.2258   19.3216  101.0162 H         1 8PS300      0.0000 
     37 H          26.4061   21.3560   99.4360 H         1 8PS300      0.0000 
     38 H          24.7049   21.6780   99.8128 H         1 8PS300      0.0000 
     39 H          25.3200   18.9042   98.8285 H         1 8PS300      0.0000 
     40 H          25.4563   20.2346   97.6660 H         1 8PS300      0.0000 
     41 H          23.1421   20.9742   98.2661 H         1 8PS300      0.0000 
     42 H          23.0090   19.6095   99.3886 H         1 8PS300      0.0000 
     43 H          23.3404   19.4078   96.3540 H         1 8PS300      0.0000 
     44 H          21.8382   19.1270   97.2510 H         1 8PS300      0.0000 
     45 H          24.3117   17.4735   97.5414 H         1 8PS300      0.0000 
     46 H          22.9447   17.2167   98.3486 H         1 8PS300      0.0000 
     47 H          22.9901   17.0026   96.7554 H         1 8PS300      0.0000 
     48 H          31.0629   23.0366  103.3286 H         1 8PS300      0.0000 
@<TRIPOS>BOND
     1    2    1 ar   
     2    6    1 ar   
     3   23    1 1    
     4    3    2 ar   
     5   13    2 1    
     6    4    3 ar   
     7   24    3 1    
     8    5    4 ar   
     9   25    4 1    
    10    6    5 ar   
    11   22    5 1    
    12   21    6 1    
    13    8    7 ar   
    14   12    7 ar   
    15   22    7 1    
    16    9    8 ar   
    17   26    8 1    
    18   10    9 ar   
    19   27    9 1    
    20   11   10 ar   
    21   28   10 1    
    22   12   11 ar   
    23   29   11 1    
    24   30   12 1    
    25   14   13 1    
    26   31   13 1    
    27   32   13 1    
    28   15   14 1    
    29   33   14 1    
    30   34   14 1    
    31   16   15 1    
    32   35   15 1    
    33   36   15 1    
    34   17   16 1    
    35   37   16 1    
    36   38   16 1    
    37   18   17 1    
    38   39   17 1    
    39   40   17 1    
    40   19   18 1    
    41   41   18 1    
    42   42   18 1    
    43   20   19 1    
    44   43   19 1    
    45   44   19 1    
    46   45   20 1    
    47   46   20 1    
    48   47   20 1    
    49   48   21 1    
@<TRIPOS>SUBSTRUCTURE
     1 8PS300      1 GROUP   
@<TRIPOS>SET

