#    Name: 1w78_PD8_1_INTS_M
#    Modification time : Tue Mar 25 08:45:25 2014

@<TRIPOS>MOLECULE
1w78_PD8_1_INTS_M
   64     0    15     0     0
SMALL
NO_CHARGES


@<TRIPOS>ATOM
      1 N          -9.3535   15.0650   22.9435 N.am      2 SEC2        0.0000 
      2 N          -8.6850   16.0140   23.9100 N.am     12 SEL2        0.0000 
      3 N         -10.0220   14.1160   21.9770 N.am      7 SEP2        0.0000 
      4 N          -9.0130   15.7180   25.4260 N.am      2 SEC2        0.0000 
      5 N          -9.3410   15.4220   26.9420 N.am      7 SEP2        0.0000 
      6 O          -7.8115   18.1360   22.0900 O.2       1 ALC1        0.0000 
      7 O          -7.0690   17.0500   22.6580 O.2      11 ALL1        0.0000 
      8 O          -8.5540   19.2220   21.5220 O.2       6 ALP1        0.0000 
      9 O          -7.0520   18.6735   21.4185 O.2       1 ALC1        0.0000 
     10 O          -5.5500   18.1250   21.3150 O.2      11 ALL1        0.0000 
     11 O          -4.3865   17.5870   20.5005 O.2       1 ALC1        0.0000 
     12 O          -3.2230   17.0490   19.6860 O.2       6 ALP1        0.0000 
     13 N          -3.6615   17.8400   22.9355 N.am      2 SEC2        0.0000 
     14 N          -4.7550   16.7740   23.0430 N.am     12 SEL2        0.0000 
     15 N          -2.5680   18.9060   22.8280 N.am      7 SEP2        0.0000 
     16 CA         -3.2295   16.4810   22.9335 C.3       5 GLC5        0.0000 
     17 CA         -5.0470   15.9510   24.0830 C.3      15 GLL5        0.0000 
     18 CA         -1.4120   17.0110   21.7840 C.3      10 GLP5        0.0000 
     19 CA         -4.6750   14.0590   23.7375 C.3       5 GLC5        0.0000 
     20 CA         -4.3740   14.5200   25.9130 C.3      15 GLL5        0.0000 
     21 CA         -4.9760   13.5980   21.5620 C.3      10 GLP5        0.0000 
     22 CA         -2.5175   14.7235   26.6865 C.3       5 GLC5        0.0000 
     23 CA         -0.6610   14.9270   27.4600 C.3      10 GLP5        0.0000 
     24 CA         -3.2625   13.0920   25.2900 C.3       5 GLC5        0.0000 
     25 CA         -2.1510   11.6640   24.6670 C.3      10 GLP5        0.0000 
     26 CA         -6.7805   13.1765   24.8365 C.3       5 GLC5        0.0000 
     27 CA         -5.7150   14.2930   26.2600 C.3      15 GLL5        0.0000 
     28 CA         -7.8460   12.0600   23.4130 C.3      10 GLP5        0.0000 
     29 CA         -7.4995   12.4210   26.5615 C.3       5 GLC5        0.0000 
     30 CA         -6.1440   13.4220   27.4320 C.3      15 GLL5        0.0000 
     31 CA         -8.8550   11.4200   25.6910 C.3      10 GLP5        0.0000 
     32 CA         -1.7335   11.7725   32.4825 C.3       5 GLC5        0.0000 
     33 CA         -2.4890   12.1270   30.4380 C.3      15 GLL5        0.0000 
     34 CA         -0.9780   11.4180   34.5270 C.3      10 GLP5        0.0000 
     35 Zn         -0.1735    8.5430   29.1285 Zn        4 ZIC7        0.0000 
     36 Zn         -1.1310    8.9000   29.6360 Zn       14 ZIL7        0.0000 
     37 Zn          0.7840    8.1860   28.6210 Zn        9 ZIP7        0.0000 
     38 N          -8.0020   15.1345   26.2285 N.am      2 SEC2        0.0000 
     39 N          -6.6630   14.8470   25.5150 N.am     12 SEL2        0.0000 
     40 CA         -7.1010   13.8505   23.9425 C.3       5 GLC5        0.0000 
     41 CA         -6.3560   15.6410   24.4720 C.3      15 GLL5        0.0000 
     42 NZ          2.8170    9.7380   29.7540 N.4       3 LYC4        0.0000 
     43 NZ          1.6250    9.1140   30.2670 N.4      13 LYL4        0.0000 
     44 NZ          4.0090   10.3620   29.2410 N.4       8 LYP4        0.0000 
     45 Zn          1.2045    8.6500   29.4440 Zn        4 ZIC7        0.0000 
     46 Zn          1.6250    9.1140   30.2670 Zn       14 ZIL7        0.0000 
     47 N           2.8170    9.7380   29.7540 N.am      2 SEC2        0.0000 
     48 N           1.6250    9.1140   30.2670 N.am     12 SEL2        0.0000 
     49 N           4.0090   10.3620   29.2410 N.am      7 SEP2        0.0000 
     50 NZ          3.0300   10.7305   30.5275 N.4       3 LYC4        0.0000 
     51 NZ          2.0510   11.0990   31.8140 N.4      13 LYL4        0.0000 
     52 Zn          2.3960   11.6415   32.5675 Zn        4 ZIC7        0.0000 
     53 Zn          2.0510   11.0990   31.8140 Zn       14 ZIL7        0.0000 
     54 Zn          2.7410   12.1840   33.3210 Zn        9 ZIP7        0.0000 
     55 CA         -5.3388   14.6970   22.9198 C.3       5 GLC5        0.0000 
     56 CA         -6.1978   16.4885   26.0407 C.3       5 GLC5        0.0000 
     57 CA         -6.6940   17.1810   27.8040 C.3      10 GLP5        0.0000 
     58 CA         -6.1441   15.5476   27.2816 C.3       5 GLC5        0.0000 
     59 CA         -2.2470   14.0617   31.4663 C.3       5 GLC5        0.0000 
     60 CA         -3.4830   13.0520   30.1310 C.3      15 GLL5        0.0000 
     61 CA         -1.5080   15.5340   32.6480 C.3      10 GLP5        0.0000 
     62 CA         -1.8235   13.7583   28.8723 C.3       5 GLC5        0.0000 
     63 CA         -2.9267   11.3833   26.5660 C.3       5 GLC5        0.0000 
     64 CA         -4.2020   11.5610   28.3070 C.3      15 GLL5        0.0000 
@<TRIPOS>BOND
@<TRIPOS>SUBSTRUCTURE
     1 ALC1        6 GROUP        1 X    ALC  0     ROOT ALC X 1
     2 SEC2        1 GROUP        1 X    SEC  0     **** SEC X 2
     3 LYC4       42 GROUP        1 X    LYC  0     **** LYC X 4
     4 ZIC7       35 GROUP        1 X    ZIC  0     **** ZIC X 5
     5 GLC5       16 GROUP        1 X    GLC  0     **** GLC X 6
     6 ALP1        8 GROUP        1 Y    ALP  0     ROOT ALP Y 8
     7 SEP2        3 GROUP        1 Y    SEP  0     **** SEP Y 9
     8 LYP4       44 GROUP        1 Y    LYP  0     **** LYP Y 11
     9 ZIP7       37 GROUP        1 Y    ZIP  0     **** ZIP Y 12
    10 GLP5       18 GROUP        1 Y    GLP  0     **** GLP Y 13
    11 ALL1        7 GROUP        1 Z    ALL  0     ROOT ALL Z 15
    12 SEL2        2 GROUP        1 Z    SEL  0     **** SEL Z 16
    13 LYL4       43 GROUP        1 Z    LYL  0     **** LYL Z 18
    14 ZIL7       36 GROUP        1 Z    ZIL  0     **** ZIL Z 19
    15 GLL5       17 GROUP        1 Z    GLL  0     **** GLL Z 20
@<TRIPOS>SET

