#    Name: 1w78_PD8_1_ligand
#    Modification time : Tue Mar 25 08:45:25 2014

@<TRIPOS>MOLECULE
1w78_PD8_1_ligand
   38    40     1     0     0
SMALL
NO_CHARGES


@<TRIPOS>ATOM
      1 O1         -8.6850   16.0140   23.9100 O.2       1 PD81421     0.0000 
      2 C2         -7.4900   16.2110   23.7080 C.2       1 PD81421     0.0000 
      3 N3         -7.0690   17.0500   22.6580 N.am      1 PD81421     0.0000 
      4 C4         -5.7520   17.2930   22.3780 C.2       1 PD81421     0.0000 
      5 N5         -5.5500   18.1250   21.3150 N.pl3     1 PD81421     0.0000 
      6 N6         -4.7550   16.7740   23.0430 N.2       1 PD81421     0.0000 
      7 C7         -5.0470   15.9510   24.0830 C.ar      1 PD81421     0.0000 
      8 N8         -4.0660   15.3420   24.8360 N.ar      1 PD81421     0.0000 
      9 C9         -4.3740   14.5200   25.9130 C.ar      1 PD81421     0.0000 
     10 C10        -5.7150   14.2930   26.2600 C.ar      1 PD81421     0.0000 
     11 C11        -6.1440   13.4220   27.4320 C.3       1 PD81421     0.0000 
     12 N12        -5.4190   13.6970   28.6760 N.pl3     1 PD81421     0.0000 
     13 C13        -4.3650   12.7920   29.0490 C.ar      1 PD81421     0.0000 
     14 C14        -3.4830   13.0520   30.1310 C.ar      1 PD81421     0.0000 
     15 C15        -2.4890   12.1270   30.4380 C.ar      1 PD81421     0.0000 
     16 C16        -2.3370   10.9290   29.7090 C.ar      1 PD81421     0.0000 
     17 C17        -1.2370   10.0190   30.0970 C.2       1 PD81421     0.0000 
     18 O19        -1.1310    8.9000   29.6360 O.2       1 PD81421     0.0000 
     19 C20        -3.2030   10.6440   28.6230 C.ar      1 PD81421     0.0000 
     20 C21        -4.2020   11.5610   28.3070 C.ar      1 PD81421     0.0000 
     21 N22        -6.6630   14.8470   25.5150 N.ar      1 PD81421     0.0000 
     22 C23        -6.3560   15.6410   24.4720 C.ar      1 PD81421     0.0000 
     23 P23         1.0400    9.9270   31.4120 P.3       1 PD81421     0.0000 
     24 O24         1.6250    9.1140   30.2670 O.co2     1 PD81421     0.0000 
     25 O25         0.7940    9.0550   32.6050 O.co2     1 PD81421     0.0000 
     26 O26         2.0510   11.0990   31.8140 O.co2     1 PD81421     0.0000 
     27 O27        -0.3430   10.6510   31.0050 O.3       1 PD81421     0.0000 
     28 H          -7.8143   17.5030   22.0715 H         1 PD81421     0.0000 
     29 H          -6.2368   18.8390   21.1782 H         1 PD81421     0.0000 
     30 H          -4.7330   17.9475   20.7664 H         1 PD81421     0.0000 
     31 H          -3.6266   14.0764   26.4581 H         1 PD81421     0.0000 
     32 H          -6.0124   12.3598   27.1372 H         1 PD81421     0.0000 
     33 H          -7.2347   13.5626   27.5837 H         1 PD81421     0.0000 
     34 H          -5.6563   14.4823   29.2318 H         1 PD81421     0.0000 
     35 H          -3.5869   13.9103   30.6694 H         1 PD81421     0.0000 
     36 H          -1.8379   12.3167   31.2234 H         1 PD81421     0.0000 
     37 H          -3.0875    9.7864   28.0944 H         1 PD81421     0.0000 
     38 H          -4.8533   11.3793   27.5289 H         1 PD81421     0.0000 
@<TRIPOS>BOND
     1    2    1 2    
     2    3    2 am   
     3   22    2 1    
     4    4    3 1    
     5   28    3 1    
     6    5    4 1    
     7    6    4 2    
     8   29    5 1    
     9   30    5 1    
    10    7    6 1    
    11    8    7 ar   
    12   22    7 ar   
    13    9    8 ar   
    14   10    9 ar   
    15   31    9 1    
    16   11   10 1    
    17   21   10 ar   
    18   12   11 1    
    19   32   11 1    
    20   33   11 1    
    21   13   12 1    
    22   34   12 1    
    23   14   13 ar   
    24   20   13 ar   
    25   15   14 ar   
    26   35   14 1    
    27   16   15 ar   
    28   36   15 1    
    29   17   16 1    
    30   19   16 ar   
    31   18   17 2    
    32   27   17 1    
    33   20   19 ar   
    34   37   19 1    
    35   38   20 1    
    36   22   21 ar   
    37   24   23 ar   
    38   25   23 ar   
    39   26   23 ar   
    40   27   23 1    
@<TRIPOS>SUBSTRUCTURE
     1 PD81421     1 GROUP   
@<TRIPOS>SET

