#    Name: 1H2H_1_CAVITY_N1_ALL.mol2
#    Modification time : Tue Mar 11 03:50:10 2014

@<TRIPOS>MOLECULE
1H2H_1_CAVITY_N1_ALL.mol2
   68     0     5     0     0
SMALL
NO_CHARGES


@<TRIPOS>ATOM
      1 N          42.7146   -9.3365  102.5001 N.2       2 ALA2        0.0000 
      2 CA         42.3974   -6.7962  106.4934 C.3       4 GLY6        0.0000 
      3 DU         41.7061   -6.4378  104.5201 H         5 CUB7        0.0000 
      4 N          42.8116   -7.2512  105.1254 N.2       2 ALA2        0.0000 
      5 DU         42.1203   -6.8928  103.1521 H         5 CUB7        0.0000 
      6 N          43.2258   -7.7062  103.7573 N.2       2 ALA2        0.0000 
      7 DU         42.5345   -7.3478  101.7841 H         5 CUB7        0.0000 
      8 N          43.6400   -8.1611  102.3893 N.2       2 ALA2        0.0000 
      9 CA         41.8431   -6.9894   99.8109 C.3       4 GLY6        0.0000 
     10 CA         42.9487   -7.8028  100.4161 C.3       4 GLY6        0.0000 
     11 CA         44.0542   -8.6161  101.0213 C.3       4 GLY6        0.0000 
     12 CA         43.3228   -5.6209  106.3826 C.3       4 GLY6        0.0000 
     13 N          40.4204   -3.6358  103.1989 N.2       2 ALA2        0.0000 
     14 N          41.5259   -4.4491  103.8042 N.2       2 ALA2        0.0000 
     15 N          42.6314   -5.2625  104.4094 N.2       2 ALA2        0.0000 
     16 OG         43.7369   -6.0758  105.0146 O.2       1 SER1        0.0000 
     17 DU         41.9401   -4.9041  102.4362 H         5 CUB7        0.0000 
     18 DU         43.0456   -5.7175  103.0414 H         5 CUB7        0.0000 
     19 OG         44.1511   -6.5308  103.6466 O.2       1 SER1        0.0000 
     20 DU         42.3543   -5.3591  101.0682 H         5 CUB7        0.0000 
     21 CA         43.4598   -6.1724  101.6734 C.3       4 GLY6        0.0000 
     22 OG         44.5653   -6.9858  102.2786 O.2       1 SER1        0.0000 
     23 CA         42.7685   -5.8141   99.7001 C.3       4 GLY6        0.0000 
     24 CA         44.9795   -7.4408  100.9106 C.3       4 GLY6        0.0000 
     25 OD1        42.0772   -5.4557   97.7269 O.3       3 ASP3        0.0000 
     26 CA         41.3457   -2.4604  103.0882 C.3       4 GLY6        0.0000 
     27 N          42.4513   -3.2738  103.6934 N.2       2 ALA2        0.0000 
     28 N          43.5568   -4.0871  104.2987 N.2       2 ALA2        0.0000 
     29 N          44.6623   -4.9005  104.9039 N.2       2 ALA2        0.0000 
     30 DU         41.7599   -2.9154  101.7202 H         5 CUB7        0.0000 
     31 DU         42.8655   -3.7288  102.3254 H         5 CUB7        0.0000 
     32 N          43.9710   -4.5421  102.9307 N.2       2 ALA2        0.0000 
     33 OG         45.0765   -5.3554  103.5359 O.2       1 SER1        0.0000 
     34 DU         42.1741   -3.3704  100.3522 H         5 CUB7        0.0000 
     35 DU         43.2796   -4.1837  100.9574 H         5 CUB7        0.0000 
     36 DU         44.3852   -4.9971  101.5626 H         5 CUB7        0.0000 
     37 CA         45.4907   -5.8104  102.1679 C.3       4 GLY6        0.0000 
     38 CA         42.5883   -3.8254   98.9842 C.3       4 GLY6        0.0000 
     39 CA         43.6938   -4.6387   99.5894 C.3       4 GLY6        0.0000 
     40 CA         44.7994   -5.4520  100.1946 C.3       4 GLY6        0.0000 
     41 O          41.5798   -0.9267  101.0042 O.2       2 ALA2        0.0000 
     42 O          42.6853   -1.7401  101.6095 O.2       2 ALA2        0.0000 
     43 N          43.7908   -2.5534  102.2147 N.2       2 ALA2        0.0000 
     44 N          44.8963   -3.3667  102.8199 N.2       2 ALA2        0.0000 
     45 CA         41.9940   -1.3817   99.6362 C.3       4 GLY6        0.0000 
     46 DU         43.0995   -2.1950  100.2415 H         5 CUB7        0.0000 
     47 DU         44.2050   -3.0084  100.8467 H         5 CUB7        0.0000 
     48 DU         45.3105   -3.8217  101.4519 H         5 CUB7        0.0000 
     49 CA         46.4160   -4.6351  102.0571 C.3       4 GLY6        0.0000 
     50 CA         43.5137   -2.6500   98.8735 C.3       4 GLY6        0.0000 
     51 OG         44.6192   -3.4633   99.4787 O.2       1 SER1        0.0000 
     52 CA         45.7247   -4.2767  100.0839 C.3       4 GLY6        0.0000 
     53 N          43.6106   -0.5647  101.4987 N.2       2 ALA2        0.0000 
     54 CA         44.7161   -1.3780  102.1040 C.3       4 GLY6        0.0000 
     55 CA         45.8217   -2.1914  102.7092 C.3       4 GLY6        0.0000 
     56 CA         42.9193   -0.2063   99.5255 C.3       4 GLY6        0.0000 
     57 CA         44.0248   -1.0197  100.1307 C.3       4 GLY6        0.0000 
     58 OG         45.1303   -1.8330  100.7360 O.2       1 SER1        0.0000 
     59 N          46.2359   -2.6464  101.3412 N.2       2 ALA2        0.0000 
     60 OG         43.3335   -0.6613   98.1575 O.2       1 SER1        0.0000 
     61 CA         46.6501   -3.1013   99.9732 C.3       4 GLY6        0.0000 
     62 N          44.5360    0.6107  101.3880 N.2       2 ALA2        0.0000 
     63 CA         45.6415   -0.2027  101.9932 C.3       4 GLY6        0.0000 
     64 CA         44.9502    0.1557  100.0200 C.3       4 GLY6        0.0000 
     65 O          46.0557   -0.6577  100.6252 O.2       2 ALA2        0.0000 
     66 CA         47.1612   -1.4710  101.2304 C.3       4 GLY6        0.0000 
     67 CA         47.5754   -1.9260   99.8624 C.3       4 GLY6        0.0000 
     68 CA         48.6809   -2.7393  100.4677 C.3       4 GLY6        0.0000 
@<TRIPOS>BOND
@<TRIPOS>SUBSTRUCTURE
     1 SER1       16 GROUP   
     2 ALA2        1 GROUP   
     3 ASP3       25 GROUP   
     4 GLY6        2 GROUP   
     5 CUB7        3 GROUP   
@<TRIPOS>SET

