#    Name: 1h2h_NAD_1_INTS_M
#    Modification time : Tue Mar 25 04:23:06 2014

@<TRIPOS>MOLECULE
1h2h_NAD_1_INTS_M
   80     0     9     0     0
SMALL
NO_CHARGES


@<TRIPOS>ATOM
      1 N          40.1405  -11.6400   98.5110 N.am      2 SEC2        0.0000 
      2 N          39.3790  -11.4200  100.0420 N.am      8 SEL2        0.0000 
      3 N          40.9020  -11.8600   96.9800 N.am      5 SEP2        0.0000 
      4 CA         44.3735  -14.7310  101.8640 C.3       3 GLC5        0.0000 
      5 CA         42.4030  -14.1190  102.4560 C.3       9 GLL5        0.0000 
      6 CA         46.3440  -15.3430  101.2720 C.3       6 GLP5        0.0000 
      7 O          41.7215  -17.3450  102.4795 O.2       1 ALC1        0.0000 
      8 O          40.9130  -15.9840  101.9710 O.2       7 ALL1        0.0000 
      9 O          42.5300  -18.7060  102.9880 O.2       4 ALP1        0.0000 
     10 O          42.1175  -16.6435  101.7360 O.2       1 ALC1        0.0000 
     11 O          43.3220  -17.3030  101.5010 O.2       4 ALP1        0.0000 
     12 O          41.8185  -17.7960  103.6805 O.2       1 ALC1        0.0000 
     13 O          41.1070  -16.8860  104.3730 O.2       7 ALL1        0.0000 
     14 CA         44.7390  -15.4265  102.7675 C.3       3 GLC5        0.0000 
     15 CA         43.1340  -15.5100  104.2630 C.3       9 GLL5        0.0000 
     16 CA         44.8930  -14.3545  104.4220 C.3       3 GLC5        0.0000 
     17 CA         46.6520  -13.1990  104.5810 C.3       6 GLP5        0.0000 
     18 N          44.5880  -13.1525  108.1440 N.am      2 SEC2        0.0000 
     19 N          44.0710  -14.6000  107.7180 N.am      8 SEL2        0.0000 
     20 N          45.1050  -11.7050  108.5700 N.am      5 SEP2        0.0000 
     21 O          46.6135  -15.4955  110.6860 O.2       1 ALC1        0.0000 
     22 O          46.0990  -15.4110  109.4420 O.2       7 ALL1        0.0000 
     23 O          47.1280  -15.5800  111.9300 O.2       4 ALP1        0.0000 
     24 N          47.8495  -17.6645  108.5160 N.am      2 SEC2        0.0000 
     25 N          46.8390  -16.8420  107.7220 N.am      8 SEL2        0.0000 
     26 N          48.8600  -18.4870  109.3100 N.am      5 SEP2        0.0000 
     27 CA         48.2835  -16.3810  105.3325 C.3       3 GLC5        0.0000 
     28 CA         46.6760  -17.3410  106.4510 C.3       9 GLL5        0.0000 
     29 CA         49.8910  -15.4210  104.2140 C.3       6 GLP5        0.0000 
     30 CA         45.9830  -18.5245  104.7955 C.3       3 GLC5        0.0000 
     31 CA         45.2900  -19.7080  103.1400 C.3       6 GLP5        0.0000 
     32 CA         45.3285  -18.5030  107.4085 C.3       3 GLC5        0.0000 
     33 CA         43.9810  -19.6650  108.3660 C.3       6 GLP5        0.0000 
     34 N          42.9235  -10.4435   97.5665 N.am      2 SEC2        0.0000 
     35 N          42.6750  -10.4730   99.0450 N.am      8 SEL2        0.0000 
     36 N          43.1720  -10.4140   96.0880 N.am      5 SEP2        0.0000 
     37 N          43.7320  -11.4000   98.9360 N.am      2 SEC2        0.0000 
     38 N          44.7890  -12.3270   98.8270 N.am      5 SEP2        0.0000 
     39 O          45.6955   -7.4070  105.1630 O.2       1 ALC1        0.0000 
     40 O          44.3760   -7.4280  105.1840 O.2       7 ALL1        0.0000 
     41 O          47.0150   -7.3860  105.1420 O.2       4 ALP1        0.0000 
     42 CA         47.0350   -6.0565  101.9685 C.3       3 GLC5        0.0000 
     43 CA         45.2540   -5.5940  102.6040 C.3       9 GLL5        0.0000 
     44 CA         48.8160   -6.5190  101.3330 C.3       6 GLP5        0.0000 
     45 CA         46.8400   -5.5150  104.0110 C.3       3 GLC5        0.0000 
     46 CA         48.4260   -5.4360  105.4180 C.3       6 GLP5        0.0000 
     47 CA         47.5170   -4.9870  101.5150 C.3       3 GLC5        0.0000 
     48 CA         46.2180   -3.4550  101.6970 C.3       9 GLL5        0.0000 
     49 N          47.1975    0.4060   98.9530 N.am      2 SEC2        0.0000 
     50 N          47.2510   -0.2730  100.1570 N.am      8 SEL2        0.0000 
     51 N          47.1440    1.0850   97.7490 N.am      5 SEP2        0.0000 
     52 O          48.7170   -2.5210  102.6305 O.2       1 ALC1        0.0000 
     53 O          48.3140   -1.5200  101.7120 O.2       7 ALL1        0.0000 
     54 O          49.1200   -3.5220  103.5490 O.2       4 ALP1        0.0000 
     55 CA         44.9260   -0.2200   99.0160 C.3       3 GLC5        0.0000 
     56 CA         45.0470   -2.1580   99.9870 C.3       9 GLL5        0.0000 
     57 CA         44.8050    1.7180   98.0450 C.3       6 GLP5        0.0000 
     58 CA         43.1930   -2.8600   98.0330 C.3       3 GLC5        0.0000 
     59 CA         43.9970   -3.1090   99.9500 C.3       9 GLL5        0.0000 
     60 CA         42.3890   -2.6110   96.1160 C.3       6 GLP5        0.0000 
     61 CA         45.3145   -3.1190   98.1650 C.3       3 GLC5        0.0000 
     62 CA         46.6320   -3.1290   96.3800 C.3       6 GLP5        0.0000 
     63 CA         41.9200  -13.4870  100.4878 C.3       3 GLC5        0.0000 
     64 CA         42.0750  -12.6230  102.4890 C.3       9 GLL5        0.0000 
     65 CA         41.6010  -13.6030   98.5030 C.3       6 GLP5        0.0000 
     66 CA         44.1200  -12.6940  103.1683 C.3       3 GLC5        0.0000 
     67 CA         46.0010  -12.0170  103.8640 C.3       6 GLP5        0.0000 
     68 CA         45.7587  -14.4637  105.6617 C.3       3 GLC5        0.0000 
     69 CA         44.9550  -15.4940  107.3610 C.3       9 GLL5        0.0000 
     70 CA         46.9082  -14.4475  107.8620 C.3       3 GLC5        0.0000 
     71 CA         48.3530  -13.1980  107.9400 C.3       6 GLP5        0.0000 
     72 CA         44.4459  -17.0995  108.0455 C.3       3 GLC5        0.0000 
     73 CA         43.7720  -18.3690  109.1370 C.3       6 GLP5        0.0000 
     74 CA         46.2728   -1.8253  103.0038 C.3       3 GLC5        0.0000 
     75 CA         46.3560   -0.7610  104.7300 C.3       6 GLP5        0.0000 
     76 CA         46.6030   -3.0220   98.8783 C.3       3 GLC5        0.0000 
     77 CA         46.1610   -2.3240  100.8580 C.3       9 GLL5        0.0000 
     78 CA         47.6020   -3.8030   97.3340 C.3       6 GLP5        0.0000 
     79 CA         44.4642   -5.3602   99.2180 C.3       3 GLC5        0.0000 
     80 CA         44.9060   -7.0480   98.0680 C.3       6 GLP5        0.0000 
@<TRIPOS>BOND
@<TRIPOS>SUBSTRUCTURE
     1 ALC1        7 GROUP        1 X    ALC  0     ROOT ALC X 1
     2 SEC2        1 GROUP        1 X    SEC  0     **** SEC X 2
     3 GLC5        4 GROUP        1 X    GLC  0     **** GLC X 6
     4 ALP1        9 GROUP        1 Y    ALP  0     ROOT ALP Y 8
     5 SEP2        3 GROUP        1 Y    SEP  0     **** SEP Y 9
     6 GLP5        6 GROUP        1 Y    GLP  0     **** GLP Y 13
     7 ALL1        8 GROUP        1 Z    ALL  0     ROOT ALL Z 15
     8 SEL2        2 GROUP        1 Z    SEL  0     **** SEL Z 16
     9 GLL5        5 GROUP        1 Z    GLL  0     **** GLL Z 20
@<TRIPOS>SET

