#    Name: 1h2h_NAD_1_ligand
#    Modification time : Tue Mar 25 04:23:06 2014

@<TRIPOS>MOLECULE
1h2h_NAD_1_ligand
   70    74     1     0     0
SMALL
NO_CHARGES


@<TRIPOS>ATOM
      1 PA         40.2570  -11.1280  101.2040 P.3       1 NAD1242     0.0000 
      2 O1A        39.3790  -11.4200  100.0420 O.co2     1 NAD1242     0.0000 
      3 O2A        39.6340  -10.9950  102.5430 O.co2     1 NAD1242     0.0000 
      4 O5B        41.4400  -12.2470  101.2540 O.3       1 NAD1242     0.0000 
      5 C5B        42.0750  -12.6230  102.4890 C.3       1 NAD1242     0.0000 
      6 C4B        42.4030  -14.1190  102.4560 C.3       1 NAD1242     0.0000 
      7 O4B        43.5320  -14.4170  103.3640 O.3       1 NAD1242     0.0000 
      8 C3B        41.2130  -14.9380  102.9200 C.3       1 NAD1242     0.0000 
      9 O3B        40.9130  -15.9840  101.9710 O.3       1 NAD1242     0.0000 
     10 C2B        41.6130  -15.5410  104.2460 C.3       1 NAD1242     0.0000 
     11 O2B        41.1070  -16.8860  104.3730 O.3       1 NAD1242     0.0000 
     12 C1B        43.1340  -15.5100  104.2630 C.3       1 NAD1242     0.0000 
     13 N9A        43.7060  -15.3280  105.6440 N.pl3     1 NAD1242     0.0000 
     14 C8A        43.2590  -14.4750  106.6390 C.2       1 NAD1242     0.0000 
     15 N7A        44.0710  -14.6000  107.7180 N.2       1 NAD1242     0.0000 
     16 C5A        44.9550  -15.4940  107.3610 C.ar      1 NAD1242     0.0000 
     17 C6A        45.9720  -15.9000  108.2070 C.ar      1 NAD1242     0.0000 
     18 N6A        46.0990  -15.4110  109.4420 N.pl3     1 NAD1242     0.0000 
     19 N1A        46.8390  -16.8420  107.7220 N.ar      1 NAD1242     0.0000 
     20 C2A        46.6760  -17.3410  106.4510 C.ar      1 NAD1242     0.0000 
     21 N3A        45.6480  -16.9040  105.6530 N.ar      1 NAD1242     0.0000 
     22 C4A        44.7760  -15.9630  106.1240 C.ar      1 NAD1242     0.0000 
     23 O3         41.0710   -9.7770  100.8810 O.3       1 NAD1242     0.0000 
     24 PN         42.2290   -9.3060   99.8450 P.3       1 NAD1242     0.0000 
     25 O1N        41.7460   -8.0960   99.1420 O.co2     1 NAD1242     0.0000 
     26 O2N        42.6750  -10.4730   99.0450 O.co2     1 NAD1242     0.0000 
     27 O5D        43.4120   -8.8850  100.8370 O.3       1 NAD1242     0.0000 
     28 C5D        43.0530   -8.2320  102.0460 C.3       1 NAD1242     0.0000 
     29 C4D        44.2550   -7.7370  102.7880 C.3       1 NAD1242     0.0000 
     30 O4D        45.0380   -6.8580  101.9040 O.3       1 NAD1242     0.0000 
     31 C3D        43.7910   -6.9340  103.9690 C.3       1 NAD1242     0.0000 
     32 O3D        44.3760   -7.4280  105.1840 O.3       1 NAD1242     0.0000 
     33 C2D        44.2160   -5.5160  103.7070 C.3       1 NAD1242     0.0000 
     34 O2D        44.7620   -4.9280  104.9010 O.3       1 NAD1242     0.0000 
     35 C1D        45.2540   -5.5940  102.6040 C.3       1 NAD1242     0.0000 
     36 N1N        45.1680   -4.4160  101.6740 N.pl3     1 NAD1242     0.0000 
     37 C2N        46.2180   -3.4550  101.6970 C.ar      1 NAD1242     0.0000 
     38 C3N        46.1610   -2.3240  100.8580 C.ar      1 NAD1242     0.0000 
     39 C7N        47.3040   -1.2720  100.8730 C.2       1 NAD1242     0.0000 
     40 O7N        47.2510   -0.2730  100.1570 O.2       1 NAD1242     0.0000 
     41 N7N        48.3140   -1.5200  101.7120 N.am      1 NAD1242     0.0000 
     42 C4N        45.0470   -2.1580   99.9870 C.ar      1 NAD1242     0.0000 
     43 C5N        43.9970   -3.1090   99.9500 C.ar      1 NAD1242     0.0000 
     44 C6N        44.0480   -4.2360  100.7860 C.ar      1 NAD1242     0.0000 
     45 H          41.4246  -12.4412  103.3480 H         1 NAD1242     0.0000 
     46 H          43.0095  -12.0782  102.6436 H         1 NAD1242     0.0000 
     47 H          42.6516  -14.4034  101.4550 H         1 NAD1242     0.0000 
     48 H          40.3876  -14.2837  103.0760 H         1 NAD1242     0.0000 
     49 H          41.2581  -14.8981  105.0275 H         1 NAD1242     0.0000 
     50 H          43.4859  -16.4509  103.8453 H         1 NAD1242     0.0000 
     51 H          42.4972  -13.8963  106.5617 H         1 NAD1242     0.0000 
     52 H          46.5508  -16.0061  110.1066 H         1 NAD1242     0.0000 
     53 H          45.7309  -14.4934  109.5919 H         1 NAD1242     0.0000 
     54 H          47.3382  -18.0561  106.0919 H         1 NAD1242     0.0000 
     55 H          42.4888   -8.9111  102.7165 H         1 NAD1242     0.0000 
     56 H          42.3865   -7.3674  101.8524 H         1 NAD1242     0.0000 
     57 H          44.8402   -8.5565  103.1200 H         1 NAD1242     0.0000 
     58 H          42.7171   -6.9655  103.9999 H         1 NAD1242     0.0000 
     59 H          43.3715   -4.9715  103.3367 H         1 NAD1242     0.0000 
     60 H          46.2333   -5.6077  103.0761 H         1 NAD1242     0.0000 
     61 H          47.0113   -3.5910  102.3248 H         1 NAD1242     0.0000 
     62 H          48.2318   -2.3477  102.2671 H         1 NAD1242     0.0000 
     63 H          49.0614   -0.8556  101.7094 H         1 NAD1242     0.0000 
     64 H          45.0063   -1.3339   99.3761 H         1 NAD1242     0.0000 
     65 H          43.2099   -2.9701   99.3166 H         1 NAD1242     0.0000 
     66 H          43.3068   -4.9304  100.7768 H         1 NAD1242     0.0000 
     67 H          41.7794  -16.4636  101.8322 H         1 NAD1242     0.0000 
     68 H          41.7249  -17.4478  103.8229 H         1 NAD1242     0.0000 
     69 H          45.3488   -7.5342  104.9782 H         1 NAD1242     0.0000 
     70 H          44.7132   -5.6504  105.5908 H         1 NAD1242     0.0000 
@<TRIPOS>BOND
     1    2    1 ar   
     2    3    1 ar   
     3    4    1 1    
     4   23    1 1    
     5    5    4 1    
     6    6    5 1    
     7   45    5 1    
     8   46    5 1    
     9    7    6 1    
    10    8    6 1    
    11   47    6 1    
    12   12    7 1    
    13    9    8 1    
    14   10    8 1    
    15   48    8 1    
    16   67    9 1    
    17   11   10 1    
    18   12   10 1    
    19   49   10 1    
    20   68   11 1    
    21   13   12 1    
    22   50   12 1    
    23   14   13 1    
    24   22   13 1    
    25   15   14 2    
    26   51   14 1    
    27   16   15 1    
    28   17   16 ar   
    29   22   16 ar   
    30   18   17 1    
    31   19   17 ar   
    32   52   18 1    
    33   53   18 1    
    34   20   19 ar   
    35   21   20 ar   
    36   54   20 1    
    37   22   21 ar   
    38   24   23 1    
    39   25   24 ar   
    40   26   24 ar   
    41   27   24 1    
    42   28   27 1    
    43   29   28 1    
    44   55   28 1    
    45   56   28 1    
    46   30   29 1    
    47   31   29 1    
    48   57   29 1    
    49   35   30 1    
    50   32   31 1    
    51   33   31 1    
    52   58   31 1    
    53   69   32 1    
    54   34   33 1    
    55   35   33 1    
    56   59   33 1    
    57   70   34 1    
    58   36   35 1    
    59   60   35 1    
    60   37   36 ar   
    61   44   36 ar   
    62   38   37 ar   
    63   61   37 1    
    64   39   38 1    
    65   42   38 ar   
    66   40   39 2    
    67   41   39 am   
    68   62   41 1    
    69   63   41 1    
    70   43   42 ar   
    71   64   42 1    
    72   44   43 ar   
    73   65   43 1    
    74   66   44 1    
@<TRIPOS>SUBSTRUCTURE
     1 NAD1242     1 GROUP   
@<TRIPOS>SET

