#    Name: 2qr9_HZ3_1_INTS_M
#    Modification time : Mon Mar 24 22:36:59 2014

@<TRIPOS>MOLECULE
2qr9_HZ3_1_INTS_M
   64     0     6     0     0
SMALL
NO_CHARGES


@<TRIPOS>ATOM
      1 CA          3.6415   -0.1600   -5.4750 C.3       2 GLC5        0.0000 
      2 CA          2.7320    0.3330   -7.1590 C.3       6 GLL5        0.0000 
      3 CA          4.5510   -0.6530   -3.7910 C.3       4 GLP5        0.0000 
      4 CA          2.2245   -2.8115   -8.5000 C.3       2 GLC5        0.0000 
      5 CA          2.3260   -0.6330   -8.0470 C.3       6 GLL5        0.0000 
      6 CA          2.1230   -4.9900   -8.9530 C.3       4 GLP5        0.0000 
      7 CA          1.3760   -2.1395  -10.0390 C.3       2 GLC5        0.0000 
      8 CA          1.2980   -0.3500   -8.9260 C.3       6 GLL5        0.0000 
      9 CA          1.4540   -3.9290  -11.1520 C.3       4 GLP5        0.0000 
     10 CA          3.5260    0.9135   -5.0035 C.3       2 GLC5        0.0000 
     11 CA          2.5010    2.4800   -6.2160 C.3       6 GLL5        0.0000 
     12 CA         -2.1900    5.5470   -6.7415 C.3       2 GLC5        0.0000 
     13 CA         -1.9480    6.3190   -4.8690 C.3       6 GLL5        0.0000 
     14 CA         -2.4320    4.7750   -8.6140 C.3       4 GLP5        0.0000 
     15 CA         -3.2990    6.9860   -6.1725 C.3       2 GLC5        0.0000 
     16 CA         -4.6500    7.6530   -7.4760 C.3       4 GLP5        0.0000 
     17 CA         -2.0985    7.7735   -4.8185 C.3       2 GLC5        0.0000 
     18 CA         -2.2490    9.2280   -4.7680 C.3       4 GLP5        0.0000 
     19 CA         -1.4715    5.8465   -2.8065 C.3       2 GLC5        0.0000 
     20 CA         -0.9950    5.3740   -0.7440 C.3       4 GLP5        0.0000 
     21 CA         -3.0555    5.0465   -3.9150 C.3       2 GLC5        0.0000 
     22 CA         -4.1630    3.7740   -2.9610 C.3       4 GLP5        0.0000 
     23 CA          6.5460    6.2605   -5.2695 C.3       2 GLC5        0.0000 
     24 CA          5.0500    5.8570   -4.9960 C.3       6 GLL5        0.0000 
     25 CA          8.0420    6.6640   -5.5430 C.3       4 GLP5        0.0000 
     26 CA          5.3035    6.4500   -6.4910 C.3       2 GLC5        0.0000 
     27 CA          5.5570    7.0430   -7.9860 C.3       4 GLP5        0.0000 
     28 CA          5.2790    6.5750   -3.6695 C.3       2 GLC5        0.0000 
     29 CA          5.5080    7.2930   -2.3430 C.3       4 GLP5        0.0000 
     30 CA          3.9360    3.3785   -2.8800 C.3       2 GLC5        0.0000 
     31 CA          3.5470    3.9090   -4.7850 C.3       6 GLL5        0.0000 
     32 CA          4.3250    2.8480   -0.9750 C.3       4 GLP5        0.0000 
     33 CA          3.5020    3.6375   -9.6625 C.3       2 GLC5        0.0000 
     34 CA          4.8800    2.7620   -8.2320 C.3       6 GLL5        0.0000 
     35 CA          2.1240    4.5130  -11.0930 C.3       4 GLP5        0.0000 
     36 O           8.9160    1.8125   -9.6065 O.2       1 ALC1        0.0000 
     37 O           8.5280    2.4600   -8.6190 O.2       5 ALL1        0.0000 
     38 O           9.3040    1.1650  -10.5940 O.2       3 ALP1        0.0000 
     39 CA          6.4730    2.7225   -3.9825 C.3       2 GLC5        0.0000 
     40 CA          6.0010    3.0570   -6.1140 C.3       6 GLL5        0.0000 
     41 CA          6.9450    2.3880   -1.8510 C.3       4 GLP5        0.0000 
     42 CA          0.8618    0.4135   -5.9475 C.3       2 GLC5        0.0000 
     43 CA         -0.6960   -0.1250   -4.7370 C.3       4 GLP5        0.0000 
     44 CA          0.6820   -1.4598   -7.0948 C.3       2 GLC5        0.0000 
     45 CA         -0.4480   -2.4280   -5.7030 C.3       4 GLP5        0.0000 
     46 CA          3.3552   -0.5995   -9.2807 C.3       2 GLC5        0.0000 
     47 CA          4.7970   -0.9490  -10.2970 C.3       4 GLP5        0.0000 
     48 CA         -0.9805    2.2023   -8.4537 C.3       2 GLC5        0.0000 
     49 CA          0.6760    0.8890   -8.9010 C.3       6 GLL5        0.0000 
     50 CA         -2.8320    3.0270   -8.4520 C.3       4 GLP5        0.0000 
     51 CA          1.4975    2.9452   -9.7743 C.3       2 GLC5        0.0000 
     52 CA          1.0660    1.8660   -8.0100 C.3       6 GLL5        0.0000 
     53 CA          0.0875    0.6262   -6.5962 C.3       2 GLC5        0.0000 
     54 CA          0.0363    0.6609   -9.9424 C.3       2 GLC5        0.0000 
     55 CA         -0.9540    0.2540  -11.4230 C.3       4 GLP5        0.0000 
     56 CA          0.6912    1.2632   -5.1695 C.3       2 GLC5        0.0000 
     57 CA          1.9905    5.4547   -2.8830 C.3       2 GLC5        0.0000 
     58 CA          1.2350    4.2600   -4.8340 C.3       6 GLL5        0.0000 
     59 CA          2.1440    6.3010   -0.9900 C.3       4 GLP5        0.0000 
     60 CA          5.1500    0.8603   -9.4187 C.3       2 GLC5        0.0000 
     61 CA          7.3252    4.8157   -5.9787 C.3       2 GLC5        0.0000 
     62 CA          7.2160    2.8780   -6.7150 C.3       6 GLL5        0.0000 
     63 CA          7.5988    1.2059   -6.2577 C.3       2 GLC5        0.0000 
     64 CA          8.5700   -0.4930   -5.7600 C.3       4 GLP5        0.0000 
@<TRIPOS>BOND
@<TRIPOS>SUBSTRUCTURE
     1 ALC1       36 GROUP        1 X    ALC  0     ROOT ALC X 1
     2 GLC5        1 GROUP        1 X    GLC  0     **** GLC X 6
     3 ALP1       38 GROUP        1 Y    ALP  0     ROOT ALP Y 8
     4 GLP5        3 GROUP        1 Y    GLP  0     **** GLP Y 13
     5 ALL1       37 GROUP        1 Z    ALL  0     ROOT ALL Z 15
     6 GLL5        2 GROUP        1 Z    GLL  0     **** GLL Z 20
@<TRIPOS>SET

