#    Name: 2qr9_HZ3_1_ligand
#    Modification time : Mon Mar 24 22:36:59 2014

@<TRIPOS>MOLECULE
2qr9_HZ3_1_ligand
   47    50     1     0     0
SMALL
NO_CHARGES


@<TRIPOS>ATOM
      1 CAK         2.7320    0.3330   -7.1590 C.ar      1 HZ31        0.0000 
      2 CAG         2.3260   -0.6330   -8.0470 C.ar      1 HZ31        0.0000 
      3 CAV         1.2980   -0.3500   -8.9260 C.ar      1 HZ31        0.0000 
      4 OAC         0.9090   -1.2990   -9.8110 O.3       1 HZ31        0.0000 
      5 CAH         0.6760    0.8890   -8.9010 C.ar      1 HZ31        0.0000 
      6 CAL         1.0660    1.8660   -8.0100 C.ar      1 HZ31        0.0000 
      7 CAX         2.1070    1.5710   -7.1570 C.ar      1 HZ31        0.0000 
      8 CAR         2.5010    2.4800   -6.2160 C.2       1 HZ31        0.0000 
      9 CBB         1.6560    2.8230   -4.9880 C.3       1 HZ31        0.0000 
     10 OAQ         2.7920    2.8770   -4.0880 O.3       1 HZ31        0.0000 
     11 CAT         1.2350    4.2600   -4.8340 C.2       1 HZ31        0.0000 
     12 CAZ        -0.2390    4.7210   -4.7530 C.2       1 HZ31        0.0000 
     13 OAO        -0.5600    6.1210   -5.1240 O.3       1 HZ31        0.0000 
     14 CAA        -1.9480    6.3190   -4.8690 C.3       1 HZ31        0.0000 
     15 OAE        -1.0200    3.6540   -5.3900 O.2       1 HZ31        0.0000 
     16 CAU         2.4390    4.9570   -4.7180 C.2       1 HZ31        0.0000 
     17 CBA         2.6420    6.4510   -4.5030 C.2       1 HZ31        0.0000 
     18 OAP         3.9920    6.8570   -4.9160 O.3       1 HZ31        0.0000 
     19 CAB         5.0500    5.8570   -4.9960 C.3       1 HZ31        0.0000 
     20 OAF         1.6180    7.2120   -5.2100 O.2       1 HZ31        0.0000 
     21 CBC         3.5470    3.9090   -4.7850 C.3       1 HZ31        0.0000 
     22 CAS         3.6910    3.1730   -6.0990 C.2       1 HZ31        0.0000 
     23 CAY         4.8330    3.0430   -6.8610 C.ar      1 HZ31        0.0000 
     24 CAM         4.8800    2.7620   -8.2320 C.ar      1 HZ31        0.0000 
     25 CAI         6.1260    2.5770   -8.8490 C.ar      1 HZ31        0.0000 
     26 CAW         7.2920    2.6270   -8.0790 C.ar      1 HZ31        0.0000 
     27 OAD         8.5280    2.4600   -8.6190 O.3       1 HZ31        0.0000 
     28 CAJ         7.2160    2.8780   -6.7150 C.ar      1 HZ31        0.0000 
     29 CAN         6.0010    3.0570   -6.1140 C.ar      1 HZ31        0.0000 
     30 H           3.4965    0.1447   -6.4953 H         1 HZ31        0.0000 
     31 H           2.7781   -1.5547   -8.0605 H         1 HZ31        0.0000 
     32 H          -0.0980    1.0812   -9.5675 H         1 HZ31        0.0000 
     33 H           0.6031    2.7693   -7.9836 H         1 HZ31        0.0000 
     34 H           1.0145    2.1433   -4.7256 H         1 HZ31        0.0000 
     35 H           4.3676    4.1388   -4.3219 H         1 HZ31        0.0000 
     36 H           4.0211    2.6926   -8.7751 H         1 HZ31        0.0000 
     37 H           6.1792    2.4068   -9.8555 H         1 HZ31        0.0000 
     38 H           8.0875    2.9279   -6.1602 H         1 HZ31        0.0000 
     39 H           5.9435    3.2055   -5.0886 H         1 HZ31        0.0000 
     40 H          -2.1742    6.1670   -3.9069 H         1 HZ31        0.0000 
     41 H          -2.2382    7.2489   -5.0949 H         1 HZ31        0.0000 
     42 H          -2.5168    5.6959   -5.4058 H         1 HZ31        0.0000 
     43 H           5.9194    6.2584   -5.2840 H         1 HZ31        0.0000 
     44 H           5.2097    5.4139   -4.1139 H         1 HZ31        0.0000 
     45 H           4.8294    5.1345   -5.6513 H         1 HZ31        0.0000 
     46 H           1.4864   -0.7216   -9.2336 H         1 HZ31        0.0000 
     47 H           8.3810    1.8976   -9.4327 H         1 HZ31        0.0000 
@<TRIPOS>BOND
     1    2    1 ar   
     2    7    1 ar   
     3   30    1 1    
     4    3    2 ar   
     5   31    2 1    
     6    4    3 1    
     7    5    3 ar   
     8   46    4 1    
     9    6    5 ar   
    10   32    5 1    
    11    7    6 ar   
    12   33    6 1    
    13    8    7 1    
    14    9    8 1    
    15   22    8 2    
    16   10    9 1    
    17   11    9 1    
    18   34    9 1    
    19   21   10 1    
    20   12   11 1    
    21   16   11 2    
    22   13   12 1    
    23   15   12 2    
    24   14   13 1    
    25   40   14 1    
    26   41   14 1    
    27   42   14 1    
    28   17   16 1    
    29   21   16 1    
    30   18   17 1    
    31   20   17 2    
    32   19   18 1    
    33   43   19 1    
    34   44   19 1    
    35   45   19 1    
    36   22   21 1    
    37   35   21 1    
    38   23   22 1    
    39   24   23 ar   
    40   29   23 ar   
    41   25   24 ar   
    42   36   24 1    
    43   26   25 ar   
    44   37   25 1    
    45   27   26 1    
    46   28   26 ar   
    47   47   27 1    
    48   29   28 ar   
    49   38   28 1    
    50   39   29 1    
@<TRIPOS>SUBSTRUCTURE
     1 HZ31        1 GROUP   
@<TRIPOS>SET

