#    Name: 2y1f_34F_1_INTS_M
#    Modification time : Tue Mar 25 07:21:54 2014

@<TRIPOS>MOLECULE
2y1f_34F_1_INTS_M
   56     0    12     0     0
SMALL
NO_CHARGES


@<TRIPOS>ATOM
      1 CA          7.2570   -2.8190    5.3710 C.3       4 GLC5        0.0000 
      2 CA          7.9500   -4.0150    4.2210 C.3      12 GLL5        0.0000 
      3 CA          6.5640   -1.6230    6.5210 C.3       8 GLP5        0.0000 
      4 CA          8.3985   -1.8785    5.9295 C.3       4 GLC5        0.0000 
      5 CA         10.2330   -2.1340    5.3380 C.3      12 GLL5        0.0000 
      6 NZ         16.5475   -5.1880    2.2625 N.4       2 LYC4        0.0000 
      7 NZ         15.6410   -5.3190    0.8450 N.4      10 LYL4        0.0000 
      8 NZ         17.4540   -5.0570    3.6800 N.4       6 LYP4        0.0000 
      9 N          16.2515   -4.3435    0.1895 N.am      1 SEC2        0.0000 
     10 N          15.6410   -5.3190    0.8450 N.am      9 SEL2        0.0000 
     11 N          16.8620   -3.3680   -0.4660 N.am      5 SEP2        0.0000 
     12 N          16.5475   -5.1880    2.2625 N.am      1 SEC2        0.0000 
     13 N          17.4540   -5.0570    3.6800 N.am      5 SEP2        0.0000 
     14 NZ         16.0845   -5.4990    3.3825 N.4       2 LYC4        0.0000 
     15 NZ         14.7150   -5.9410    3.0850 N.4      10 LYL4        0.0000 
     16 N          14.3835   -7.1920    3.7465 N.am      1 SEC2        0.0000 
     17 N          14.7150   -5.9410    3.0850 N.am      9 SEL2        0.0000 
     18 N          14.0520   -8.4430    4.4080 N.am      5 SEP2        0.0000 
     19 N          16.0845   -5.4990    3.3825 N.am      1 SEC2        0.0000 
     20 N          12.8370   -7.5865    1.5195 N.am      1 SEC2        0.0000 
     21 N          13.6070   -6.6940    0.9750 N.am      9 SEL2        0.0000 
     22 N          12.0670   -8.4790    2.0640 N.am      5 SEP2        0.0000 
     23 N          13.1095   -6.8680   -0.2470 N.am      1 SEC2        0.0000 
     24 N          12.6120   -7.0420   -1.4690 N.am      5 SEP2        0.0000 
     25 CA         11.7635   -3.4665   -0.9250 C.3       4 GLC5        0.0000 
     26 CA         13.5330   -3.4970    0.3650 C.3      12 GLL5        0.0000 
     27 CA          9.9940   -3.4360   -2.2150 C.3       8 GLP5        0.0000 
     28 CA         13.3525   -4.9055   -1.0950 C.3       4 GLC5        0.0000 
     29 CA         13.1720   -6.3140   -2.5550 C.3       8 GLP5        0.0000 
     30 CA         11.6645   -1.8935   -0.9355 C.3       4 GLC5        0.0000 
     31 CA         12.8990   -2.0940    0.4380 C.3      12 GLL5        0.0000 
     32 CA         10.4300   -1.6930   -2.3090 C.3       8 GLP5        0.0000 
     33 CA         12.8470    0.0140    0.1480 C.3       4 GLC5        0.0000 
     34 CA         12.7950    2.1220   -0.1420 C.3       8 GLP5        0.0000 
     35 Zn         15.6510   -0.6575    1.4220 Zn        3 ZIC7        0.0000 
     36 Zn         15.0600   -0.9020    0.5310 Zn       11 ZIL7        0.0000 
     37 Zn         16.2420   -0.4130    2.3130 Zn        7 ZIP7        0.0000 
     38 N          16.4660   -0.2705   -0.1290 N.am      1 SEC2        0.0000 
     39 N          15.0600   -0.9020    0.5310 N.am      9 SEL2        0.0000 
     40 N          17.8720    0.3610   -0.7890 N.am      5 SEP2        0.0000 
     41 N          15.9610   -2.1350    0.0325 N.am      1 SEC2        0.0000 
     42 Zn         15.2160   -0.0580    2.5060 Zn        3 ZIC7        0.0000 
     43 Zn         14.1900    0.2970    2.6990 Zn       11 ZIL7        0.0000 
     44 N          14.8365    1.5075    3.7695 N.am      1 SEC2        0.0000 
     45 N          14.1900    0.2970    2.6990 N.am      9 SEL2        0.0000 
     46 N          15.4830    2.7180    4.8400 N.am      5 SEP2        0.0000 
     47 N          14.0765    0.2685    4.1150 N.am      1 SEC2        0.0000 
     48 N          13.9630    0.2400    5.5310 N.am      5 SEP2        0.0000 
     49 CA          9.3080   -4.7715    5.4023 C.3       4 GLC5        0.0000 
     50 CA          9.5860   -4.0970    3.4820 C.3      12 GLL5        0.0000 
     51 CA          9.8480   -5.4870    6.9530 C.3       8 GLP5        0.0000 
     52 CA         10.1330   -4.0925    5.8042 C.3       4 GLC5        0.0000 
     53 CA         10.6030   -3.2620    3.9730 C.3      12 GLL5        0.0000 
     54 CA         11.5480   -6.4536    2.8353 C.3       4 GLC5        0.0000 
     55 CA          9.8490   -4.9820    2.4130 C.3      12 GLL5        0.0000 
     56 CA         11.7620   -8.2980    3.4420 C.3       8 GLP5        0.0000 
@<TRIPOS>BOND
@<TRIPOS>SUBSTRUCTURE
     1 SEC2        9 GROUP        1 X    SEC  0     ROOT SEC X 2
     2 LYC4        6 GROUP        1 X    LYC  0     **** LYC X 4
     3 ZIC7       35 GROUP        1 X    ZIC  0     **** ZIC X 5
     4 GLC5        1 GROUP        1 X    GLC  0     **** GLC X 6
     5 SEP2       11 GROUP        1 Y    SEP  0     ROOT SEP Y 9
     6 LYP4        8 GROUP        1 Y    LYP  0     **** LYP Y 11
     7 ZIP7       37 GROUP        1 Y    ZIP  0     **** ZIP Y 12
     8 GLP5        3 GROUP        1 Y    GLP  0     **** GLP Y 13
     9 SEL2       10 GROUP        1 Z    SEL  0     ROOT SEL Z 16
    10 LYL4        7 GROUP        1 Z    LYL  0     **** LYL Z 18
    11 ZIL7       36 GROUP        1 Z    ZIL  0     **** ZIL Z 19
    12 GLL5        2 GROUP        1 Z    GLL  0     **** GLL Z 20
@<TRIPOS>SET

