#    Name: 2y1f_34F_1_ligand
#    Modification time : Tue Mar 25 07:21:54 2014

@<TRIPOS>MOLECULE
2y1f_34F_1_ligand
   28    28     1     0     0
SMALL
NO_CHARGES


@<TRIPOS>ATOM
      1 CL2         7.9500   -4.0150    4.2210 Cl        1 34F1390     0.0000 
      2 C9          9.5860   -4.0970    3.4820 C.ar      1 34F1390     0.0000 
      3 C8         10.6030   -3.2620    3.9730 C.ar      1 34F1390     0.0000 
      4 CL1        10.2330   -2.1340    5.3380 Cl        1 34F1390     0.0000 
      5 C7         11.8850   -3.3230    3.3960 C.ar      1 34F1390     0.0000 
      6 C10         9.8490   -4.9820    2.4130 C.ar      1 34F1390     0.0000 
      7 C11        11.1370   -5.0330    1.8390 C.ar      1 34F1390     0.0000 
      8 C6         12.1750   -4.2110    2.3310 C.ar      1 34F1390     0.0000 
      9 C4         13.5850   -4.2000    1.7250 C.3       1 34F1390     0.0000 
     10 PA1        14.4010   -5.6130    1.6410 P.3       1 34F1390     0.0000 
     11 OP1        15.6410   -5.3190    0.8450 O.co2     1 34F1390     0.0000 
     12 OP2        14.7150   -5.9410    3.0850 O.co2     1 34F1390     0.0000 
     13 OP3        13.6070   -6.6940    0.9750 O.co2     1 34F1390     0.0000 
     14 C3         13.5330   -3.4970    0.3650 C.3       1 34F1390     0.0000 
     15 C2         12.8990   -2.0940    0.4380 C.3       1 34F1390     0.0000 
     16 N1         13.8090   -1.1490    1.0980 N.am      1 34F1390     0.0000 
     17 O2         15.0600   -0.9020    0.5310 O.3       1 34F1390     0.0000 
     18 C1         13.4600   -0.5390    2.1590 C.2       1 34F1390     0.0000 
     19 O1         14.1900    0.2970    2.6990 O.2       1 34F1390     0.0000 
     20 H          12.6330   -2.7091    3.7536 H         1 34F1390     0.0000 
     21 H           9.1060   -5.5851    2.0558 H         1 34F1390     0.0000 
     22 H          11.3216   -5.6715    1.0587 H         1 34F1390     0.0000 
     23 H          14.2196   -3.5358    2.3787 H         1 34F1390     0.0000 
     24 H          12.9538   -4.1100   -0.3349 H         1 34F1390     0.0000 
     25 H          14.5506   -3.4042   -0.0312 H         1 34F1390     0.0000 
     26 H          11.9571   -2.1769    0.9869 H         1 34F1390     0.0000 
     27 H          12.6739   -1.7714   -0.5821 H         1 34F1390     0.0000 
     28 H          12.4903   -0.7724    2.5877 H         1 34F1390     0.0000 
@<TRIPOS>BOND
     1    2    1 1    
     2    3    2 ar   
     3    6    2 ar   
     4    4    3 1    
     5    5    3 ar   
     6    8    5 ar   
     7   20    5 1    
     8    7    6 ar   
     9   21    6 1    
    10    8    7 ar   
    11   22    7 1    
    12    9    8 1    
    13   10    9 1    
    14   14    9 1    
    15   23    9 1    
    16   11   10 ar   
    17   12   10 ar   
    18   13   10 ar   
    19   15   14 1    
    20   24   14 1    
    21   25   14 1    
    22   16   15 1    
    23   26   15 1    
    24   27   15 1    
    25   17   16 1    
    26   18   16 am   
    27   19   18 2    
    28   28   18 1    
@<TRIPOS>SUBSTRUCTURE
     1 34F1390     1 GROUP   
@<TRIPOS>SET

