#    Name: 2i4z_DRH_1_INTS_M
#    Modification time : Tue Mar 25 17:27:36 2014

@<TRIPOS>MOLECULE
2i4z_DRH_1_INTS_M
   92     0     6     0     0
SMALL
NO_CHARGES


@<TRIPOS>ATOM
      1 CA         22.0100   21.2375   17.7840 C.3       2 GLC5        0.0000 
      2 CA         20.3000   20.6650   17.3190 C.3       6 GLL5        0.0000 
      3 CA         23.7200   21.8100   18.2490 C.3       4 GLP5        0.0000 
      4 CA         19.6230   20.2850   15.4955 C.3       2 GLC5        0.0000 
      5 CA         18.9460   19.9050   13.6720 C.3       4 GLP5        0.0000 
      6 CA         17.4350   19.4700   18.5260 C.3       2 GLC5        0.0000 
      7 CA         19.4260   19.9370   18.3420 C.3       6 GLL5        0.0000 
      8 CA         15.4440   19.0030   18.7100 C.3       4 GLP5        0.0000 
      9 CA         18.3035   20.5555   19.9440 C.3       2 GLC5        0.0000 
     10 CA         17.1810   21.1740   21.5460 C.3       4 GLP5        0.0000 
     11 N          18.6495   16.6385   21.7615 N.am      1 SEC2        0.0000 
     12 N          19.8810   17.5570   21.0510 N.am      5 SEL2        0.0000 
     13 N          17.4180   15.7200   22.4720 N.am      3 SEP2        0.0000 
     14 N          21.0440   16.8850   20.4355 N.am      1 SEC2        0.0000 
     15 N          22.2070   16.2130   19.8200 N.am      3 SEP2        0.0000 
     16 N          17.1575   18.1125   18.9730 N.am      1 SEC2        0.0000 
     17 N          18.0780   18.1780   19.9110 N.am      5 SEL2        0.0000 
     18 N          16.2370   18.0470   18.0350 N.am      3 SEP2        0.0000 
     19 CA         22.5535   20.6375   19.0410 C.3       2 GLC5        0.0000 
     20 CA         21.3870   19.4650   19.8330 C.3       6 GLL5        0.0000 
     21 CA         21.9270   17.3450   20.2855 C.3       2 GLC5        0.0000 
     22 CA         22.4670   15.2250   20.7380 C.3       4 GLP5        0.0000 
     23 CA         22.9705   19.1760   20.2840 C.3       2 GLC5        0.0000 
     24 CA         24.5540   18.8870   20.7350 C.3       4 GLP5        0.0000 
     25 CA         21.7495   21.0760   21.2130 C.3       2 GLC5        0.0000 
     26 CA         22.1120   22.6870   22.5930 C.3       4 GLP5        0.0000 
     27 CA         17.0980   17.8115   18.1910 C.3       2 GLC5        0.0000 
     28 CA         18.7520   16.6200   17.6720 C.3       6 GLL5        0.0000 
     29 CA         16.5190   14.4835   17.2565 C.3       2 GLC5        0.0000 
     30 CA         18.0570   15.7740   16.8100 C.3       6 GLL5        0.0000 
     31 CA         14.9810   13.1930   17.7030 C.3       4 GLP5        0.0000 
     32 CA         20.6035   15.2325   13.6660 C.3       2 GLC5        0.0000 
     33 CA         19.8300   15.9640   15.1970 C.3       6 GLL5        0.0000 
     34 CA         21.3770   14.5010   12.1350 C.3       4 GLP5        0.0000 
     35 CA         18.5015   13.1735   16.2050 C.3       2 GLC5        0.0000 
     36 CA         17.8990   14.4570   14.6240 C.3       6 GLL5        0.0000 
     37 CA         19.1040   11.8900   17.7860 C.3       4 GLP5        0.0000 
     38 CA         17.6970   13.0390   13.8035 C.3       2 GLC5        0.0000 
     39 CA         17.4950   11.6210   12.9830 C.3       4 GLP5        0.0000 
     40 CA         19.6380   14.4790   13.3795 C.3       2 GLC5        0.0000 
     41 CA         15.9820   13.5990   13.2165 C.3       2 GLC5        0.0000 
     42 CA         16.3690   14.5010   14.6760 C.3       6 GLL5        0.0000 
     43 CA         15.5950   12.6970   11.7570 C.3       4 GLP5        0.0000 
     44 CA         13.4255   17.1620   13.4685 C.3       2 GLC5        0.0000 
     45 CA         14.2710   15.2320   13.4370 C.3       6 GLL5        0.0000 
     46 CA         12.5800   19.0920   13.5000 C.3       4 GLP5        0.0000 
     47 CA         14.2825   13.8685   16.1605 C.3       2 GLC5        0.0000 
     48 CA         13.5840   14.5440   14.6180 C.3       6 GLL5        0.0000 
     49 CA         12.2920   13.7820   17.5345 C.3       2 GLC5        0.0000 
     50 CA         11.4290   13.8830   15.6810 C.3       6 GLL5        0.0000 
     51 CA         13.1550   13.6810   19.3880 C.3       4 GLP5        0.0000 
     52 CA         10.0495   11.5950   15.3595 C.3       2 GLC5        0.0000 
     53 CA          9.9140   13.7210   15.5420 C.3       6 GLL5        0.0000 
     54 CA         10.1850    9.4690   15.1770 C.3       4 GLP5        0.0000 
     55 CA          9.7015   10.6020   18.8325 C.3       2 GLC5        0.0000 
     56 CA          9.8490   12.0280   17.4290 C.3       6 GLL5        0.0000 
     57 CA          9.5540    9.1760   20.2360 C.3       4 GLP5        0.0000 
     58 CA         11.5995   11.7000   17.9000 C.3       2 GLC5        0.0000 
     59 CA         13.3500   11.3720   18.3710 C.3       4 GLP5        0.0000 
     60 CA         21.2135   17.4565    8.6015 C.3       2 GLC5        0.0000 
     61 CA         19.1370   17.4280    9.3570 C.3       6 GLL5        0.0000 
     62 CA         23.2900   17.4850    7.8460 C.3       4 GLP5        0.0000 
     63 CA         18.7860   21.3545   17.5037 C.3       2 GLC5        0.0000 
     64 CA         17.7090   22.4080   17.1770 C.3       4 GLP5        0.0000 
     65 CA         19.5613   18.1457   14.6500 C.3       2 GLC5        0.0000 
     66 CA         20.5230   16.8090   16.0590 C.3       6 GLL5        0.0000 
     67 CA         16.0575   13.8360   16.1765 C.3       2 GLC5        0.0000 
     68 CA         14.7613   13.7925   12.8923 C.3       2 GLC5        0.0000 
     69 CA         11.2410   15.2587   16.4492 C.3       2 GLC5        0.0000 
     70 CA         12.0750   14.4180   14.4020 C.3       6 GLL5        0.0000 
     71 CA         10.7300   16.3670   17.8570 C.3       4 GLP5        0.0000 
     72 CA          7.5408   12.5553   17.5570 C.3       2 GLC5        0.0000 
     73 CA          9.2820   13.3410   16.8830 C.3       6 GLL5        0.0000 
     74 CA          5.5160   12.4260   17.9580 C.3       4 GLP5        0.0000 
     75 CA          9.6697   12.7927   18.9070 C.3       2 GLC5        0.0000 
     76 CA          9.7740   12.9010   20.6580 C.3       4 GLP5        0.0000 
     77 CA          8.7547   11.2488   16.9510 C.3       2 GLC5        0.0000 
     78 CA          7.9440    9.8130   16.7460 C.3       4 GLP5        0.0000 
     79 CA         10.2267   14.5733   17.3389 C.3       2 GLC5        0.0000 
     80 CA         19.0440   18.0753   11.4423 C.3       2 GLC5        0.0000 
     81 CA         18.0220   16.4680   11.2650 C.3       6 GLL5        0.0000 
     82 CA         19.4830   19.5670   11.9810 C.3       4 GLP5        0.0000 
     83 CA         19.0060   18.6220   10.5545 C.3       2 GLC5        0.0000 
     84 CA         18.4050   15.9345    7.9785 C.3       2 GLC5        0.0000 
     85 CA         18.2810   14.1920    6.8290 C.3       4 GLP5        0.0000 
     86 CA         19.5525   15.3369   10.6036 C.3       2 GLC5        0.0000 
     87 CA         20.2340   13.6680   11.0770 C.3       4 GLP5        0.0000 
     88 CA         18.1318   18.4485   11.0965 C.3       2 GLC5        0.0000 
     89 CA         16.8070   16.9640   10.8030 C.3       6 GLL5        0.0000 
     90 CA         16.7818   17.8987    7.9047 C.3       2 GLC5        0.0000 
     91 CA         16.7540   17.6960    9.6210 C.3       6 GLL5        0.0000 
     92 CA         15.9220   18.1110    6.4350 C.3       4 GLP5        0.0000 
@<TRIPOS>BOND
@<TRIPOS>SUBSTRUCTURE
     1 SEC2       11 GROUP        1 X    SEC  0     ROOT SEC X 2
     2 GLC5        1 GROUP        1 X    GLC  0     **** GLC X 6
     3 SEP2       13 GROUP        1 Y    SEP  0     ROOT SEP Y 9
     4 GLP5        3 GROUP        1 Y    GLP  0     **** GLP Y 13
     5 SEL2       12 GROUP        1 Z    SEL  0     ROOT SEL Z 16
     6 GLL5        2 GROUP        1 Z    GLL  0     **** GLL Z 20
@<TRIPOS>SET

