#    Name: 2i4z_DRH_1_ligand
#    Modification time : Tue Mar 25 17:27:36 2014

@<TRIPOS>MOLECULE
2i4z_DRH_1_ligand
   68    70     1     0     0
SMALL
NO_CHARGES


@<TRIPOS>ATOM
      1 CAB        20.3000   20.6650   17.3190 C.3       1 DRH999      0.0000 
      2 CAO        19.4260   19.9370   18.3420 C.3       1 DRH999      0.0000 
      3 CBG        20.2080   18.8450   19.0780 C.3       1 DRH999      0.0000 
      4 CAZ        19.3130   18.1370   20.1000 C.2       1 DRH999      0.0000 
      5 OAE        19.8810   17.5570   21.0510 O.co2     1 DRH999      0.0000 
      6 OAD        18.0780   18.1780   19.9110 O.co2     1 DRH999      0.0000 
      7 CAC        21.3870   19.4650   19.8330 C.3       1 DRH999      0.0000 
      8 OAX        20.7490   17.9110   18.1350 O.3       1 DRH999      0.0000 
      9 CBB        19.9920   17.1370   17.3030 C.ar      1 DRH999      0.0000 
     10 CAK        18.7520   16.6200   17.6720 C.ar      1 DRH999      0.0000 
     11 CAI        18.0570   15.7740   16.8100 C.ar      1 DRH999      0.0000 
     12 CAJ        20.5230   16.8090   16.0590 C.ar      1 DRH999      0.0000 
     13 CAH        19.8300   15.9640   15.1970 C.ar      1 DRH999      0.0000 
     14 CBA        18.5960   15.4410   15.5700 C.ar      1 DRH999      0.0000 
     15 CAT        17.8990   14.4570   14.6240 C.3       1 DRH999      0.0000 
     16 CAV        16.3690   14.5010   14.6760 C.3       1 DRH999      0.0000 
     17 NBF        15.7340   15.2790   13.5980 N.pl3     1 DRH999      0.0000 
     18 CAU        14.2710   15.2320   13.4370 C.3       1 DRH999      0.0000 
     19 CAS        13.5840   14.5440   14.6180 C.3       1 DRH999      0.0000 
     20 CAR        12.0750   14.4180   14.4020 C.3       1 DRH999      0.0000 
     21 CAQ        11.4290   13.8830   15.6810 C.3       1 DRH999      0.0000 
     22 CAP         9.9140   13.7210   15.5420 C.3       1 DRH999      0.0000 
     23 CAN         9.2820   13.3410   16.8830 C.3       1 DRH999      0.0000 
     24 CAA         9.8490   12.0280   17.4290 C.3       1 DRH999      0.0000 
     25 CBC        16.4220   15.8790   12.6270 C.2       1 DRH999      0.0000 
     26 OAY        17.7700   15.7870   12.4210 O.3       1 DRH999      0.0000 
     27 CBE        18.0220   16.4680   11.2650 C.ar      1 DRH999      0.0000 
     28 CAM        19.1880   16.6990   10.5420 C.ar      1 DRH999      0.0000 
     29 CAG        19.1370   17.4280    9.3570 C.ar      1 DRH999      0.0000 
     30 CAF        17.9210   17.9260    8.8990 C.ar      1 DRH999      0.0000 
     31 CAL        16.7540   17.6960    9.6210 C.ar      1 DRH999      0.0000 
     32 CBD        16.8070   16.9640   10.8030 C.ar      1 DRH999      0.0000 
     33 NAW        15.8580   16.5890   11.6550 N.2       1 DRH999      0.0000 
     34 H          18.5754   19.4839   17.8294 H         1 DRH999      0.0000 
     35 H          19.0484   20.6582   19.0692 H         1 DRH999      0.0000 
     36 H          18.3468   16.8643   18.5867 H         1 DRH999      0.0000 
     37 H          17.1429   15.3945   17.0910 H         1 DRH999      0.0000 
     38 H          21.4357   17.1945   15.7740 H         1 DRH999      0.0000 
     39 H          20.2325   15.7252   14.2797 H         1 DRH999      0.0000 
     40 H          18.2346   13.4334   14.8651 H         1 DRH999      0.0000 
     41 H          18.2267   14.6644   13.5905 H         1 DRH999      0.0000 
     42 H          16.0735   14.9093   15.6675 H         1 DRH999      0.0000 
     43 H          15.9975   13.4527   14.6612 H         1 DRH999      0.0000 
     44 H          14.0022   14.6883   12.5190 H         1 DRH999      0.0000 
     45 H          13.8610   16.2490   13.3461 H         1 DRH999      0.0000 
     46 H          13.7690   15.1219   15.5264 H         1 DRH999      0.0000 
     47 H          14.0116   13.5475   14.7503 H         1 DRH999      0.0000 
     48 H          11.8845   13.7314   13.5889 H         1 DRH999      0.0000 
     49 H          11.6627   15.3903   14.1708 H         1 DRH999      0.0000 
     50 H          11.6412   14.5719   16.5048 H         1 DRH999      0.0000 
     51 H          11.8716   12.9126   15.9271 H         1 DRH999      0.0000 
     52 H           9.7019   12.9421   14.8122 H         1 DRH999      0.0000 
     53 H           9.4832   14.6583   15.1954 H         1 DRH999      0.0000 
     54 H           8.2020   13.2382   16.7538 H         1 DRH999      0.0000 
     55 H           9.4679   14.1391   17.6057 H         1 DRH999      0.0000 
     56 H          20.0854   16.3324   10.8817 H         1 DRH999      0.0000 
     57 H          19.9971   17.5981    8.8210 H         1 DRH999      0.0000 
     58 H          17.8848   18.4661    8.0235 H         1 DRH999      0.0000 
     59 H          15.8581   18.0647    9.2831 H         1 DRH999      0.0000 
     60 H          21.0847   21.1099   17.7506 H         1 DRH999      0.0000 
     61 H          20.6615   20.0397   16.6274 H         1 DRH999      0.0000 
     62 H          19.7904   21.3756   16.8339 H         1 DRH999      0.0000 
     63 H          21.9199   18.7740   20.3214 H         1 DRH999      0.0000 
     64 H          22.0158   19.9380   19.2158 H         1 DRH999      0.0000 
     65 H          21.0832   20.1342   20.5111 H         1 DRH999      0.0000 
     66 H          10.8367   12.0825   17.5757 H         1 DRH999      0.0000 
     67 H           9.4357   11.7810   18.3055 H         1 DRH999      0.0000 
     68 H           9.6873   11.2649   16.8033 H         1 DRH999      0.0000 
@<TRIPOS>BOND
     1    2    1 1    
     2   60    1 1    
     3   61    1 1    
     4   62    1 1    
     5    3    2 1    
     6   34    2 1    
     7   35    2 1    
     8    4    3 1    
     9    7    3 1    
    10    8    3 1    
    11    5    4 ar   
    12    6    4 ar   
    13   63    7 1    
    14   64    7 1    
    15   65    7 1    
    16    9    8 1    
    17   10    9 ar   
    18   12    9 ar   
    19   11   10 ar   
    20   36   10 1    
    21   14   11 ar   
    22   37   11 1    
    23   13   12 ar   
    24   38   12 1    
    25   14   13 ar   
    26   39   13 1    
    27   15   14 1    
    28   16   15 1    
    29   40   15 1    
    30   41   15 1    
    31   17   16 1    
    32   42   16 1    
    33   43   16 1    
    34   18   17 1    
    35   25   17 1    
    36   19   18 1    
    37   44   18 1    
    38   45   18 1    
    39   20   19 1    
    40   46   19 1    
    41   47   19 1    
    42   21   20 1    
    43   48   20 1    
    44   49   20 1    
    45   22   21 1    
    46   50   21 1    
    47   51   21 1    
    48   23   22 1    
    49   52   22 1    
    50   53   22 1    
    51   24   23 1    
    52   54   23 1    
    53   55   23 1    
    54   66   24 1    
    55   67   24 1    
    56   68   24 1    
    57   26   25 1    
    58   33   25 2    
    59   27   26 1    
    60   28   27 ar   
    61   32   27 ar   
    62   29   28 ar   
    63   56   28 1    
    64   30   29 ar   
    65   57   29 1    
    66   31   30 ar   
    67   58   30 1    
    68   32   31 ar   
    69   59   31 1    
    70   33   32 1    
@<TRIPOS>SUBSTRUCTURE
     1 DRH999      1 GROUP   
@<TRIPOS>SET

