#    Name: 3jxw_LXG_1_INTS_M
#    Modification time : Tue Mar 25 18:01:46 2014

@<TRIPOS>MOLECULE
3jxw_LXG_1_INTS_M
   64     0     9     0     0
SMALL
NO_CHARGES


@<TRIPOS>ATOM
      1 CA        -24.8355  -31.7970   -1.5025 C.3       3 GLC5        0.0000 
      2 CA        -23.8040  -30.7810   -2.2150 C.3       9 GLL5        0.0000 
      3 CA        -25.8670  -32.8130   -0.7900 C.3       6 GLP5        0.0000 
      4 CA        -23.9500  -29.6625   -0.6425 C.3       3 GLC5        0.0000 
      5 CA        -24.0960  -28.5440    0.9300 C.3       6 GLP5        0.0000 
      6 OD1       -22.3675  -29.4080   -1.6600 O.co2     2 ASC3        0.0000 
      7 OD1       -22.3860  -30.7450   -2.6910 O.co2     8 ASL3        0.0000 
      8 OD1       -22.3490  -28.0710   -0.6290 O.co2     5 ASP3        0.0000 
      9 N         -21.3670  -30.6005    2.3945 N.am      1 SEC2        0.0000 
     10 N         -22.1930  -31.5690    2.5440 N.am      7 SEL2        0.0000 
     11 N         -20.5410  -29.6320    2.2450 N.am      4 SEP2        0.0000 
     12 CA        -24.4105  -34.9890    4.2735 C.3       3 GLC5        0.0000 
     13 CA        -23.1440  -34.5910    2.5860 C.3       9 GLL5        0.0000 
     14 CA        -25.6770  -35.3870    5.9610 C.3       6 GLP5        0.0000 
     15 CA        -20.2705  -29.4870   -3.2420 C.3       3 GLC5        0.0000 
     16 CA        -21.8330  -29.4130   -3.0940 C.3       9 GLL5        0.0000 
     17 CA        -18.7080  -29.5610   -3.3900 C.3       6 GLP5        0.0000 
     18 CA        -19.8910  -31.0660   -2.2265 C.3       3 GLC5        0.0000 
     19 CA        -21.3750  -31.6060   -2.0380 C.3       9 GLL5        0.0000 
     20 CA        -18.4070  -30.5260   -2.4150 C.3       6 GLP5        0.0000 
     21 CA        -19.9025  -32.6995   -1.3970 C.3       3 GLC5        0.0000 
     22 CA        -18.4300  -33.7930   -0.7560 C.3       6 GLP5        0.0000 
     23 CA        -25.8605  -37.1375   -2.5160 C.3       3 GLC5        0.0000 
     24 CA        -24.1970  -38.3980   -2.7600 C.3       9 GLL5        0.0000 
     25 CA        -27.5240  -35.8770   -2.2720 C.3       6 GLP5        0.0000 
     26 CA        -27.2785  -39.0470   -5.5135 C.3       3 GLC5        0.0000 
     27 CA        -25.2410  -38.3800   -5.1440 C.3       9 GLL5        0.0000 
     28 CA        -29.3160  -39.7140   -5.8830 C.3       6 GLP5        0.0000 
     29 CA        -26.6865  -36.7395   -5.4250 C.3       3 GLC5        0.0000 
     30 CA        -28.1320  -35.0990   -5.7060 C.3       6 GLP5        0.0000 
     31 CA        -26.3825  -37.1285   -3.7080 C.3       3 GLC5        0.0000 
     32 CA        -24.4045  -39.7910    2.1665 C.3       3 GLC5        0.0000 
     33 CA        -23.9480  -38.0730    0.8640 C.3       9 GLL5        0.0000 
     34 CA        -24.8610  -41.5090    3.4690 C.3       6 GLP5        0.0000 
     35 CA        -25.3575  -37.1220    3.0550 C.3       3 GLC5        0.0000 
     36 CA        -23.8420  -37.1700    1.9080 C.3       9 GLL5        0.0000 
     37 CA        -26.8730  -37.0740    4.2020 C.3       6 GLP5        0.0000 
     38 CA        -21.8780  -34.2490    3.6745 C.3       3 GLC5        0.0000 
     39 CA        -22.5960  -33.5390    1.3380 C.3       9 GLL5        0.0000 
     40 CA        -20.8860  -34.4330    5.3870 C.3       6 GLP5        0.0000 
     41 CA        -25.1067  -34.4340    2.0005 C.3       3 GLC5        0.0000 
     42 CA        -26.9510  -33.6080    1.9400 C.3       6 GLP5        0.0000 
     43 CA        -20.9477  -35.8779   -0.1444 C.3       3 GLC5        0.0000 
     44 CA        -23.1460  -36.5070   -0.7790 C.3       9 GLL5        0.0000 
     45 CA        -18.9140  -36.0560    0.0040 C.3       6 GLP5        0.0000 
     46 CA        -21.8340  -39.1275   -1.3755 C.3       3 GLC5        0.0000 
     47 CA        -23.6160  -37.7740   -0.4540 C.3       9 GLL5        0.0000 
     48 CA        -19.9780  -39.9660   -1.7530 C.3       6 GLP5        0.0000 
     49 CA        -22.1770  -38.1923    1.4490 C.3       3 GLC5        0.0000 
     50 CA        -20.5720  -38.4610    2.6930 C.3       6 GLP5        0.0000 
     51 CA        -25.3285  -37.4960   -0.4595 C.3       3 GLC5        0.0000 
     52 CA        -26.9670  -36.7030    0.0790 C.3       6 GLP5        0.0000 
     53 CA        -25.3777  -40.0015   -2.3405 C.3       3 GLC5        0.0000 
     54 CA        -23.7640  -38.8040   -1.5420 C.3       9 GLL5        0.0000 
     55 CA        -26.7750  -41.4020   -2.5300 C.3       6 GLP5        0.0000 
     56 CA        -22.3362  -39.9010   -4.3057 C.3       3 GLC5        0.0000 
     57 CA        -24.4620  -39.0820   -4.0390 C.3       9 GLL5        0.0000 
     58 CA        -20.5550  -40.9530   -3.9430 C.3       6 GLP5        0.0000 
     59 CA        -25.8132  -40.0665   -3.5607 C.3       3 GLC5        0.0000 
     60 CA        -22.0918  -37.5053    2.2075 C.3       3 GLC5        0.0000 
     61 CA        -24.2867  -33.5144   -0.0121 C.3       3 GLC5        0.0000 
     62 CA        -22.5990  -34.2130    0.1530 C.3       9 GLL5        0.0000 
     63 CA        -25.2662  -36.7529    0.5439 C.3       3 GLC5        0.0000 
     64 CA        -23.3810  -35.9290    1.5360 C.3       9 GLL5        0.0000 
@<TRIPOS>BOND
@<TRIPOS>SUBSTRUCTURE
     1 SEC2        9 GROUP        1 X    SEC  0     ROOT SEC X 2
     2 ASC3        6 GROUP        1 X    ASC  0     **** ASC X 3
     3 GLC5        1 GROUP        1 X    GLC  0     **** GLC X 6
     4 SEP2       11 GROUP        1 Y    SEP  0     ROOT SEP Y 9
     5 ASP3        8 GROUP        1 Y    ASP  0     **** ASP Y 10
     6 GLP5        3 GROUP        1 Y    GLP  0     **** GLP Y 13
     7 SEL2       10 GROUP        1 Z    SEL  0     ROOT SEL Z 16
     8 ASL3        7 GROUP        1 Z    ASL  0     **** ASL Z 17
     9 GLL5        2 GROUP        1 Z    GLL  0     **** GLL Z 20
@<TRIPOS>SET

