#    Name: 3jxw_LXG_1_ligand
#    Modification time : Tue Mar 25 18:01:46 2014

@<TRIPOS>MOLECULE
3jxw_LXG_1_ligand
   43    46     1     0     0
SMALL
NO_CHARGES


@<TRIPOS>ATOM
      1 C1        -23.8040  -30.7810   -2.2150 C.3       1 LXG1000     0.0000 
      2 N1        -22.3860  -30.7450   -2.6910 N.4       1 LXG1000     0.0000 
      3 O1        -22.1930  -31.5690    2.5440 O.2       1 LXG1000     0.0000 
      4 S1        -23.1440  -34.5910    2.5860 S.3       1 LXG1000     0.0000 
      5 C2        -21.8330  -29.4130   -3.0940 C.3       1 LXG1000     0.0000 
      6 N2        -22.1860  -33.5700   -1.0310 N.2       1 LXG1000     0.0000 
      7 C3        -21.3750  -31.6060   -2.0380 C.3       1 LXG1000     0.0000 
      8 N3        -21.7900  -31.6270    0.2900 N.am      1 LXG1000     0.0000 
      9 C4        -21.8280  -32.3440   -0.8610 C.2       1 LXG1000     0.0000 
     10 C5        -22.5990  -34.2130    0.1530 C.2       1 LXG1000     0.0000 
     11 C6        -23.0350  -35.5720    0.2340 C.ar      1 LXG1000     0.0000 
     12 C7        -23.1460  -36.5070   -0.7790 C.ar      1 LXG1000     0.0000 
     13 C8        -23.6160  -37.7740   -0.4540 C.ar      1 LXG1000     0.0000 
     14 C9        -23.7640  -38.8040   -1.5420 C.2       1 LXG1000     0.0000 
     15 C10       -24.1970  -38.3980   -2.7600 C.2       1 LXG1000     0.0000 
     16 C11       -24.4620  -39.0820   -4.0390 C.3       1 LXG1000     0.0000 
     17 C12       -25.2410  -38.3800   -5.1440 C.3       1 LXG1000     0.0000 
     18 C13       -23.7730  -38.6160   -5.2980 C.3       1 LXG1000     0.0000 
     19 C14       -23.9480  -38.0730    0.8640 C.ar      1 LXG1000     0.0000 
     20 C15       -23.8420  -37.1700    1.9080 C.ar      1 LXG1000     0.0000 
     21 C16       -23.3810  -35.9290    1.5360 C.ar      1 LXG1000     0.0000 
     22 C17       -22.5960  -33.5390    1.3380 C.2       1 LXG1000     0.0000 
     23 C18       -22.1910  -32.1800    1.4910 C.2       1 LXG1000     0.0000 
     24 H         -22.4788  -31.2854   -3.7956 H         1 LXG1000     0.0000 
     25 H         -20.4875  -30.9739   -1.7634 H         1 LXG1000     0.0000 
     26 H         -20.9719  -32.3279   -2.7988 H         1 LXG1000     0.0000 
     27 H         -21.4536  -30.6391    0.2796 H         1 LXG1000     0.0000 
     28 H         -22.8916  -36.2770   -1.7364 H         1 LXG1000     0.0000 
     29 H         -23.5297  -39.7524   -1.3017 H         1 LXG1000     0.0000 
     30 H         -24.4131  -37.2964   -2.8536 H         1 LXG1000     0.0000 
     31 H         -24.6338  -40.0435   -4.1823 H         1 LXG1000     0.0000 
     32 H         -25.3761  -37.4812   -4.8712 H         1 LXG1000     0.0000 
     33 H         -25.7076  -39.0468   -5.6321 H         1 LXG1000     0.0000 
     34 H         -23.6439  -39.3722   -5.8615 H         1 LXG1000     0.0000 
     35 H         -23.3124  -37.8066   -5.1006 H         1 LXG1000     0.0000 
     36 H         -24.3006  -39.0450    1.0769 H         1 LXG1000     0.0000 
     37 H         -24.0795  -37.4029    2.8429 H         1 LXG1000     0.0000 
     38 H         -24.0884  -31.7065   -1.9650 H         1 LXG1000     0.0000 
     39 H         -23.9400  -30.2048   -1.4091 H         1 LXG1000     0.0000 
     40 H         -24.4395  -30.4585   -2.9165 H         1 LXG1000     0.0000 
     41 H         -20.8822  -29.4816   -3.3960 H         1 LXG1000     0.0000 
     42 H         -22.3513  -29.0082   -3.8473 H         1 LXG1000     0.0000 
     43 H         -21.8541  -28.7582   -2.3385 H         1 LXG1000     0.0000 
@<TRIPOS>BOND
     1    2    1 1    
     2   38    1 1    
     3   39    1 1    
     4   40    1 1    
     5    5    2 1    
     6    7    2 1    
     7   24    2 1    
     8   23    3 2    
     9   21    4 1    
    10   22    4 1    
    11   41    5 1    
    12   42    5 1    
    13   43    5 1    
    14    9    6 2    
    15   10    6 1    
    16    9    7 1    
    17   25    7 1    
    18   26    7 1    
    19    9    8 1    
    20   23    8 am   
    21   27    8 1    
    22   11   10 1    
    23   22   10 2    
    24   12   11 ar   
    25   21   11 ar   
    26   13   12 ar   
    27   28   12 1    
    28   14   13 1    
    29   19   13 ar   
    30   15   14 2    
    31   29   14 1    
    32   16   15 1    
    33   30   15 1    
    34   17   16 1    
    35   18   16 1    
    36   31   16 1    
    37   18   17 1    
    38   32   17 1    
    39   33   17 1    
    40   34   18 1    
    41   35   18 1    
    42   20   19 ar   
    43   36   19 1    
    44   21   20 ar   
    45   37   20 1    
    46   23   22 1    
@<TRIPOS>SUBSTRUCTURE
     1 LXG1000     1 GROUP   
@<TRIPOS>SET

