#    Name: 3nu3_478_1_INTS_M
#    Modification time : Tue Mar 25 02:36:12 2014

@<TRIPOS>MOLECULE
3nu3_478_1_INTS_M
   81     0     9     0     0
SMALL
NO_CHARGES


@<TRIPOS>ATOM
      1 CA         11.8950   20.0130   20.1580 C.3       3 GLC5        0.0000 
      2 CA         12.4560   18.0160   19.7620 C.3       9 GLL5        0.0000 
      3 CA         11.3340   22.0100   20.5540 C.3       6 GLP5        0.0000 
      4 CA         12.8765   15.8630   19.7570 C.3       3 GLC5        0.0000 
      5 CA         13.2970   13.7100   19.7520 C.3       6 GLP5        0.0000 
      6 CA         15.8965   19.7265   22.0015 C.3       3 GLC5        0.0000 
      7 CA         14.4290   18.7200   20.8760 C.3       9 GLL5        0.0000 
      8 CA         17.3640   20.7330   23.1270 C.3       6 GLP5        0.0000 
      9 CA         11.5700   23.1120   14.8465 C.3       3 GLC5        0.0000 
     10 CA         12.7980   21.4770   14.9830 C.3       9 GLL5        0.0000 
     11 CA         10.3420   24.7470   14.7100 C.3       6 GLP5        0.0000 
     12 CA         15.2030   19.3920   11.6085 C.3       3 GLC5        0.0000 
     13 CA         14.6940   20.2900   13.3760 C.3       9 GLL5        0.0000 
     14 CA         15.7120   18.4940    9.8410 C.3       6 GLP5        0.0000 
     15 CA         13.8335   19.2580   11.5010 C.3       3 GLC5        0.0000 
     16 CA         13.4110   19.8100   13.4310 C.3       9 GLL5        0.0000 
     17 CA         14.2560   18.7060    9.5710 C.3       6 GLP5        0.0000 
     18 CA         17.2020   26.7750   17.5045 C.3       3 GLC5        0.0000 
     19 CA         16.7590   24.6690   17.5750 C.3       9 GLL5        0.0000 
     20 CA         17.6450   28.8810   17.4340 C.3       6 GLP5        0.0000 
     21 CA         16.9695   25.5610   13.6530 C.3       3 GLC5        0.0000 
     22 CA         18.7370   26.0010   14.6500 C.3       9 GLL5        0.0000 
     23 CA         15.2020   25.1210   12.6560 C.3       6 GLP5        0.0000 
     24 CA         22.7395   26.0170   13.7690 C.3       3 GLC5        0.0000 
     25 CA         21.4030   26.5730   15.1280 C.3       9 GLL5        0.0000 
     26 CA         24.0760   25.4610   12.4100 C.3       6 GLP5        0.0000 
     27 CA         18.4100   20.0585   19.9905 C.3       3 GLC5        0.0000 
     28 CA         18.6000   22.2940   19.9200 C.3       9 GLL5        0.0000 
     29 CA         18.2200   17.8230   20.0610 C.3       6 GLP5        0.0000 
     30 CA         20.2925   21.5470   20.7995 C.3       3 GLC5        0.0000 
     31 CA         21.9850   20.8000   21.6790 C.3       6 GLP5        0.0000 
     32 CA         17.9820   21.5135   21.5235 C.3       3 GLC5        0.0000 
     33 CA         18.9690   25.4310   22.2610 C.3       3 GLC5        0.0000 
     34 CA         19.6840   24.2860   20.9880 C.3       9 GLL5        0.0000 
     35 CA         18.2540   26.5760   23.5340 C.3       6 GLP5        0.0000 
     36 CA         20.8345   22.5430   21.3335 C.3       3 GLC5        0.0000 
     37 CA         20.1085   23.8965   22.9530 C.3       3 GLC5        0.0000 
     38 CA         20.5330   23.5070   24.9180 C.3       6 GLP5        0.0000 
     39 CA         11.6910   17.5250   22.6645 C.3       3 GLC5        0.0000 
     40 CA         13.2970   18.3110   21.8450 C.3       9 GLL5        0.0000 
     41 CA         10.0850   16.7390   23.4840 C.3       6 GLP5        0.0000 
     42 O          12.8185   22.2970   17.8915 O.2       1 ALC1        0.0000 
     43 O          14.2780   21.7450   17.9010 O.2       7 ALL1        0.0000 
     44 O          11.3590   22.8490   17.8820 O.2       4 ALP1        0.0000 
     45 O          19.9140   29.4875   13.4670 O.2       1 ALC1        0.0000 
     46 O          21.1080   28.6900   14.0090 O.2       7 ALL1        0.0000 
     47 O          18.7200   30.2850   12.9250 O.2       4 ALP1        0.0000 
     48 N          13.9875   25.9510   18.4930 N.am      2 SEC2        0.0000 
     49 N          14.4720   24.5600   18.4230 N.am      8 SEL2        0.0000 
     50 N          13.5030   27.3420   18.5630 N.am      5 SEP2        0.0000 
     51 O          14.0315   25.0825   19.6005 O.2       1 ALC1        0.0000 
     52 O          14.4720   24.5600   18.4230 O.2       7 ALL1        0.0000 
     53 O          13.5910   25.6050   20.7780 O.2       4 ALP1        0.0000 
     54 O          14.8465   24.4055   19.9310 O.2       1 ALC1        0.0000 
     55 O          15.2210   24.2510   21.4390 O.2       4 ALP1        0.0000 
     56 N          10.7730   18.7035   21.8550 N.am      2 SEC2        0.0000 
     57 N          12.0980   18.4530   21.0540 N.am      8 SEL2        0.0000 
     58 N           9.4480   18.9540   22.6560 N.am      5 SEP2        0.0000 
     59 CA         16.1758   18.2355   20.1202 C.3       3 GLC5        0.0000 
     60 CA         14.8895   18.0787   22.9278 C.3       3 GLC5        0.0000 
     61 CA         15.9160   17.6420   24.4950 C.3       6 GLP5        0.0000 
     62 CA         14.4090   16.5467   21.3922 C.3       3 GLC5        0.0000 
     63 CA         14.9550   14.5780   21.4240 C.3       6 GLP5        0.0000 
     64 CA         14.9260   23.5420   13.7300 C.3       3 GLC5        0.0000 
     65 CA         14.0720   21.9840   14.9890 C.3       9 GLL5        0.0000 
     66 CA         16.6995   20.2772   13.3715 C.3       3 GLC5        0.0000 
     67 CA         18.5410   19.7240   12.9760 C.3       6 GLP5        0.0000 
     68 CA         11.8562   20.6095   12.2445 C.3       3 GLC5        0.0000 
     69 CA         10.7810   21.1240   10.6600 C.3       6 GLP5        0.0000 
     70 CA         15.2948   19.0481   14.5310 C.3       3 GLC5        0.0000 
     71 CA         16.4550   17.7760   15.4630 C.3       6 GLP5        0.0000 
     72 CA         18.4213   26.6970   12.3895 C.3       3 GLC5        0.0000 
     73 CA         19.2680   27.1610   14.1740 C.3       9 GLL5        0.0000 
     74 CA         17.8400   26.8130   10.3670 C.3       6 GLP5        0.0000 
     75 CA         20.9093   26.4760   12.7030 C.3       3 GLC5        0.0000 
     76 CA         21.8820   25.6440   11.1320 C.3       6 GLP5        0.0000 
     77 CA         18.3329   27.8785   15.2765 C.3       3 GLC5        0.0000 
     78 CA         20.6050   27.4550   14.3740 C.3       9 GLL5        0.0000 
     79 CA         16.8620   28.7390   16.1600 C.3       6 GLP5        0.0000 
     80 CA         13.0126   20.2192   21.3696 C.3       3 GLC5        0.0000 
     81 CA         12.3110   21.9590   21.7270 C.3       6 GLP5        0.0000 
@<TRIPOS>BOND
@<TRIPOS>SUBSTRUCTURE
     1 ALC1       42 GROUP        1 X    ALC  0     ROOT ALC X 1
     2 SEC2       48 GROUP        1 X    SEC  0     **** SEC X 2
     3 GLC5        1 GROUP        1 X    GLC  0     **** GLC X 6
     4 ALP1       44 GROUP        1 Y    ALP  0     ROOT ALP Y 8
     5 SEP2       50 GROUP        1 Y    SEP  0     **** SEP Y 9
     6 GLP5        3 GROUP        1 Y    GLP  0     **** GLP Y 13
     7 ALL1       43 GROUP        1 Z    ALL  0     ROOT ALL Z 15
     8 SEL2       49 GROUP        1 Z    SEL  0     **** SEL Z 16
     9 GLL5        2 GROUP        1 Z    GLL  0     **** GLL Z 20
@<TRIPOS>SET

