#    Name: 3nu3_478_1_ligand
#    Modification time : Tue Mar 25 02:36:12 2014

@<TRIPOS>MOLECULE
3nu3_478_1_ligand
   70    72     1     0     0
SMALL
NO_CHARGES


@<TRIPOS>ATOM
      1 C1         12.4560   18.0160   19.7620 C.3       1 478401      0.0000 
      2 C2         14.4290   18.7200   20.8760 C.3       1 478401      0.0000 
      3 C3         14.6150   20.5140   18.2890 C.2       1 478401      0.0000 
      4 C4         13.8340   18.5760   19.4830 C.3       1 478401      0.0000 
      5 C5         15.1800   22.6440   17.1740 C.3       1 478401      0.0000 
      6 C6         15.6420   23.7670   18.0870 C.3       1 478401      0.0000 
      7 C7         14.4840   23.1260   15.9110 C.3       1 478401      0.0000 
      8 C8         14.0720   21.9840   14.9890 C.ar      1 478401      0.0000 
      9 C9         12.7980   21.4770   14.9830 C.ar      1 478401      0.0000 
     10 C10        15.0220   21.3710   14.1580 C.ar      1 478401      0.0000 
     11 C11        12.4520   20.3800   14.2270 C.ar      1 478401      0.0000 
     12 C12        14.6940   20.2900   13.3760 C.ar      1 478401      0.0000 
     13 C13        13.4110   19.8100   13.4310 C.ar      1 478401      0.0000 
     14 C14        16.7590   24.6690   17.5750 C.3       1 478401      0.0000 
     15 C15        19.0180   24.3960   18.5690 C.3       1 478401      0.0000 
     16 C16        18.6750   23.8240   19.9270 C.3       1 478401      0.0000 
     17 C17        19.5070   25.0860   15.3930 C.ar      1 478401      0.0000 
     18 C18        18.7370   26.0010   14.6500 C.ar      1 478401      0.0000 
     19 C19        19.2680   27.1610   14.1740 C.ar      1 478401      0.0000 
     20 C20        20.6050   27.4550   14.3740 C.ar      1 478401      0.0000 
     21 C21        21.4030   26.5730   15.1280 C.ar      1 478401      0.0000 
     22 C22        20.8550   25.3770   15.6600 C.ar      1 478401      0.0000 
     23 C23        18.6000   22.2940   19.9200 C.3       1 478401      0.0000 
     24 C24        19.6840   24.2860   20.9880 C.3       1 478401      0.0000 
     25 C25        13.2970   18.3110   21.8450 C.3       1 478401      0.0000 
     26 N1         14.2780   21.7450   17.9010 N.am      1 478401      0.0000 
     27 N2         18.0690   24.0060   17.5200 N.pl3     1 478401      0.0000 
     28 N3         21.1080   28.6900   14.0090 N.pl3     1 478401      0.0000 
     29 O1         13.5750   19.8880   18.8630 O.3       1 478401      0.0000 
     30 O2         15.7730   19.9990   18.1850 O.2       1 478401      0.0000 
     31 O3         14.4720   24.5600   18.4230 O.3       1 478401      0.0000 
     32 O4         17.6060   23.4010   15.1600 O.2       1 478401      0.0000 
     33 O5         19.7300   22.6620   16.2780 O.2       1 478401      0.0000 
     34 O6         12.0980   18.4530   21.0540 O.3       1 478401      0.0000 
     35 S1         18.7070   23.6850   16.0520 S.o2      1 478401      0.0000 
     36 H          12.5112   16.9324   19.6929 H         1 478401      0.0000 
     37 H          11.7787   18.3884   18.9975 H         1 478401      0.0000 
     38 H          14.6958   19.7345   21.0578 H         1 478401      0.0000 
     39 H          15.2498   18.0525   20.9951 H         1 478401      0.0000 
     40 H          14.3662   17.9331   18.9021 H         1 478401      0.0000 
     41 H          16.0656   22.0696   16.8680 H         1 478401      0.0000 
     42 H          15.9977   23.2937   19.0303 H         1 478401      0.0000 
     43 H          15.1558   23.8023   15.3647 H         1 478401      0.0000 
     44 H          13.5904   23.7016   16.1889 H         1 478401      0.0000 
     45 H          12.0631   21.9375   15.5716 H         1 478401      0.0000 
     46 H          15.9878   21.7510   14.1427 H         1 478401      0.0000 
     47 H          11.5026   20.0020   14.2604 H         1 478401      0.0000 
     48 H          15.3920   19.8543   12.7672 H         1 478401      0.0000 
     49 H          13.1549   18.9781   12.8437 H         1 478401      0.0000 
     50 H          16.8076   25.5614   18.2289 H         1 478401      0.0000 
     51 H          16.4719   25.0356   16.5703 H         1 478401      0.0000 
     52 H          20.0409   24.0673   18.3001 H         1 478401      0.0000 
     53 H          19.0596   25.4994   18.6554 H         1 478401      0.0000 
     54 H          17.6923   24.2041   20.2289 H         1 478401      0.0000 
     55 H          17.7377   25.7665   14.4705 H         1 478401      0.0000 
     56 H          18.6735   27.8358   13.6562 H         1 478401      0.0000 
     57 H          22.3900   26.7929   15.2968 H         1 478401      0.0000 
     58 H          21.4246   24.7559   16.2151 H         1 478401      0.0000 
     59 H          13.3145   18.9821   22.6768 H         1 478401      0.0000 
     60 H          13.4666   17.2989   22.1441 H         1 478401      0.0000 
     61 H          13.3242   22.1430   18.1020 H         1 478401      0.0000 
     62 H          20.4504   29.3357   13.6208 H         1 478401      0.0000 
     63 H          22.0857   28.8304   14.1649 H         1 478401      0.0000 
     64 H          19.4675   21.8809   19.6430 H         1 478401      0.0000 
     65 H          18.3769   21.9290   20.8239 H         1 478401      0.0000 
     66 H          17.9010   21.9593   19.2880 H         1 478401      0.0000 
     67 H          20.6152   23.9971   20.7657 H         1 478401      0.0000 
     68 H          19.6994   25.2819   21.0771 H         1 478401      0.0000 
     69 H          19.4696   23.9142   21.8912 H         1 478401      0.0000 
     70 H          14.4230   24.5385   19.4215 H         1 478401      0.0000 
@<TRIPOS>BOND
     1    4    1 1    
     2   34    1 1    
     3   36    1 1    
     4   37    1 1    
     5    4    2 1    
     6   25    2 1    
     7   38    2 1    
     8   39    2 1    
     9   26    3 am   
    10   29    3 1    
    11   30    3 2    
    12   29    4 1    
    13   40    4 1    
    14    6    5 1    
    15    7    5 1    
    16   26    5 1    
    17   41    5 1    
    18   14    6 1    
    19   31    6 1    
    20   42    6 1    
    21    8    7 1    
    22   43    7 1    
    23   44    7 1    
    24    9    8 ar   
    25   10    8 ar   
    26   11    9 ar   
    27   45    9 1    
    28   12   10 ar   
    29   46   10 1    
    30   13   11 ar   
    31   47   11 1    
    32   13   12 ar   
    33   48   12 1    
    34   49   13 1    
    35   27   14 1    
    36   50   14 1    
    37   51   14 1    
    38   16   15 1    
    39   27   15 1    
    40   52   15 1    
    41   53   15 1    
    42   23   16 1    
    43   24   16 1    
    44   54   16 1    
    45   18   17 ar   
    46   22   17 ar   
    47   35   17 1    
    48   19   18 ar   
    49   55   18 1    
    50   20   19 ar   
    51   56   19 1    
    52   21   20 ar   
    53   28   20 1    
    54   22   21 ar   
    55   57   21 1    
    56   58   22 1    
    57   64   23 1    
    58   65   23 1    
    59   66   23 1    
    60   67   24 1    
    61   68   24 1    
    62   69   24 1    
    63   34   25 1    
    64   59   25 1    
    65   60   25 1    
    66   61   26 1    
    67   35   27 1    
    68   62   28 1    
    69   63   28 1    
    70   70   31 1    
    71   35   32 2    
    72   35   33 2    
@<TRIPOS>SUBSTRUCTURE
     1 478401      1 GROUP   
@<TRIPOS>SET

