#    Name: 4HLF_1_CAVITY_N1_ALL.mol2
#    Modification time : Tue Mar 11 02:38:12 2014

@<TRIPOS>MOLECULE
4HLF_1_CAVITY_N1_ALL.mol2
   69     0     6     0     0
SMALL
NO_CHARGES


@<TRIPOS>ATOM
      1 CA         -4.6577  -36.9531    6.5243 C.3       5 GLY6        0.0000 
      2 CA         -5.9767  -36.2410    6.5821 C.3       5 GLY6        0.0000 
      3 N          -5.2164  -37.9053    5.5088 N.2       2 ALA2        0.0000 
      4 CA         -6.5353  -37.1933    5.5666 C.3       5 GLY6        0.0000 
      5 CA         -7.8542  -36.4812    5.6244 C.3       5 GLY6        0.0000 
      6 N          -4.4560  -39.5697    4.4356 N.2       2 ALA2        0.0000 
      7 CZ         -5.7750  -38.8576    4.4934 C.ar      4 PHE5        0.0000 
      8 CZ         -7.0939  -38.1455    4.5512 C.ar      4 PHE5        0.0000 
      9 CZ         -8.4128  -37.4334    4.6090 C.ar      4 PHE5        0.0000 
     10 CA         -9.7318  -36.7213    4.6667 C.3       5 GLY6        0.0000 
     11 CZ         -7.6525  -39.0978    3.5357 C.ar      4 PHE5        0.0000 
     12 CZ         -8.9714  -38.3857    3.5935 C.ar      4 PHE5        0.0000 
     13 CZ         -5.8635  -36.2031    8.7000 C.ar      4 PHE5        0.0000 
     14 CA         -5.1031  -37.8675    7.6268 C.3       5 GLY6        0.0000 
     15 CA         -6.4221  -37.1554    7.6846 C.3       5 GLY6        0.0000 
     16 CA         -7.7410  -36.4433    7.7424 C.3       5 GLY6        0.0000 
     17 N          -5.6617  -38.8198    6.6113 N.2       2 ALA2        0.0000 
     18 DU         -6.9807  -38.1077    6.6691 H         6 CUB7        0.0000 
     19 CA         -8.2996  -37.3956    6.7269 C.3       5 GLY6        0.0000 
     20 CA         -9.6185  -36.6835    6.7847 C.3       5 GLY6        0.0000 
     21 N          -4.9014  -40.4841    5.5381 N.2       2 ALA2        0.0000 
     22 CZ         -6.2203  -39.7720    5.5959 C.ar      4 PHE5        0.0000 
     23 CZ         -7.5393  -39.0599    5.6537 C.ar      4 PHE5        0.0000 
     24 CZ         -8.8582  -38.3478    5.7115 C.ar      4 PHE5        0.0000 
     25 CA        -10.1772  -37.6358    5.7692 C.3       5 GLY6        0.0000 
     26 OG         -4.8347  -31.6442   14.9376 O.2       1 SER1        0.0000 
     27 CA         -4.4313  -36.8774   10.7602 C.3       5 GLY6        0.0000 
     28 CZ         -5.7502  -36.1653   10.8180 C.ar      4 PHE5        0.0000 
     29 CA         -4.9899  -37.8296    9.7448 C.3       5 GLY6        0.0000 
     30 CZ         -6.3088  -37.1176    9.8025 C.ar      4 PHE5        0.0000 
     31 N          -5.5485  -38.7819    8.7293 N.2       2 ALA2        0.0000 
     32 DU         -6.8674  -38.0698    8.7871 H         6 CUB7        0.0000 
     33 CA         -8.1864  -37.3577    8.8449 C.3       5 GLY6        0.0000 
     34 N          -6.1071  -39.7342    7.7138 N.2       2 ALA2        0.0000 
     35 CA         -7.4260  -39.0221    7.7716 C.3       5 GLY6        0.0000 
     36 CA         -8.7450  -38.3100    7.8294 C.3       5 GLY6        0.0000 
     37 CZ         -6.6657  -40.6864    6.6984 C.ar      4 PHE5        0.0000 
     38 CZ         -7.9847  -39.9743    6.7562 C.ar      4 PHE5        0.0000 
     39 NZ         -4.5198  -34.2229   14.9669 N.2       3 LYS4        0.0000 
     40 CA         -5.0784  -35.1752   13.9514 C.3       5 GLY6        0.0000 
     41 CA         -5.6370  -36.1274   12.9360 C.3       5 GLY6        0.0000 
     42 CA         -4.8767  -37.7918   11.8627 C.3       5 GLY6        0.0000 
     43 CZ         -6.1956  -37.0797   11.9205 C.ar      4 PHE5        0.0000 
     44 N          -5.4353  -38.7440   10.8473 N.2       2 ALA2        0.0000 
     45 N          -6.7542  -38.0320   10.9050 N.2       2 ALA2        0.0000 
     46 N          -5.9939  -39.6963    9.8318 N.2       2 ALA2        0.0000 
     47 N          -7.3128  -38.9842    9.8896 N.2       2 ALA2        0.0000 
     48 N          -6.5525  -40.6486    8.8163 N.2       2 ALA2        0.0000 
     49 NZ         -4.9652  -35.1373   16.0694 N.2       3 LYS4        0.0000 
     50 CA         -6.2841  -34.4252   16.1272 C.3       5 GLY6        0.0000 
     51 CA         -5.5238  -36.0896   15.0539 C.3       5 GLY6        0.0000 
     52 CZ         -6.8427  -35.3775   15.1117 C.ar      4 PHE5        0.0000 
     53 CA         -6.0824  -37.0418   14.0385 C.3       5 GLY6        0.0000 
     54 CZ         -7.4013  -36.3298   14.0962 C.ar      4 PHE5        0.0000 
     55 N          -5.3220  -38.7062   12.9652 N.2       2 ALA2        0.0000 
     56 N          -6.6410  -37.9941   13.0230 N.2       2 ALA2        0.0000 
     57 CA         -7.9599  -37.2820   13.0808 C.3       5 GLY6        0.0000 
     58 N          -7.1996  -38.9464   12.0075 N.2       2 ALA2        0.0000 
     59 O          -5.9691  -37.0040   16.1564 O.2       2 ALA2        0.0000 
     60 OG         -7.2881  -36.2919   16.2142 O.2       1 SER1        0.0000 
     61 N          -6.5277  -37.9563   15.1410 N.2       2 ALA2        0.0000 
     62 OG         -7.8467  -37.2442   15.1987 O.2       1 SER1        0.0000 
     63 O          -8.4053  -38.1964   14.1833 O.2       2 ALA2        0.0000 
     64 CA         -3.7670  -35.1243    4.3193 C.3       5 GLY6        0.0000 
     65 O          -2.8934  -36.7508    5.3640 O.2       2 ALA2        0.0000 
     66 CA         -4.2124  -36.0387    5.4218 C.3       5 GLY6        0.0000 
     67 N          -3.4520  -37.7030    4.3486 N.2       2 ALA2        0.0000 
     68 CA         -4.7710  -36.9909    4.4063 C.3       5 GLY6        0.0000 
     69 CA         -6.6485  -37.2311    3.4487 C.3       5 GLY6        0.0000 
@<TRIPOS>BOND
@<TRIPOS>SUBSTRUCTURE
     1 SER1       26 GROUP   
     2 ALA2        3 GROUP   
     3 LYS4       39 GROUP   
     4 PHE5        7 GROUP   
     5 GLY6        1 GROUP   
     6 CUB7       18 GROUP   
@<TRIPOS>SET

