#    Name: 4hlf_15Z_1_INTS_M
#    Modification time : Tue Mar 25 01:10:49 2014

@<TRIPOS>MOLECULE
4hlf_15Z_1_INTS_M
   50     0     9     0     0
SMALL
NO_CHARGES


@<TRIPOS>ATOM
      1 CA         -6.2640  -35.4000    7.2895 C.3       3 GLC5        0.0000 
      2 CA         -5.6250  -36.9470    8.2690 C.3       9 GLL5        0.0000 
      3 CA         -6.9030  -33.8530    6.3100 C.3       6 GLP5        0.0000 
      4 CA         -8.1540  -36.7165   10.9700 C.3       3 GLC5        0.0000 
      5 CA         -6.4360  -37.7130   10.4300 C.3       9 GLL5        0.0000 
      6 CA         -9.8720  -35.7200   11.5100 C.3       6 GLP5        0.0000 
      7 CA         -4.7355  -37.6175   12.8935 C.3       3 GLC5        0.0000 
      8 CA         -6.5570  -37.4520   11.8150 C.3       9 GLL5        0.0000 
      9 CA         -2.9140  -37.7830   13.9720 C.3       6 GLP5        0.0000 
     10 CA         -7.6865  -36.0615   11.7755 C.3       3 GLC5        0.0000 
     11 CA         -8.8160  -34.6710   11.7360 C.3       6 GLP5        0.0000 
     12 CA         -6.2940  -33.3775   16.1435 C.3       3 GLC5        0.0000 
     13 CA         -4.7670  -34.6110   15.1820 C.3       9 GLL5        0.0000 
     14 CA         -7.8210  -32.1440   17.1050 C.3       6 GLP5        0.0000 
     15 O          -3.7480  -33.0885   16.5715 O.2       1 ALC1        0.0000 
     16 O          -3.8990  -33.5680   15.4850 O.2       7 ALL1        0.0000 
     17 O          -3.5970  -32.6090   17.6580 O.2       4 ALP1        0.0000 
     18 CA         -4.6700  -34.4895   17.9755 C.3       3 GLC5        0.0000 
     19 CA         -5.5150  -35.2960   16.1480 C.3       9 GLL5        0.0000 
     20 CA         -3.8250  -33.6830   19.8030 C.3       6 GLP5        0.0000 
     21 CA         -5.4580  -38.0615   16.7675 C.3       3 GLC5        0.0000 
     22 CA         -6.3960  -36.3550   15.8040 C.3       9 GLL5        0.0000 
     23 CA         -4.5200  -39.7680   17.7310 C.3       6 GLP5        0.0000 
     24 CA         -8.5665  -36.4005   16.1075 C.3       3 GLC5        0.0000 
     25 CA        -10.7370  -36.4460   16.4110 C.3       6 GLP5        0.0000 
     26 N          -9.2620  -39.2535   14.5485 N.am      2 SEC2        0.0000 
     27 N          -8.2180  -38.3160   14.8100 N.am      8 SEL2        0.0000 
     28 N         -10.3060  -40.1910   14.2870 N.am      5 SEP2        0.0000 
     29 N          -8.7745  -38.2525   16.1225 N.am      2 SEC2        0.0000 
     30 N          -9.3310  -38.1890   17.4350 N.am      5 SEP2        0.0000 
     31 CA         -7.5240  -40.2510   13.3060 C.3       3 GLC5        0.0000 
     32 CA         -7.4140  -38.1120   12.6970 C.3       9 GLL5        0.0000 
     33 CA         -7.6340  -42.3900   13.9150 C.3       6 GLP5        0.0000 
     34 CA         -9.4310  -38.9970   13.0690 C.3       3 GLC5        0.0000 
     35 CA        -11.4480  -39.8820   13.4410 C.3       6 GLP5        0.0000 
     36 CA         -8.6430  -36.9160   12.1035 C.3       3 GLC5        0.0000 
     37 CA         -8.4927  -39.9365    9.1777 C.3       3 GLC5        0.0000 
     38 CA         -6.9070  -38.8830    9.8070 C.3       9 GLL5        0.0000 
     39 CA        -10.1670  -40.9020    9.2350 C.3       6 GLP5        0.0000 
     40 CA         -3.9905  -36.8885    8.9865 C.3       3 GLC5        0.0000 
     41 CA         -5.7870  -36.7540    9.6320 C.3       9 GLL5        0.0000 
     42 CA         -2.1540  -36.6380    9.1710 C.3       6 GLP5        0.0000 
     43 CA         -4.1143  -36.6562   13.8340 C.3       3 GLC5        0.0000 
     44 CA         -5.7490  -36.0410   13.5310 C.3       9 GLL5        0.0000 
     45 CA         -4.0275  -36.3683   14.8185 C.3       3 GLC5        0.0000 
     46 CA         -6.5697  -36.1527   17.7900 C.3       3 GLC5        0.0000 
     47 CA         -7.1840  -36.4800   19.6040 C.3       6 GLP5        0.0000 
     48 CA         -6.8927  -34.5087   17.0985 C.3       3 GLC5        0.0000 
     49 CA         -7.8300  -33.1920   18.2210 C.3       6 GLP5        0.0000 
     50 CA         -4.6888  -37.1617   14.5525 C.3       3 GLC5        0.0000 
@<TRIPOS>BOND
@<TRIPOS>SUBSTRUCTURE
     1 ALC1       15 GROUP        1 X    ALC  0     ROOT ALC X 1
     2 SEC2       26 GROUP        1 X    SEC  0     **** SEC X 2
     3 GLC5        1 GROUP        1 X    GLC  0     **** GLC X 6
     4 ALP1       17 GROUP        1 Y    ALP  0     ROOT ALP Y 8
     5 SEP2       28 GROUP        1 Y    SEP  0     **** SEP Y 9
     6 GLP5        3 GROUP        1 Y    GLP  0     **** GLP Y 13
     7 ALL1       16 GROUP        1 Z    ALL  0     ROOT ALL Z 15
     8 SEL2       27 GROUP        1 Z    SEL  0     **** SEL Z 16
     9 GLL5        2 GROUP        1 Z    GLL  0     **** GLL Z 20
@<TRIPOS>SET

