#    Name: 4hlf_15Z_1_ligand
#    Modification time : Tue Mar 25 01:10:49 2014

@<TRIPOS>MOLECULE
4hlf_15Z_1_ligand
   30    32     1     0     0
SMALL
NO_CHARGES


@<TRIPOS>ATOM
      1 CAM        -6.9070  -38.8830    9.8070 C.ar      1 15Z1205     0.0000 
      2 CAL        -6.7300  -39.0590    8.4340 C.ar      1 15Z1205     0.0000 
      3 OAT        -7.1710  -40.1360    7.7560 O.3       1 15Z1205     0.0000 
      4 CAP        -6.1090  -38.1010    7.6750 C.ar      1 15Z1205     0.0000 
      5 OAS        -6.0220  -38.3290    6.3400 O.3       1 15Z1205     0.0000 
      6 CAO        -5.6250  -36.9470    8.2690 C.ar      1 15Z1205     0.0000 
      7 CAN        -5.7870  -36.7540    9.6320 C.ar      1 15Z1205     0.0000 
      8 CAK        -6.4360  -37.7130   10.4300 C.ar      1 15Z1205     0.0000 
      9 CAJ        -6.5570  -37.4520   11.8150 C.2       1 15Z1205     0.0000 
     10 OAG        -5.8080  -36.3960   12.2310 O.3       1 15Z1205     0.0000 
     11 CAF        -5.7490  -36.0410   13.5310 C.ar      1 15Z1205     0.0000 
     12 CAA        -4.8800  -35.0180   13.8610 C.ar      1 15Z1205     0.0000 
     13 CAB        -4.7670  -34.6110   15.1820 C.ar      1 15Z1205     0.0000 
     14 OAR        -3.8990  -33.5680   15.4850 O.3       1 15Z1205     0.0000 
     15 CAC        -5.5150  -35.2960   16.1480 C.ar      1 15Z1205     0.0000 
     16 CAD        -6.3960  -36.3550   15.8040 C.ar      1 15Z1205     0.0000 
     17 CAE        -6.5310  -36.7260   14.4620 C.ar      1 15Z1205     0.0000 
     18 CAH        -7.3910  -37.7810   14.0410 C.2       1 15Z1205     0.0000 
     19 OAQ        -8.2180  -38.3160   14.8100 O.2       1 15Z1205     0.0000 
     20 CAI        -7.4140  -38.1120   12.6970 C.2       1 15Z1205     0.0000 
     21 H          -7.3782  -39.6012   10.3643 H         1 15Z1205     0.0000 
     22 H          -5.1469  -36.2354    7.7009 H         1 15Z1205     0.0000 
     23 H          -5.4275  -35.8928   10.0781 H         1 15Z1205     0.0000 
     24 H          -4.3187  -34.5593   13.1316 H         1 15Z1205     0.0000 
     25 H          -5.4286  -35.0283   17.1447 H         1 15Z1205     0.0000 
     26 H          -6.9198  -36.8334   16.5334 H         1 15Z1205     0.0000 
     27 H          -8.0517  -38.8333   12.3483 H         1 15Z1205     0.0000 
     28 H          -6.7668  -40.9208    8.2258 H         1 15Z1205     0.0000 
     29 H          -6.5308  -39.1764    6.1886 H         1 15Z1205     0.0000 
     30 H          -3.6319  -33.7218   16.4363 H         1 15Z1205     0.0000 
@<TRIPOS>BOND
     1    2    1 ar   
     2    8    1 ar   
     3   21    1 1    
     4    3    2 1    
     5    4    2 ar   
     6   28    3 1    
     7    5    4 1    
     8    6    4 ar   
     9   29    5 1    
    10    7    6 ar   
    11   22    6 1    
    12    8    7 ar   
    13   23    7 1    
    14    9    8 1    
    15   10    9 1    
    16   20    9 2    
    17   11   10 1    
    18   12   11 ar   
    19   17   11 ar   
    20   13   12 ar   
    21   24   12 1    
    22   14   13 1    
    23   15   13 ar   
    24   30   14 1    
    25   16   15 ar   
    26   25   15 1    
    27   17   16 ar   
    28   26   16 1    
    29   18   17 1    
    30   19   18 2    
    31   20   18 1    
    32   27   20 1    
@<TRIPOS>SUBSTRUCTURE
     1 15Z1205     1 GROUP   
@<TRIPOS>SET

