#    Name: 2hma_SAM_1_INTS_M
#    Modification time : Tue Mar 25 16:48:18 2014

@<TRIPOS>MOLECULE
2hma_SAM_1_INTS_M
   72     0    12     0     0
SMALL
NO_CHARGES


@<TRIPOS>ATOM
      1 CA         29.9290   27.5225    5.4465 C.3       4 GLC5        0.0000 
      2 CA         28.5340   28.8850    6.1540 C.3      12 GLL5        0.0000 
      3 CA         31.3240   26.1600    4.7390 C.3       8 GLP5        0.0000 
      4 N          29.1580   26.0400    8.4385 N.am      2 SEC2        0.0000 
      5 N          28.6900   27.2250    7.9140 N.am     10 SEL2        0.0000 
      6 N          29.6260   24.8550    8.9630 N.am      6 SEP2        0.0000 
      7 N          28.1800   27.4865    9.1695 N.am      2 SEC2        0.0000 
      8 N          27.6700   27.7480   10.4250 N.am      6 SEP2        0.0000 
      9 NZ         31.3870   28.4655    8.7385 N.4       3 LYC4        0.0000 
     10 NZ         30.4040   28.5000    7.6890 N.4      11 LYL4        0.0000 
     11 NZ         32.3700   28.4310    9.7880 N.4       7 LYP4        0.0000 
     12 N          31.3870   28.4655    8.7385 N.am      2 SEC2        0.0000 
     13 N          30.4040   28.5000    7.6890 N.am     10 SEL2        0.0000 
     14 N          32.3700   28.4310    9.7880 N.am      6 SEP2        0.0000 
     15 CA         26.9770   29.1245    9.1455 C.3       4 GLC5        0.0000 
     16 CA         27.6520   30.4970    7.9810 C.3      12 GLL5        0.0000 
     17 CA         26.3020   27.7520   10.3100 C.3       8 GLP5        0.0000 
     18 CA         30.2860   30.5770    9.9295 C.3       4 GLC5        0.0000 
     19 CA         28.5350   31.6550    9.0610 C.3      12 GLL5        0.0000 
     20 CA         32.0370   29.4990   10.7980 C.3       8 GLP5        0.0000 
     21 CA         26.8935   29.5225   10.4070 C.3       4 GLC5        0.0000 
     22 CA         27.4850   31.2930   10.5040 C.3      12 GLL5        0.0000 
     23 CA         27.5665   30.8795   13.5345 C.3       4 GLC5        0.0000 
     24 CA         27.9940   31.7750   11.8610 C.3      12 GLL5        0.0000 
     25 CA         27.1390   29.9840   15.2080 C.3       8 GLP5        0.0000 
     26 CA         26.8970   29.8450   11.7120 C.3       4 GLC5        0.0000 
     27 CA         25.8000   27.9150   11.5630 C.3       8 GLP5        0.0000 
     28 N          25.9440   32.9325   13.3885 N.am      2 SEC2        0.0000 
     29 N          26.6500   33.7140   12.2360 N.am     10 SEL2        0.0000 
     30 N          25.2380   32.1510   14.5410 N.am      6 SEP2        0.0000 
     31 CA         29.8650   35.1860   12.3585 C.3       4 GLC5        0.0000 
     32 CA         28.8610   33.4680   13.1910 C.3      12 GLL5        0.0000 
     33 CA         30.8690   36.9040   11.5260 C.3       8 GLP5        0.0000 
     34 N          26.6975   32.7120   14.4670 N.am      2 SEC2        0.0000 
     35 N          28.1570   33.2730   14.3930 N.am     10 SEL2        0.0000 
     36 O          28.5820   34.0705   15.3520 O.2       1 ALC1        0.0000 
     37 O          28.1570   33.2730   14.3930 O.2       9 ALL1        0.0000 
     38 O          29.0070   34.8680   16.3110 O.2       5 ALP1        0.0000 
     39 CA         30.8255   30.6520   12.5940 C.3       4 GLC5        0.0000 
     40 CA         29.9070   32.3660   13.0020 C.3      12 GLL5        0.0000 
     41 CA         31.7440   28.9380   12.1860 C.3       8 GLP5        0.0000 
     42 CA         32.7700   36.3140   12.6840 C.3       4 GLC5        0.0000 
     43 CA         34.0810   34.8720   12.7390 C.3      12 GLL5        0.0000 
     44 CA         31.4590   37.7560   12.6290 C.3       8 GLP5        0.0000 
     45 CA         35.7455   34.2455   13.7140 C.3       4 GLC5        0.0000 
     46 CA         37.4100   33.6190   14.6890 C.3       8 GLP5        0.0000 
     47 O          36.3435   35.7120   12.4125 O.2       1 ALC1        0.0000 
     48 O          34.9970   35.3890   11.9280 O.2       9 ALL1        0.0000 
     49 O          37.6900   36.0350   12.8970 O.2       5 ALP1        0.0000 
     50 N          35.3605   35.4175   14.8175 N.am      2 SEC2        0.0000 
     51 N          34.1980   35.0590   14.1070 N.am     10 SEL2        0.0000 
     52 N          36.5230   35.7760   15.5280 N.am      6 SEP2        0.0000 
     53 CA         31.9915   34.1115   16.2275 C.3       4 GLC5        0.0000 
     54 CA         33.2820   34.5560   14.9600 C.3      12 GLL5        0.0000 
     55 CA         30.7010   33.6670   17.4950 C.3       8 GLP5        0.0000 
     56 CA         31.8495   35.8940   15.6005 C.3       4 GLC5        0.0000 
     57 CA         30.4170   37.2320   16.2410 C.3       8 GLP5        0.0000 
     58 CA         32.3705   36.1560   13.7945 C.3       4 GLC5        0.0000 
     59 CA         34.3480   36.0350   15.9125 C.3       4 GLC5        0.0000 
     60 CA         35.4140   37.5140   16.8650 C.3       8 GLP5        0.0000 
     61 CA         33.8815   33.0115   14.9465 C.3       4 GLC5        0.0000 
     62 CA         34.4810   31.4670   14.9330 C.3       8 GLP5        0.0000 
     63 CA         26.0155   32.5388   12.8702 C.3       4 GLC5        0.0000 
     64 CA         27.9600   33.2780   12.0160 C.3      12 GLL5        0.0000 
     65 CA         24.0540   32.5510   13.8020 C.3       8 GLP5        0.0000 
     66 CA         27.7417   35.0095   13.5572 C.3       4 GLC5        0.0000 
     67 CA         27.0730   36.6460   14.5110 C.3       8 GLP5        0.0000 
     68 CA         28.2615   31.4505   14.1523 C.3       4 GLC5        0.0000 
     69 CA         31.6973   35.4117   12.1013 C.3       4 GLC5        0.0000 
     70 CA         32.0580   33.6720   13.1280 C.3      12 GLL5        0.0000 
     71 CA         33.5033   32.6932   13.8048 C.3       4 GLC5        0.0000 
     72 CA         32.9930   34.1670   12.2250 C.3      12 GLL5        0.0000 
@<TRIPOS>BOND
@<TRIPOS>SUBSTRUCTURE
     1 ALC1       36 GROUP        1 X    ALC  0     ROOT ALC X 1
     2 SEC2        4 GROUP        1 X    SEC  0     **** SEC X 2
     3 LYC4        9 GROUP        1 X    LYC  0     **** LYC X 4
     4 GLC5        1 GROUP        1 X    GLC  0     **** GLC X 6
     5 ALP1       38 GROUP        1 Y    ALP  0     ROOT ALP Y 8
     6 SEP2        6 GROUP        1 Y    SEP  0     **** SEP Y 9
     7 LYP4       11 GROUP        1 Y    LYP  0     **** LYP Y 11
     8 GLP5        3 GROUP        1 Y    GLP  0     **** GLP Y 13
     9 ALL1       37 GROUP        1 Z    ALL  0     ROOT ALL Z 15
    10 SEL2        5 GROUP        1 Z    SEL  0     **** SEL Z 16
    11 LYL4       10 GROUP        1 Z    LYL  0     **** LYL Z 18
    12 GLL5        2 GROUP        1 Z    GLL  0     **** GLL Z 20
@<TRIPOS>SET

