#    Name: 2hma_SAM_1_ligand
#    Modification time : Tue Mar 25 16:48:18 2014

@<TRIPOS>MOLECULE
2hma_SAM_1_ligand
   50    52     1     0     0
SMALL
NO_CHARGES


@<TRIPOS>ATOM
      1 N          27.3400   28.1860    5.5690 N.4       1 SAM375      0.0000 
      2 CA         28.5340   28.8850    6.1540 C.3       1 SAM375      0.0000 
      3 C          29.2460   28.1560    7.3220 C.2       1 SAM375      0.0000 
      4 O          28.6900   27.2250    7.9140 O.co2     1 SAM375      0.0000 
      5 OXT        30.4040   28.5000    7.6890 O.co2     1 SAM375      0.0000 
      6 CB         28.1960   30.3320    6.5650 C.3       1 SAM375      0.0000 
      7 CG         27.6520   30.4970    7.9810 C.3       1 SAM375      0.0000 
      8 SD         28.5350   31.6550    9.0610 S.3       1 SAM375      0.0000 
      9 CE         27.7410   33.1510    8.3950 C.3       1 SAM375      0.0000 
     10 C5'        27.4850   31.2930   10.5040 C.3       1 SAM375      0.0000 
     11 C4'        27.9940   31.7750   11.8610 C.3       1 SAM375      0.0000 
     12 O4'        29.3410   31.4350   12.1160 O.3       1 SAM375      0.0000 
     13 C3'        27.9600   33.2780   12.0160 C.3       1 SAM375      0.0000 
     14 O3'        26.6500   33.7140   12.2360 O.3       1 SAM375      0.0000 
     15 C2'        28.8610   33.4680   13.1910 C.3       1 SAM375      0.0000 
     16 O2'        28.1570   33.2730   14.3930 O.3       1 SAM375      0.0000 
     17 C1'        29.9070   32.3660   13.0020 C.3       1 SAM375      0.0000 
     18 N9         31.0920   33.0130   12.4080 N.pl3     1 SAM375      0.0000 
     19 C8         31.4180   33.1300   11.0820 C.2       1 SAM375      0.0000 
     20 N7         32.5750   33.8440   10.9560 N.2       1 SAM375      0.0000 
     21 C5         32.9930   34.1670   12.2250 C.ar      1 SAM375      0.0000 
     22 C6         34.0810   34.8720   12.7390 C.ar      1 SAM375      0.0000 
     23 N6         34.9970   35.3890   11.9280 N.pl3     1 SAM375      0.0000 
     24 N1         34.1980   35.0590   14.1070 N.ar      1 SAM375      0.0000 
     25 C2         33.2820   34.5560   14.9600 C.ar      1 SAM375      0.0000 
     26 N3         32.2110   33.8630   14.4610 N.ar      1 SAM375      0.0000 
     27 C4         32.0580   33.6720   13.1280 C.ar      1 SAM375      0.0000 
     28 H          29.3042   28.9867    5.3388 H         1 SAM375      0.0000 
     29 H          27.4582   30.7364    5.8456 H         1 SAM375      0.0000 
     30 H          29.1086   30.9488    6.4548 H         1 SAM375      0.0000 
     31 H          27.6821   29.5741    8.5623 H         1 SAM375      0.0000 
     32 H          26.6349   30.8911    8.0065 H         1 SAM375      0.0000 
     33 H          27.3839   30.2087   10.4429 H         1 SAM375      0.0000 
     34 H          26.5376   31.7486   10.2134 H         1 SAM375      0.0000 
     35 H          27.3520   31.3620   12.6447 H         1 SAM375      0.0000 
     36 H          28.4295   33.6951   11.1556 H         1 SAM375      0.0000 
     37 H          29.3482   34.3991   13.1119 H         1 SAM375      0.0000 
     38 H          30.1299   31.9638   13.9502 H         1 SAM375      0.0000 
     39 H          30.9055   32.7623   10.3502 H         1 SAM375      0.0000 
     40 H          35.7437   35.8874   12.3685 H         1 SAM375      0.0000 
     41 H          34.8572   35.2332   10.9502 H         1 SAM375      0.0000 
     42 H          33.3787   34.6870   15.9810 H         1 SAM375      0.0000 
     43 H          27.5797   27.2888    5.1981 H         1 SAM375      0.0000 
     44 H          26.6242   28.0392    6.2517 H         1 SAM375      0.0000 
     45 H          26.9304   28.7115    4.8233 H         1 SAM375      0.0000 
     46 H          27.9424   33.9573    8.9512 H         1 SAM375      0.0000 
     47 H          28.0488   33.3521    7.4650 H         1 SAM375      0.0000 
     48 H          26.7458   33.0595    8.3610 H         1 SAM375      0.0000 
     49 H          26.5184   33.6492   13.2252 H         1 SAM375      0.0000 
     50 H          28.1260   34.1749   14.8239 H         1 SAM375      0.0000 
@<TRIPOS>BOND
     1    2    1 1    
     2   43    1 1    
     3   44    1 1    
     4   45    1 1    
     5    3    2 1    
     6    6    2 1    
     7   28    2 1    
     8    4    3 ar   
     9    5    3 ar   
    10    7    6 1    
    11   29    6 1    
    12   30    6 1    
    13    8    7 1    
    14   31    7 1    
    15   32    7 1    
    16    9    8 1    
    17   10    8 1    
    18   46    9 1    
    19   47    9 1    
    20   48    9 1    
    21   11   10 1    
    22   33   10 1    
    23   34   10 1    
    24   12   11 1    
    25   13   11 1    
    26   35   11 1    
    27   17   12 1    
    28   14   13 1    
    29   15   13 1    
    30   36   13 1    
    31   49   14 1    
    32   16   15 1    
    33   17   15 1    
    34   37   15 1    
    35   50   16 1    
    36   18   17 1    
    37   38   17 1    
    38   19   18 1    
    39   27   18 1    
    40   20   19 2    
    41   39   19 1    
    42   21   20 1    
    43   22   21 ar   
    44   27   21 ar   
    45   23   22 1    
    46   24   22 ar   
    47   40   23 1    
    48   41   23 1    
    49   25   24 ar   
    50   26   25 ar   
    51   42   25 1    
    52   27   26 ar   
@<TRIPOS>SUBSTRUCTURE
     1 SAM375      1 GROUP   
@<TRIPOS>SET

