#    Name: 2c7v_MTX_1_INTS_M
#    Modification time : Mon Mar 24 23:07:23 2014

@<TRIPOS>MOLECULE
2c7v_MTX_1_INTS_M
   45     0     6     0     0
SMALL
NO_CHARGES


@<TRIPOS>ATOM
      1 CA         11.8365   -7.1315   14.6705 C.3       2 GLC5        0.0000 
      2 CA         10.8100   -9.1280   14.6030 C.3       6 GLL5        0.0000 
      3 CA         12.8630   -5.1350   14.7380 C.3       4 GLP5        0.0000 
      4 CA         11.3900   -9.5355   16.1265 C.3       2 GLC5        0.0000 
      5 CA         11.9700   -9.9430   17.6500 C.3       4 GLP5        0.0000 
      6 CA         10.0850   -7.7955   13.6135 C.3       2 GLC5        0.0000 
      7 CA          9.3600   -6.4630   12.6240 C.3       4 GLP5        0.0000 
      8 CA          8.9170   -8.0410   13.6910 C.3       2 GLC5        0.0000 
      9 CA          8.4740   -9.6190   14.7580 C.3       6 GLL5        0.0000 
     10 CA          8.6605  -15.0825   11.9105 C.3       2 GLC5        0.0000 
     11 CA          9.1930  -13.3960   13.1560 C.3       6 GLL5        0.0000 
     12 CA          8.1280  -16.7690   10.6650 C.3       4 GLP5        0.0000 
     13 CA         10.9850  -10.6015   15.7645 C.3       2 GLC5        0.0000 
     14 CA         10.0000  -11.2600   13.8790 C.3       6 GLL5        0.0000 
     15 CA          7.4510  -15.3960   11.9640 C.3       2 GLC5        0.0000 
     16 CA          6.7740  -14.0230   13.2630 C.3       6 GLL5        0.0000 
     17 CA          3.2415  -13.0660   12.2835 C.3       2 GLC5        0.0000 
     18 CA          4.4290  -13.4090   13.9220 C.3       6 GLL5        0.0000 
     19 CA          2.0540  -12.7230   10.6450 C.3       4 GLP5        0.0000 
     20 CA          5.0020  -11.4640   13.1185 C.3       2 GLC5        0.0000 
     21 CA          5.5750   -9.5190   12.3150 C.3       4 GLP5        0.0000 
     22 CA          8.3925  -15.6170   21.1600 C.3       2 GLC5        0.0000 
     23 CA          8.4920  -17.5700   20.7110 C.3       6 GLL5        0.0000 
     24 CA          8.2930  -13.6640   21.6090 C.3       4 GLP5        0.0000 
     25 CA          8.0015  -19.3085   17.5055 C.3       2 GLC5        0.0000 
     26 CA          8.9640  -19.4260   19.0590 C.3       6 GLL5        0.0000 
     27 CA          7.0390  -19.1910   15.9520 C.3       4 GLP5        0.0000 
     28 O          13.2880   -7.8430   15.0955 O.2       1 ALC1        0.0000 
     29 O          11.8010   -8.2610   14.7920 O.2       5 ALL1        0.0000 
     30 O          14.7750   -7.4250   15.3990 O.2       3 ALP1        0.0000 
     31 O          11.9420   -7.0285   15.2530 O.2       1 ALC1        0.0000 
     32 O          12.0830   -5.7960   15.7140 O.2       3 ALP1        0.0000 
     33 O          12.7340   -9.3825   13.9285 O.2       1 ALC1        0.0000 
     34 O          13.6670  -10.5040   13.0650 O.2       3 ALP1        0.0000 
     35 O           7.1435   -8.0810   15.9655 O.2       1 ALC1        0.0000 
     36 O           7.3110   -9.3260   15.3370 O.2       5 ALL1        0.0000 
     37 O           6.9760   -6.8360   16.5940 O.2       3 ALP1        0.0000 
     38 CA          8.4751  -15.4619   13.3459 C.3       2 GLC5        0.0000 
     39 CA          7.8960  -13.0370   13.5050 C.3       6 GLL5        0.0000 
     40 CA          9.2910  -17.3040   13.3950 C.3       4 GLP5        0.0000 
     41 CA          8.8545  -16.2015   15.3950 C.3       2 GLC5        0.0000 
     42 CA          7.5350  -15.7830   16.9520 C.3       6 GLL5        0.0000 
     43 CA         10.3080  -16.9540   14.4280 C.3       4 GLP5        0.0000 
     44 CA          7.0940  -17.3375   16.2758 C.3       2 GLC5        0.0000 
     45 CA          7.2670  -15.1150   15.7720 C.3       6 GLL5        0.0000 
@<TRIPOS>BOND
@<TRIPOS>SUBSTRUCTURE
     1 ALC1       28 GROUP        1 X    ALC  0     ROOT ALC X 1
     2 GLC5        1 GROUP        1 X    GLC  0     **** GLC X 6
     3 ALP1       30 GROUP        1 Y    ALP  0     ROOT ALP Y 8
     4 GLP5        3 GROUP        1 Y    GLP  0     **** GLP Y 13
     5 ALL1       29 GROUP        1 Z    ALL  0     ROOT ALL Z 15
     6 GLL5        2 GROUP        1 Z    GLL  0     **** GLL Z 20
@<TRIPOS>SET

