#    Name: 2c7v_MTX_1_ligand
#    Modification time : Mon Mar 24 23:07:23 2014

@<TRIPOS>MOLECULE
2c7v_MTX_1_ligand
   53    55     1     0     0
SMALL
NO_CHARGES


@<TRIPOS>ATOM
      1 N1         11.0490  -10.3890   14.0770 N.ar      1 MTX1272     0.0000 
      2 C2         10.8100   -9.1280   14.6030 C.ar      1 MTX1272     0.0000 
      3 N3          9.5330   -8.7570   14.9470 N.ar      1 MTX1272     0.0000 
      4 C4          8.4740   -9.6190   14.7580 C.ar      1 MTX1272     0.0000 
      5 C4A         8.6980  -10.8840   14.2150 C.ar      1 MTX1272     0.0000 
      6 N5          7.6530  -11.7840   14.0310 N.ar      1 MTX1272     0.0000 
      7 C6          7.8960  -13.0370   13.5050 C.ar      1 MTX1272     0.0000 
      8 C7          9.1930  -13.3960   13.1560 C.ar      1 MTX1272     0.0000 
      9 N8         10.2300  -12.5140   13.3530 N.ar      1 MTX1272     0.0000 
     10 C8A        10.0000  -11.2600   13.8790 C.ar      1 MTX1272     0.0000 
     11 C9          6.7740  -14.0230   13.2630 C.3       1 MTX1272     0.0000 
     12 N10         5.7600  -13.9180   14.2900 N.pl3     1 MTX1272     0.0000 
     13 CM          4.4290  -13.4090   13.9220 C.3       1 MTX1272     0.0000 
     14 C11         6.5270  -15.9230   17.9020 C.ar      1 MTX1272     0.0000 
     15 C12         5.2540  -15.4150   17.6600 C.ar      1 MTX1272     0.0000 
     16 C13         4.9810  -14.7480   16.4710 C.ar      1 MTX1272     0.0000 
     17 C14         5.9910  -14.6020   15.5150 C.ar      1 MTX1272     0.0000 
     18 C15         7.2670  -15.1150   15.7720 C.ar      1 MTX1272     0.0000 
     19 C16         7.5350  -15.7830   16.9520 C.ar      1 MTX1272     0.0000 
     20 C           6.8230  -16.6350   19.1890 C.2       1 MTX1272     0.0000 
     21 O           5.7620  -17.1490   19.9460 O.2       1 MTX1272     0.0000 
     22 N           8.0860  -16.7600   19.5740 N.am      1 MTX1272     0.0000 
     23 CA          8.4920  -17.5700   20.7110 C.3       1 MTX1272     0.0000 
     24 CT          9.8780  -17.1910   21.1470 C.2       1 MTX1272     0.0000 
     25 O1         10.6200  -16.5260   20.3870 O.co2     1 MTX1272     0.0000 
     26 O2         10.3080  -17.5280   22.2740 O.co2     1 MTX1272     0.0000 
     27 CB          8.3860  -19.0830   20.4260 C.3       1 MTX1272     0.0000 
     28 CG          8.9640  -19.4260   19.0590 C.3       1 MTX1272     0.0000 
     29 CD          9.1510  -20.9070   18.7960 C.2       1 MTX1272     0.0000 
     30 OE1         8.4330  -21.7670   19.3560 O.co2     1 MTX1272     0.0000 
     31 OE2        10.0410  -21.2710   17.9810 O.co2     1 MTX1272     0.0000 
     32 NA2        11.8010   -8.2610   14.7920 N.pl3     1 MTX1272     0.0000 
     33 NA4         7.3110   -9.3260   15.3370 N.pl3     1 MTX1272     0.0000 
     34 H           9.3712  -14.3271   12.7490 H         1 MTX1272     0.0000 
     35 H           7.2039  -15.0357   13.2370 H         1 MTX1272     0.0000 
     36 H           6.3480  -13.8239   12.2680 H         1 MTX1272     0.0000 
     37 H           4.5123  -15.5339   18.3643 H         1 MTX1272     0.0000 
     38 H           4.0483  -14.3652   16.2933 H         1 MTX1272     0.0000 
     39 H           8.0122  -14.9893   15.0673 H         1 MTX1272     0.0000 
     40 H           8.4660  -16.1734   17.1303 H         1 MTX1272     0.0000 
     41 H           8.8685  -16.2722   19.0686 H         1 MTX1272     0.0000 
     42 H           7.8132  -17.3608   21.5611 H         1 MTX1272     0.0000 
     43 H           7.3374  -19.3742   20.4625 H         1 MTX1272     0.0000 
     44 H           8.9298  -19.6244   21.1985 H         1 MTX1272     0.0000 
     45 H           9.9408  -18.9135   18.9473 H         1 MTX1272     0.0000 
     46 H           8.3029  -19.0012   18.2768 H         1 MTX1272     0.0000 
     47 H          12.7182   -8.5833   14.5579 H         1 MTX1272     0.0000 
     48 H          11.5394   -7.3651   15.1511 H         1 MTX1272     0.0000 
     49 H           6.7133  -10.1014   15.5409 H         1 MTX1272     0.0000 
     50 H           7.1402   -8.3570   15.5157 H         1 MTX1272     0.0000 
     51 H           4.4760  -12.4828   13.5478 H         1 MTX1272     0.0000 
     52 H           3.9902  -13.9826   13.2304 H         1 MTX1272     0.0000 
     53 H           3.8132  -13.3762   14.7092 H         1 MTX1272     0.0000 
@<TRIPOS>BOND
     1    2    1 ar   
     2   10    1 ar   
     3    3    2 ar   
     4   32    2 1    
     5    4    3 ar   
     6    5    4 ar   
     7   33    4 1    
     8    6    5 ar   
     9   10    5 ar   
    10    7    6 ar   
    11    8    7 ar   
    12   11    7 1    
    13    9    8 ar   
    14   34    8 1    
    15   10    9 ar   
    16   12   11 1    
    17   35   11 1    
    18   36   11 1    
    19   13   12 1    
    20   17   12 1    
    21   51   13 1    
    22   52   13 1    
    23   53   13 1    
    24   15   14 ar   
    25   19   14 ar   
    26   20   14 1    
    27   16   15 ar   
    28   37   15 1    
    29   17   16 ar   
    30   38   16 1    
    31   18   17 ar   
    32   19   18 ar   
    33   39   18 1    
    34   40   19 1    
    35   21   20 2    
    36   22   20 am   
    37   23   22 1    
    38   41   22 1    
    39   24   23 1    
    40   27   23 1    
    41   42   23 1    
    42   25   24 ar   
    43   26   24 ar   
    44   28   27 1    
    45   43   27 1    
    46   44   27 1    
    47   29   28 1    
    48   45   28 1    
    49   46   28 1    
    50   30   29 ar   
    51   31   29 ar   
    52   47   32 1    
    53   48   32 1    
    54   49   33 1    
    55   50   33 1    
@<TRIPOS>SUBSTRUCTURE
     1 MTX1272     1 GROUP   
@<TRIPOS>SET

