#    Name: 1E6V_3_CAVITY_N1_6.mol2
#    Modification time : Mon Mar 10 19:54:38 2014

@<TRIPOS>MOLECULE
1E6V_3_CAVITY_N1_6.mol2
   48     0     5     0     0
SMALL
NO_CHARGES


@<TRIPOS>ATOM
      1 OD1        49.2948  -28.1482  100.4798 O.3       2 ASP3        0.0000 
      2 CA         50.7006  -28.5369  100.1296 C.3       4 GLY6        0.0000 
      3 CA         52.1064  -28.9257   99.7794 C.3       4 GLY6        0.0000 
      4 OD1        47.6536  -27.3328   99.4113 O.3       2 ASP3        0.0000 
      5 DU         49.0594  -27.7216   99.0611 H         5 CUB7        0.0000 
      6 CA         50.4652  -28.1104   98.7109 C.3       4 GLY6        0.0000 
      7 O          47.4182  -26.9063   97.9926 O.2       1 ALA2        0.0000 
      8 O          48.8240  -27.2950   97.6424 O.2       1 ALA2        0.0000 
      9 CA         50.2297  -27.6838   97.2922 C.3       4 GLY6        0.0000 
     10 CA         49.5338  -30.8124  104.3970 C.3       4 GLY6        0.0000 
     11 O          48.3567  -28.6796   97.3037 O.2       1 ALA2        0.0000 
     12 N          50.2329  -27.6167  103.6558 N.2       1 ALA2        0.0000 
     13 CA         49.9975  -27.1902  102.2372 C.3       4 GLY6        0.0000 
     14 CA         51.4033  -27.5789  101.8870 C.3       4 GLY6        0.0000 
     15 CA         52.8091  -27.9677  101.5368 C.3       4 GLY6        0.0000 
     16 OD1        49.7621  -26.7636  100.8185 O.3       2 ASP3        0.0000 
     17 CA         51.1679  -27.1524  100.4683 C.3       4 GLY6        0.0000 
     18 CA         52.5736  -27.5411  100.1182 C.3       4 GLY6        0.0000 
     19 OD1        48.1209  -25.9483   99.7500 O.3       2 ASP3        0.0000 
     20 CA         49.5266  -26.3371   99.3998 C.3       4 GLY6        0.0000 
     21 CA         50.9324  -26.7258   99.0497 C.3       4 GLY6        0.0000 
     22 O          47.8854  -25.5218   98.3314 O.2       1 ALA2        0.0000 
     23 CA         49.2912  -25.9105   97.9812 C.3       4 GLY6        0.0000 
     24 CZ         49.2984  -30.3858  102.9783 C.ar      3 PHE5        0.0000 
     25 CZ         50.7042  -30.7746  102.6282 C.ar      3 PHE5        0.0000 
     26 CZ         48.8276  -29.5327  100.1410 C.ar      3 PHE5        0.0000 
     27 CZ         50.2333  -29.9214   99.7908 C.ar      3 PHE5        0.0000 
     28 O          48.5921  -29.1061   98.7223 O.2       1 ALA2        0.0000 
     29 CA         49.9979  -29.4949   98.3722 C.3       4 GLY6        0.0000 
     30 N          50.0011  -29.4278  104.7358 N.2       1 ALA2        0.0000 
     31 N          51.4069  -29.8166  104.3856 N.2       1 ALA2        0.0000 
     32 N          49.7657  -29.0013  103.3171 N.2       1 ALA2        0.0000 
     33 CA         51.1715  -29.3900  102.9669 C.3       4 GLY6        0.0000 
     34 CA         52.5772  -29.7788  102.6167 C.3       4 GLY6        0.0000 
     35 CZ         49.5302  -28.5747  101.8984 C.ar      3 PHE5        0.0000 
     36 CZ         50.9360  -28.9635  101.5482 C.ar      3 PHE5        0.0000 
     37 CA         52.3418  -29.3522  101.1981 C.3       4 GLY6        0.0000 
     38 N          50.6966  -23.9946  101.4960 N.2       1 ALA2        0.0000 
     39 CA         50.4648  -25.8057  102.5759 C.3       4 GLY6        0.0000 
     40 OD1        48.8235  -24.9903  101.5074 O.3       2 ASP3        0.0000 
     41 CA         50.2293  -25.3791  101.1573 C.3       4 GLY6        0.0000 
     42 CA         51.6351  -25.7679  100.8071 C.3       4 GLY6        0.0000 
     43 CA         53.0409  -26.1566  100.4569 C.3       4 GLY6        0.0000 
     44 OD1        47.1823  -24.1750  100.4390 O.3       2 ASP3        0.0000 
     45 OD1        48.5881  -24.5638  100.0888 O.3       2 ASP3        0.0000 
     46 CA         49.9939  -24.9525   99.7386 C.3       4 GLY6        0.0000 
     47 CA         51.3997  -25.3413   99.3884 C.3       4 GLY6        0.0000 
     48 CA         48.3527  -24.1372   98.6701 C.3       4 GLY6        0.0000 
@<TRIPOS>BOND
@<TRIPOS>SUBSTRUCTURE
     1 ALA2        7 GROUP   
     2 ASP3        1 GROUP   
     3 PHE5       24 GROUP   
     4 GLY6        2 GROUP   
     5 CUB7        5 GROUP   
@<TRIPOS>SET

