#    Name: 1e6v_TP7_3_INTS_M
#    Modification time : Mon Mar 24 23:09:36 2014

@<TRIPOS>MOLECULE
1e6v_TP7_3_INTS_M
   73     0     9     0     0
SMALL
NO_CHARGES


@<TRIPOS>ATOM
      1 NZ         48.2430  -25.1585   96.5375 N.4       2 LYC4        0.0000 
      2 NZ         48.0000  -25.3350   97.8450 N.4       8 LYL4        0.0000 
      3 NZ         49.5230  -24.6670   94.4660 N.4       5 LYP4        0.0000 
      4 N          48.2430  -25.1585   96.5375 N.am      1 SEC2        0.0000 
      5 N          48.0000  -25.3350   97.8450 N.am      7 SEL2        0.0000 
      6 N          48.4860  -24.9820   95.2300 N.am      4 SEP2        0.0000 
      7 N          46.1555  -28.6595   97.6970 N.am      1 SEC2        0.0000 
      8 N          46.9800  -27.5210   97.3210 N.am      7 SEL2        0.0000 
      9 N          45.3310  -29.7980   98.0730 N.am      4 SEP2        0.0000 
     10 NZ         46.0945  -26.1965  100.3560 N.4       2 LYC4        0.0000 
     11 NZ         45.8810  -26.0240   98.9460 N.4       8 LYL4        0.0000 
     12 NZ         46.3080  -26.3690  101.7660 N.4       5 LYP4        0.0000 
     13 N          46.0945  -26.1965  100.3560 N.am      1 SEC2        0.0000 
     14 N          45.8810  -26.0240   98.9460 N.am      7 SEL2        0.0000 
     15 N          46.3080  -26.3690  101.7660 N.am      4 SEP2        0.0000 
     16 CA         50.2750  -26.1915   97.9145 C.3       3 GLC5        0.0000 
     17 CA         49.4640  -27.4390   99.4680 C.3       9 GLL5        0.0000 
     18 CA         51.0860  -24.9440   96.3610 C.3       6 GLP5        0.0000 
     19 NZ         49.5775  -23.8100  102.9780 N.4       2 LYC4        0.0000 
     20 NZ         48.9790  -25.3190  101.8900 N.4       8 LYL4        0.0000 
     21 NZ         50.1760  -22.3010  104.0660 N.4       5 LYP4        0.0000 
     22 NZ         47.6435  -25.8440  101.8280 N.4       2 LYC4        0.0000 
     23 N          47.6435  -25.8440  101.8280 N.am      1 SEC2        0.0000 
     24 N          48.9790  -25.3190  101.8900 N.am      7 SEL2        0.0000 
     25 CA         51.4735  -26.5150  102.1280 C.3       3 GLC5        0.0000 
     26 CA         50.1220  -27.1330  100.7780 C.3       9 GLL5        0.0000 
     27 CA         52.8250  -25.8970  103.4780 C.3       6 GLP5        0.0000 
     28 CA         48.9735  -30.3850   99.9515 C.3       3 GLC5        0.0000 
     29 CA         49.6630  -28.8800   99.0890 C.3       9 GLL5        0.0000 
     30 CA         48.2840  -31.8900  100.8140 C.3       6 GLP5        0.0000 
     31 CA         49.8890  -30.1385   97.7580 C.3       3 GLC5        0.0000 
     32 CA         50.1150  -31.3970   96.4270 C.3       6 GLP5        0.0000 
     33 CA         51.6620  -27.3560  103.0100 C.3       3 GLC5        0.0000 
     34 CA         50.4990  -28.8150  102.5420 C.3       9 GLL5        0.0000 
     35 CA         52.6840  -31.0655  103.5275 C.3       3 GLC5        0.0000 
     36 CA         51.0920  -30.1540  104.6170 C.3       9 GLL5        0.0000 
     37 CA         54.2760  -31.9770  102.4380 C.3       6 GLP5        0.0000 
     38 CA         52.4395  -30.5945  107.5480 C.3       3 GLC5        0.0000 
     39 CA         50.8960  -30.4790  106.0960 C.3       9 GLL5        0.0000 
     40 CA         53.9830  -30.7100  109.0000 C.3       6 GLP5        0.0000 
     41 CA         51.5505  -28.7275  106.3140 C.3       3 GLC5        0.0000 
     42 CA         52.2050  -26.9760  106.5320 C.3       6 GLP5        0.0000 
     43 CA         47.8690  -31.6390  106.5470 C.3       3 GLC5        0.0000 
     44 CA         49.6090  -31.3080  106.2860 C.3       9 GLL5        0.0000 
     45 CA         46.1290  -31.9700  106.8080 C.3       6 GLP5        0.0000 
     46 CA         49.3910  -32.8575  107.6900 C.3       3 GLC5        0.0000 
     47 CA         49.7320  -32.7200  105.6400 C.3       9 GLL5        0.0000 
     48 CA         49.0500  -32.9950  109.7400 C.3       6 GLP5        0.0000 
     49 CA         48.7660  -34.2575  104.6040 C.3       3 GLC5        0.0000 
     50 CA         47.8000  -35.7950  103.5680 C.3       6 GLP5        0.0000 
     51 CA         47.8460  -32.6485  105.6020 C.3       3 GLC5        0.0000 
     52 CA         45.9600  -32.5770  105.5640 C.3       6 GLP5        0.0000 
     53 CA         50.5535  -32.9370  108.1355 C.3       3 GLC5        0.0000 
     54 CA         50.8160  -33.4680  106.3360 C.3       9 GLL5        0.0000 
     55 CA         50.2910  -32.4060  109.9350 C.3       6 GLP5        0.0000 
     56 CA         51.2665  -36.7110  105.3575 C.3       3 GLC5        0.0000 
     57 CA         51.1600  -35.1330  105.7730 C.3       9 GLL5        0.0000 
     58 CA         51.3730  -38.2890  104.9420 C.3       6 GLP5        0.0000 
     59 CA         49.9665  -35.3460  104.1905 C.3       3 GLC5        0.0000 
     60 CA         48.7730  -35.5590  102.6080 C.3       6 GLP5        0.0000 
     61 CA         51.2433  -28.1758   98.0528 C.3       3 GLC5        0.0000 
     62 CA         52.9230  -28.1920   96.8270 C.3       6 GLP5        0.0000 
     63 CA         49.9473  -30.6973  102.0687 C.3       3 GLC5        0.0000 
     64 CA         49.5750  -32.3800  100.9440 C.3       6 GLP5        0.0000 
     65 CA         51.4105  -28.3300  105.3815 C.3       3 GLC5        0.0000 
     66 CA         50.1400  -29.2140  103.8450 C.3       9 GLL5        0.0000 
     67 CA         49.1022  -29.8843  107.2980 C.3       3 GLC5        0.0000 
     68 CA         47.9520  -28.8750  108.4050 C.3       6 GLP5        0.0000 
     69 CA         50.2717  -31.6497  108.0630 C.3       3 GLC5        0.0000 
     70 CA         52.6335  -34.6778  105.3483 C.3       3 GLC5        0.0000 
     71 CA         54.2790  -35.0550  104.6420 C.3       6 GLP5        0.0000 
     72 CA         52.0150  -34.5643  107.7252 C.3       3 GLC5        0.0000 
     73 CA         53.0420  -34.8280  109.3960 C.3       6 GLP5        0.0000 
@<TRIPOS>BOND
@<TRIPOS>SUBSTRUCTURE
     1 SEC2        4 GROUP        1 X    SEC  0     ROOT SEC X 2
     2 LYC4        1 GROUP        1 X    LYC  0     **** LYC X 4
     3 GLC5       16 GROUP        1 X    GLC  0     **** GLC X 6
     4 SEP2        6 GROUP        1 Y    SEP  0     ROOT SEP Y 9
     5 LYP4        3 GROUP        1 Y    LYP  0     **** LYP Y 11
     6 GLP5       18 GROUP        1 Y    GLP  0     **** GLP Y 13
     7 SEL2        5 GROUP        1 Z    SEL  0     ROOT SEL Z 16
     8 LYL4        2 GROUP        1 Z    LYL  0     **** LYL Z 18
     9 GLL5       17 GROUP        1 Z    GLL  0     **** GLL Z 20
@<TRIPOS>SET

