#    Name: 1e6v_TP7_3_ligand
#    Modification time : Mon Mar 24 23:09:36 2014

@<TRIPOS>MOLECULE
1e6v_TP7_3_ligand
   40    39     1     0     0
SMALL
NO_CHARGES


@<TRIPOS>ATOM
      1 N          49.6630  -27.9240  101.8420 N.4       1 TP71554     0.0000 
      2 P          47.2110  -26.4860   98.3680 P.3       1 TP71554     0.0000 
      3 O1P        48.0000  -25.3350   97.8450 O.co2     1 TP71554     0.0000 
      4 O2P        46.9800  -27.5210   97.3210 O.co2     1 TP71554     0.0000 
      5 O3P        45.8810  -26.0240   98.9460 O.co2     1 TP71554     0.0000 
      6 O4P        48.1080  -27.1870   99.5590 O.3       1 TP71554     0.0000 
      7 CB         49.4640  -27.4390   99.4680 C.3       1 TP71554     0.0000 
      8 C          49.9010  -25.6200  101.0930 C.2       1 TP71554     0.0000 
      9 O          50.6630  -24.7430  100.5540 O.co2     1 TP71554     0.0000 
     10 OXT        48.9790  -25.3190  101.8900 O.co2     1 TP71554     0.0000 
     11 CA         50.1220  -27.1330  100.7780 C.3       1 TP71554     0.0000 
     12 CG         49.6630  -28.8800   99.0890 C.3       1 TP71554     0.0000 
     13 O1         51.5560  -29.1670  101.9790 O.3       1 TP71554     0.0000 
     14 C1         50.4990  -28.8150  102.5420 C.3       1 TP71554     0.0000 
     15 C2         50.1400  -29.2140  103.8450 C.3       1 TP71554     0.0000 
     16 C3         51.0920  -30.1540  104.6170 C.3       1 TP71554     0.0000 
     17 C4         50.8960  -30.4790  106.0960 C.3       1 TP71554     0.0000 
     18 C5         49.6090  -31.3080  106.2860 C.3       1 TP71554     0.0000 
     19 C6         49.7320  -32.7200  105.6400 C.3       1 TP71554     0.0000 
     20 C7         50.8160  -33.4680  106.3360 C.3       1 TP71554     0.0000 
     21 S7         51.1600  -35.1330  105.7730 S.3       1 TP71554     0.0000 
     22 H          49.9306  -26.8251   98.7009 H         1 TP71554     0.0000 
     23 H          51.2100  -27.2397  100.6397 H         1 TP71554     0.0000 
     24 H          49.7713  -29.9178  101.9890 H         1 TP71554     0.0000 
     25 H          49.1245  -29.7215  103.8541 H         1 TP71554     0.0000 
     26 H          49.9739  -28.3154  104.5186 H         1 TP71554     0.0000 
     27 H          52.1498  -29.7516  104.4820 H         1 TP71554     0.0000 
     28 H          51.1369  -31.1378  104.0432 H         1 TP71554     0.0000 
     29 H          50.8094  -29.5593  106.6620 H         1 TP71554     0.0000 
     30 H          51.7411  -31.0526  106.4573 H         1 TP71554     0.0000 
     31 H          48.7735  -30.7854  105.8255 H         1 TP71554     0.0000 
     32 H          49.4116  -31.4269  107.3491 H         1 TP71554     0.0000 
     33 H          49.9642  -32.5915  104.5924 H         1 TP71554     0.0000 
     34 H          48.7829  -33.2247  105.7516 H         1 TP71554     0.0000 
     35 H          50.6226  -33.6255  107.4085 H         1 TP71554     0.0000 
     36 H          51.8043  -32.9899  106.2510 H         1 TP71554     0.0000 
     37 H          50.6323  -29.1123   99.0079 H         1 TP71554     0.0000 
     38 H          49.2687  -29.5002   99.7671 H         1 TP71554     0.0000 
     39 H          49.2355  -29.0955   98.2110 H         1 TP71554     0.0000 
     40 H          52.1334  -28.5896  102.5564 H         1 TP71554     0.0000 
@<TRIPOS>BOND
     1   11    1 1    
     2   14    1 1    
     3    3    2 ar   
     4    4    2 ar   
     5    5    2 ar   
     6    6    2 1    
     7    7    6 1    
     8   11    7 1    
     9   12    7 1    
    10   22    7 1    
    11    9    8 ar   
    12   10    8 ar   
    13   11    8 1    
    14   23   11 1    
    15   37   12 1    
    16   38   12 1    
    17   39   12 1    
    18   14   13 1    
    19   40   13 1    
    20   15   14 1    
    21   24   14 1    
    22   16   15 1    
    23   25   15 1    
    24   26   15 1    
    25   17   16 1    
    26   27   16 1    
    27   28   16 1    
    28   18   17 1    
    29   29   17 1    
    30   30   17 1    
    31   19   18 1    
    32   31   18 1    
    33   32   18 1    
    34   20   19 1    
    35   33   19 1    
    36   34   19 1    
    37   21   20 1    
    38   35   20 1    
    39   36   20 1    
@<TRIPOS>SUBSTRUCTURE
     1 TP71554     1 GROUP   
@<TRIPOS>SET

