#    Name: 2XC4_1_CAVITY_N1_ALL.mol2
#    Modification time : Mon Mar 10 23:08:49 2014

@<TRIPOS>MOLECULE
2XC4_1_CAVITY_N1_ALL.mol2
   78     0     5     0     0
SMALL
NO_CHARGES


@<TRIPOS>ATOM
      1 OD1        -7.5103   16.1073   25.2223 O.3       3 ASP3        0.0000 
      2 N          -5.9549   16.7484   26.5145 N.2       2 ALA2        0.0000 
      3 DU         -5.5392   16.3428   24.4742 H         5 CUB7        0.0000 
      4 CA         -6.1606   15.5749   25.6031 C.3       4 GLY6        0.0000 
      5 CA         -6.7819   14.8071   26.7320 C.3       4 GLY6        0.0000 
      6 DU         -5.7449   15.1693   23.5628 H         5 CUB7        0.0000 
      7 CA         -6.3663   14.4015   24.6917 C.3       4 GLY6        0.0000 
      8 O          -6.5719   13.2280   23.7803 O.2       2 ALA2        0.0000 
      9 O          -3.3625   17.7518   24.6376 O.2       2 ALA2        0.0000 
     10 O          -3.9839   16.9840   25.7664 O.2       2 ALA2        0.0000 
     11 N          -4.6052   16.2161   26.8953 N.2       2 ALA2        0.0000 
     12 N          -4.1896   15.8105   24.8550 N.2       2 ALA2        0.0000 
     13 CA         -4.8109   15.0426   25.9839 C.3       4 GLY6        0.0000 
     14 CA         -5.4323   14.2748   27.1128 C.3       4 GLY6        0.0000 
     15 N          -4.3952   14.6370   23.9437 N.2       2 ALA2        0.0000 
     16 CA         -5.0166   13.8691   25.0725 C.3       4 GLY6        0.0000 
     17 CA         -5.6380   13.1013   26.2014 C.3       4 GLY6        0.0000 
     18 N          -4.6009   13.4635   23.0323 N.2       2 ALA2        0.0000 
     19 N          -5.2223   12.6956   24.1612 N.2       2 ALA2        0.0000 
     20 O          -5.8436   11.9278   25.2900 O.2       2 ALA2        0.0000 
     21 DU         -4.8066   12.2900   22.1209 H         5 CUB7        0.0000 
     22 N          -5.4279   11.5222   23.2498 N.2       2 ALA2        0.0000 
     23 N          -5.0123   11.1165   21.2095 N.2       2 ALA2        0.0000 
     24 OG         -4.5966   10.7108   19.1693 O.2       1 SER1        0.0000 
     25 DU         -5.2179    9.9430   20.2981 H         5 CUB7        0.0000 
     26 N          -5.8393    9.1752   21.4270 N.2       2 ALA2        0.0000 
     27 CA         -2.6342   16.4516   26.1472 C.3       4 GLY6        0.0000 
     28 CA         -2.8399   15.2781   25.2359 C.3       4 GLY6        0.0000 
     29 CA         -3.4612   14.5103   26.3647 C.3       4 GLY6        0.0000 
     30 N          -3.0456   14.1047   24.3245 N.2       2 ALA2        0.0000 
     31 CA         -3.6669   13.3368   25.4534 C.3       4 GLY6        0.0000 
     32 CA         -4.2883   12.5690   26.5822 C.3       4 GLY6        0.0000 
     33 N          -3.2512   12.9312   23.4131 N.2       2 ALA2        0.0000 
     34 N          -3.8726   12.1633   24.5420 N.2       2 ALA2        0.0000 
     35 N          -2.8356   12.5255   21.3728 N.2       2 ALA2        0.0000 
     36 DU         -3.4569   11.7577   22.5017 H         5 CUB7        0.0000 
     37 N          -4.0783   10.9898   23.6306 N.2       2 ALA2        0.0000 
     38 DU         -3.0412   11.3520   20.4615 H         5 CUB7        0.0000 
     39 N          -3.6626   10.5842   21.5903 N.2       2 ALA2        0.0000 
     40 OG         -3.2469   10.1785   19.5501 O.2       1 SER1        0.0000 
     41 CA         -3.8683    9.4107   20.6790 C.3       4 GLY6        0.0000 
     42 CA         -4.4896    8.6429   21.8078 C.3       4 GLY6        0.0000 
     43 CA         -4.0739    8.2372   19.7676 C.3       4 GLY6        0.0000 
     44 O          -2.3173   12.8045   25.8342 O.2       2 ALA2        0.0000 
     45 N          -1.9016   12.3988   23.7939 N.2       2 ALA2        0.0000 
     46 O          -2.5229   11.6310   24.9228 O.2       2 ALA2        0.0000 
     47 N          -3.1443   10.8632   26.0517 N.2       2 ALA2        0.0000 
     48 N          -0.8645   12.7610   20.6248 N.2       2 ALA2        0.0000 
     49 N          -1.4859   11.9932   21.7537 N.2       2 ALA2        0.0000 
     50 N          -2.1072   11.2254   22.8825 N.2       2 ALA2        0.0000 
     51 O          -2.7286   10.4575   24.0114 O.2       2 ALA2        0.0000 
     52 O          -3.3500    9.6897   25.1403 O.2       2 ALA2        0.0000 
     53 N          -1.0702   11.5875   19.7134 N.2       2 ALA2        0.0000 
     54 OG         -1.6916   10.8197   20.8423 O.2       1 SER1        0.0000 
     55 CA         -2.3129   10.0519   21.9712 C.3       4 GLY6        0.0000 
     56 O          -2.9343    9.2840   23.1000 O.2       2 ALA2        0.0000 
     57 OG         -1.8972    9.6462   19.9309 O.2       1 SER1        0.0000 
     58 CA         -2.5186    8.8784   21.0598 C.3       4 GLY6        0.0000 
     59 N          -0.5519   11.8665   24.1747 N.2       2 ALA2        0.0000 
     60 O          -1.1733   11.0987   25.3036 O.2       2 ALA2        0.0000 
     61 CA         -1.7946   10.3309   26.4325 C.3       4 GLY6        0.0000 
     62 N          -2.4160    9.5631   27.5614 N.2       2 ALA2        0.0000 
     63 N           0.4851   12.2287   21.0056 N.2       2 ALA2        0.0000 
     64 OG         -0.1362   11.4609   22.1345 O.2       1 SER1        0.0000 
     65 OG         -0.7576   10.6930   23.2634 O.2       1 SER1        0.0000 
     66 CA         -1.3789    9.9252   24.3922 C.3       4 GLY6        0.0000 
     67 O          -2.0003    9.1574   25.5211 O.2       2 ALA2        0.0000 
     68 O          -2.6216    8.3896   26.6500 O.2       2 ALA2        0.0000 
     69 N          -0.3419   10.2874   21.2231 N.2       2 ALA2        0.0000 
     70 N          -0.9632    9.5196   22.3520 N.2       2 ALA2        0.0000 
     71 N           0.1764   10.5664   25.6844 N.2       2 ALA2        0.0000 
     72 N          -0.4449    9.7986   26.8133 N.2       2 ALA2        0.0000 
     73 N          -1.0663    9.0307   27.9422 N.2       2 ALA2        0.0000 
     74 OG         -0.0293    9.3929   24.7731 O.2       1 SER1        0.0000 
     75 CA         -0.6506    8.6251   25.9019 C.3       4 GLY6        0.0000 
     76 N          -1.2720    7.8572   27.0308 N.2       2 ALA2        0.0000 
     77 CA          0.6991    8.0928   26.2828 C.3       4 GLY6        0.0000 
     78 CA          0.0777    7.3249   27.4116 C.3       4 GLY6        0.0000 
@<TRIPOS>BOND
@<TRIPOS>SUBSTRUCTURE
     1 SER1       24 GROUP   
     2 ALA2        2 GROUP   
     3 ASP3        1 GROUP   
     4 GLY6        4 GROUP   
     5 CUB7        3 GROUP   
@<TRIPOS>SET

