#    Name: 2xc4_IVK_1_INTS_M
#    Modification time : Tue Mar 25 05:50:05 2014

@<TRIPOS>MOLECULE
2xc4_IVK_1_INTS_M
   67     0     9     0     0
SMALL
NO_CHARGES


@<TRIPOS>ATOM
      1 CA         -5.7680   11.8080   26.0015 C.3       3 GLC5        0.0000 
      2 CA         -3.9090   11.8950   24.8310 C.3       9 GLL5        0.0000 
      3 CA         -7.6270   11.7210   27.1720 C.3       6 GLP5        0.0000 
      4 CA         -2.0950   14.3310   25.5505 C.3       3 GLC5        0.0000 
      5 CA         -3.8610   13.3480   25.2830 C.3       9 GLL5        0.0000 
      6 CA         -0.3290   15.3140   25.8180 C.3       6 GLP5        0.0000 
      7 N          -3.7635    8.5055   23.5325 N.am      2 SEC2        0.0000 
      8 N          -3.4270    9.7120   22.6660 N.am      8 SEL2        0.0000 
      9 N          -4.1000    7.2990   24.3990 N.am      5 SEP2        0.0000 
     10 O          -4.3520   10.2460   26.8540 O.2       1 ALC1        0.0000 
     11 O          -3.0440   10.0840   26.1430 O.2       7 ALL1        0.0000 
     12 O          -5.6600   10.4080   27.5650 O.2       4 ALP1        0.0000 
     13 CA          0.6975    6.6555   29.0895 C.3       3 GLC5        0.0000 
     14 CA         -0.0750    5.3720   27.9200 C.3       9 GLL5        0.0000 
     15 CA          1.4700    7.9390   30.2590 C.3       6 GLP5        0.0000 
     16 CA          1.4665    6.2440   27.3015 C.3       3 GLC5        0.0000 
     17 CA          3.0080    7.1160   26.6830 C.3       6 GLP5        0.0000 
     18 CA         -1.6345    4.6580   28.4620 C.3       3 GLC5        0.0000 
     19 CA         -3.1940    3.9440   29.0040 C.3       6 GLP5        0.0000 
     20 CA          0.6860    4.1815   28.8530 C.3       3 GLC5        0.0000 
     21 CA          1.4470    2.9910   29.7860 C.3       6 GLP5        0.0000 
     22 CA         -2.5665    9.0965   18.4655 C.3       3 GLC5        0.0000 
     23 CA         -3.3820    9.7880   19.8760 C.3       9 GLL5        0.0000 
     24 CA         -1.7510    8.4050   17.0550 C.3       6 GLP5        0.0000 
     25 CA         -6.2555   16.3865   27.2635 C.3       3 GLC5        0.0000 
     26 CA         -5.5370   17.3350   25.3690 C.3       9 GLL5        0.0000 
     27 CA         -6.9740   15.4380   29.1580 C.3       6 GLP5        0.0000 
     28 CA         -2.6005   16.8990   27.4045 C.3       3 GLC5        0.0000 
     29 CA         -4.0480   15.9250   26.3800 C.3       9 GLL5        0.0000 
     30 CA         -1.1530   17.8730   28.4290 C.3       6 GLP5        0.0000 
     31 CA         -5.5110   15.6815   27.7690 C.3       3 GLC5        0.0000 
     32 CA         -3.1120   14.9525   28.0095 C.3       3 GLC5        0.0000 
     33 CA         -2.1760   13.9800   29.6390 C.3       6 GLP5        0.0000 
     34 CA         -3.8240   14.3130   27.6950 C.3       3 GLC5        0.0000 
     35 CA         -3.6000   12.7010   29.0100 C.3       6 GLP5        0.0000 
     36 CA         -3.2095    7.8255   25.6125 C.3       3 GLC5        0.0000 
     37 CA         -1.2620    8.5660   25.8520 C.3       9 GLL5        0.0000 
     38 CA         -5.1570    7.0850   25.3730 C.3       6 GLP5        0.0000 
     39 CA         -3.7425   12.6612   27.0335 C.3       3 GLC5        0.0000 
     40 CA         -1.4435   10.2485   28.1670 C.3       3 GLC5        0.0000 
     41 CA         -2.2850    9.0370   26.6440 C.3       9 GLL5        0.0000 
     42 CA         -0.3950   11.8020   29.1150 C.3       6 GLP5        0.0000 
     43 CA         -1.9518    7.7118   24.7140 C.3       3 GLC5        0.0000 
     44 CA         -2.1300    6.6220   23.1800 C.3       6 GLP5        0.0000 
     45 CA         -0.0048    7.4725   29.0422 C.3       3 GLC5        0.0000 
     46 CA         -1.9990    7.2350   28.2140 C.3       9 GLL5        0.0000 
     47 CA          1.1202    7.1155   26.7688 C.3       3 GLC5        0.0000 
     48 CA         -0.9600    6.7770   27.4370 C.3       9 GLL5        0.0000 
     49 CA         -1.4487    6.8685   25.0173 C.3       3 GLC5        0.0000 
     50 CA         -0.5750    7.4530   26.2720 C.3       9 GLL5        0.0000 
     51 CA         -2.3367    5.4750   28.4148 C.3       3 GLC5        0.0000 
     52 CA         -3.7012    7.5250   26.5448 C.3       3 GLC5        0.0000 
     53 CA         -4.1285    7.1163   20.4657 C.3       3 GLC5        0.0000 
     54 CA         -4.8520    8.0840   19.0950 C.3       9 GLL5        0.0000 
     55 CA         -2.7910    6.4720   21.7980 C.3       6 GLP5        0.0000 
     56 CA         -6.0850    3.7677   14.9075 C.3       3 GLC5        0.0000 
     57 CA         -6.9000    4.3420   16.4650 C.3       9 GLL5        0.0000 
     58 CA         -5.2000    2.5390   13.5300 C.3       6 GLP5        0.0000 
     59 CA         -4.6844    4.3380   17.1784 C.3       3 GLC5        0.0000 
     60 CA         -2.7300    4.2250   17.0140 C.3       6 GLP5        0.0000 
     61 CA         -8.1399    3.7360   18.2619 C.3       3 GLC5        0.0000 
     62 CA         -6.4940    4.0550   17.7840 C.3       9 GLL5        0.0000 
     63 CA         -9.6410    3.0210   19.1810 C.3       6 GLP5        0.0000 
     64 CA         -3.4991    8.0234   20.9730 C.3       3 GLC5        0.0000 
     65 CA         -5.4960    9.5860   20.8900 C.3       9 GLL5        0.0000 
     66 CA         -2.2052   15.7631   25.6864 C.3       3 GLC5        0.0000 
     67 CA         -3.6040   16.7060   24.3030 C.3       9 GLL5        0.0000 
@<TRIPOS>BOND
@<TRIPOS>SUBSTRUCTURE
     1 ALC1       10 GROUP        1 X    ALC  0     ROOT ALC X 1
     2 SEC2        7 GROUP        1 X    SEC  0     **** SEC X 2
     3 GLC5        1 GROUP        1 X    GLC  0     **** GLC X 6
     4 ALP1       12 GROUP        1 Y    ALP  0     ROOT ALP Y 8
     5 SEP2        9 GROUP        1 Y    SEP  0     **** SEP Y 9
     6 GLP5        3 GROUP        1 Y    GLP  0     **** GLP Y 13
     7 ALL1       11 GROUP        1 Z    ALL  0     ROOT ALL Z 15
     8 SEL2        8 GROUP        1 Z    SEL  0     **** SEL Z 16
     9 GLL5        2 GROUP        1 Z    GLL  0     **** GLL Z 20
@<TRIPOS>SET

