#    Name: 2xc4_IVK_1_ligand
#    Modification time : Tue Mar 25 05:50:05 2014

@<TRIPOS>MOLECULE
2xc4_IVK_1_ligand
   58    61     1     0     0
SMALL
NO_CHARGES


@<TRIPOS>ATOM
      1 C1         -3.9090   11.8950   24.8310 C.3       1 IVK1246     0.0000 
      2 C2         -3.8030   12.0200   23.3060 C.3       1 IVK1246     0.0000 
      3 C3         -4.7210   13.2440   23.0170 C.3       1 IVK1246     0.0000 
      4 N4         -4.3020   14.1740   24.1020 N.3       1 IVK1246     0.0000 
      5 C5         -3.8610   13.3480   25.2830 C.3       1 IVK1246     0.0000 
      6 C6         -2.7400   11.0360   25.2640 C.2       1 IVK1246     0.0000 
      7 C7         -4.1260   10.7380   22.5450 C.2       1 IVK1246     0.0000 
      8 N8         -5.1580   10.7090   21.6840 N.am      1 IVK1246     0.0000 
      9 O9         -3.4270    9.7120   22.6660 O.2       1 IVK1246     0.0000 
     10 O10        -1.6090   11.2460   24.8610 O.2       1 IVK1246     0.0000 
     11 N11        -3.0440   10.0840   26.1430 N.am      1 IVK1246     0.0000 
     12 C12        -2.2850    9.0370   26.6440 C.ar      1 IVK1246     0.0000 
     13 C14        -0.9600    6.7770   27.4370 C.ar      1 IVK1246     0.0000 
     14 C15        -1.9990    7.2350   28.2140 C.ar      1 IVK1246     0.0000 
     15 C16        -0.5750    7.4530   26.2720 C.ar      1 IVK1246     0.0000 
     16 C17        -2.6990    8.3530   27.7940 C.ar      1 IVK1246     0.0000 
     17 CL1        -0.0750    5.3720   27.9200 Cl        1 IVK1246     0.0000 
     18 C19        -5.4960    9.5860   20.8900 C.ar      1 IVK1246     0.0000 
     19 C20        -6.7340    8.9570   20.9530 C.ar      1 IVK1246     0.0000 
     20 C21        -6.0800    7.4370   19.1720 C.ar      1 IVK1246     0.0000 
     21 C22        -4.8520    8.0840   19.0950 C.ar      1 IVK1246     0.0000 
     22 C23        -7.0080    7.8860   20.1100 C.ar      1 IVK1246     0.0000 
     23 C24        -4.5690    9.1370   19.9500 C.ar      1 IVK1246     0.0000 
     24 N25        -6.3720    6.3640   18.2930 N.am      1 IVK1246     0.0000 
     25 C26        -6.2610    5.0650   18.6570 C.2       1 IVK1246     0.0000 
     26 C27        -6.9000    4.3420   16.4650 C.2       1 IVK1246     0.0000 
     27 C28        -7.0400    5.6510   16.1050 C.2       1 IVK1246     0.0000 
     28 C29        -6.4940    4.0550   17.7840 C.2       1 IVK1246     0.0000 
     29 C30        -6.7570    6.6650   17.0250 C.2       1 IVK1246     0.0000 
     30 O31        -6.8420    7.8290   16.6640 O.2       1 IVK1246     0.0000 
     31 F32        -3.3820    9.7880   19.8760 F         1 IVK1246     0.0000 
     32 C33        -5.3490   15.1010   24.5290 C.3       1 IVK1246     0.0000 
     33 C34        -4.6260   16.2930   25.1560 C.3       1 IVK1246     0.0000 
     34 F35        -5.5370   17.3350   25.3690 F         1 IVK1246     0.0000 
     35 F36        -3.6040   16.7060   24.3030 F         1 IVK1246     0.0000 
     36 F30        -4.0480   15.9250   26.3800 F         1 IVK1246     0.0000 
     37 C35        -1.2620    8.5660   25.8520 C.ar      1 IVK1246     0.0000 
     38 H          -4.8300   11.4613   25.0569 H         1 IVK1246     0.0000 
     39 H          -2.7821   12.3482   23.0945 H         1 IVK1246     0.0000 
     40 H          -5.7225   12.9466   23.1324 H         1 IVK1246     0.0000 
     41 H          -4.4796   13.6276   22.0687 H         1 IVK1246     0.0000 
     42 H          -2.8555   13.6042   25.5569 H         1 IVK1246     0.0000 
     43 H          -4.5369   13.4894   26.1045 H         1 IVK1246     0.0000 
     44 H          -5.7742   11.5646   21.5713 H         1 IVK1246     0.0000 
     45 H          -4.0786   10.1174   26.5574 H         1 IVK1246     0.0000 
     46 H          -2.2520    6.7621   29.0844 H         1 IVK1246     0.0000 
     47 H           0.2334    7.1023   25.7329 H         1 IVK1246     0.0000 
     48 H          -3.5163    8.6841   28.3164 H         1 IVK1246     0.0000 
     49 H          -7.4438    9.2822   21.6199 H         1 IVK1246     0.0000 
     50 H          -4.1545    7.7794   18.4023 H         1 IVK1246     0.0000 
     51 H          -7.9279    7.4069   20.1798 H         1 IVK1246     0.0000 
     52 H          -5.9858    4.8319   19.6464 H         1 IVK1246     0.0000 
     53 H          -7.0784    3.5803   15.8157 H         1 IVK1246     0.0000 
     54 H          -7.3542    5.9080   15.1562 H         1 IVK1246     0.0000 
     55 H          -6.3811    3.0678   18.0612 H         1 IVK1246     0.0000 
     56 H          -5.9867   14.6556   25.2733 H         1 IVK1246     0.0000 
     57 H          -5.9271   15.4516   23.6912 H         1 IVK1246     0.0000 
     58 H          -1.0215    9.0325   24.9761 H         1 IVK1246     0.0000 
@<TRIPOS>BOND
     1    2    1 1    
     2    5    1 1    
     3    6    1 1    
     4   38    1 1    
     5    3    2 1    
     6    7    2 1    
     7   39    2 1    
     8    4    3 1    
     9   40    3 1    
    10   41    3 1    
    11    5    4 1    
    12   32    4 1    
    13   42    5 1    
    14   43    5 1    
    15   10    6 2    
    16   11    6 am   
    17    8    7 am   
    18    9    7 2    
    19   18    8 1    
    20   44    8 1    
    21   12   11 1    
    22   45   11 1    
    23   16   12 ar   
    24   37   12 ar   
    25   14   13 ar   
    26   15   13 ar   
    27   17   13 1    
    28   16   14 ar   
    29   46   14 1    
    30   37   15 ar   
    31   47   15 1    
    32   48   16 1    
    33   19   18 ar   
    34   23   18 ar   
    35   22   19 ar   
    36   49   19 1    
    37   21   20 ar   
    38   22   20 ar   
    39   24   20 1    
    40   23   21 ar   
    41   50   21 1    
    42   51   22 1    
    43   31   23 1    
    44   25   24 1    
    45   29   24 am   
    46   28   25 2    
    47   52   25 1    
    48   27   26 2    
    49   28   26 1    
    50   53   26 1    
    51   29   27 1    
    52   54   27 1    
    53   55   28 1    
    54   30   29 2    
    55   33   32 1    
    56   56   32 1    
    57   57   32 1    
    58   34   33 1    
    59   35   33 1    
    60   36   33 1    
    61   58   37 1    
@<TRIPOS>SUBSTRUCTURE
     1 IVK1246     1 GROUP   
@<TRIPOS>SET

