#    Name: 4fz6_0VG_1_INTS_M
#    Modification time : Mon Mar 24 21:07:32 2014

@<TRIPOS>MOLECULE
4fz6_0VG_1_INTS_M
   67     0     9     0     0
SMALL
NO_CHARGES


@<TRIPOS>ATOM
      1 CA          2.6845   -2.8095   15.4015 C.3       3 GLC5        0.0000 
      2 CA          2.4300   -0.7110   14.8520 C.3       9 GLL5        0.0000 
      3 CA          2.9390   -4.9080   15.9510 C.3       6 GLP5        0.0000 
      4 CA          2.3585   -0.4540   11.8020 C.3       3 GLC5        0.0000 
      5 CA          2.0830    0.1350   13.8210 C.3       9 GLL5        0.0000 
      6 CA          2.6340   -1.0430    9.7830 C.3       6 GLP5        0.0000 
      7 CA         -0.5765   -2.9920   12.9890 C.3       3 GLC5        0.0000 
      8 CA         -1.7500   -1.4580   14.0720 C.3       9 GLL5        0.0000 
      9 CA          0.5970   -4.5260   11.9060 C.3       6 GLP5        0.0000 
     10 N           4.4245   -2.2640   17.4570 N.am      2 SEC2        0.0000 
     11 N           4.3660   -1.3020   16.3080 N.am      8 SEL2        0.0000 
     12 N           4.4830   -3.2260   18.6060 N.am      5 SEP2        0.0000 
     13 O           1.5275   -2.1815   17.0565 O.2       1 ALC1        0.0000 
     14 O           1.5730   -1.6270   15.4910 O.2       7 ALL1        0.0000 
     15 O           1.4820   -2.7360   18.6220 O.2       4 ALP1        0.0000 
     16 CA          5.8265   -2.7480   16.8690 C.3       3 GLC5        0.0000 
     17 CA          5.6260   -0.8680   16.3840 C.3       9 GLL5        0.0000 
     18 CA          6.0270   -4.6280   17.3540 C.3       6 GLP5        0.0000 
     19 CA          4.6275   -1.1000   18.1490 C.3       3 GLC5        0.0000 
     20 CA          3.6290   -1.3320   19.9140 C.3       6 GLP5        0.0000 
     21 CA          2.6815    0.4770   10.9835 C.3       3 GLC5        0.0000 
     22 CA          2.7290    1.9970   12.1840 C.3       9 GLL5        0.0000 
     23 CA         -2.1620    1.0460   14.4050 C.3       3 GLC5        0.0000 
     24 CA         -1.7790    0.4830   12.4640 C.3       9 GLL5        0.0000 
     25 CA         -2.5450    1.6090   16.3460 C.3       6 GLP5        0.0000 
     26 CA         -3.2280    0.5300   14.7100 C.3       3 GLC5        0.0000 
     27 CA         -3.9110   -0.5490   13.0740 C.3       9 GLL5        0.0000 
     28 CA          0.1870   -4.1405   17.7075 C.3       3 GLC5        0.0000 
     29 CA         -0.3770   -2.9450   15.9280 C.3       9 GLL5        0.0000 
     30 CA          0.7510   -5.3360   19.4870 C.3       6 GLP5        0.0000 
     31 CA         -2.7135    2.1900   13.8675 C.3       3 GLC5        0.0000 
     32 CA         -2.9360    1.4040   12.0080 C.3       9 GLL5        0.0000 
     33 CA         -2.4910    2.9760   15.7270 C.3       6 GLP5        0.0000 
     34 CA          5.7860    1.6700   11.6920 C.3       3 GLC5        0.0000 
     35 CA          3.7140    2.3520   11.2440 C.3       9 GLL5        0.0000 
     36 CA          7.8580    0.9880   12.1400 C.3       6 GLP5        0.0000 
     37 CA         -0.8940   -1.9125   10.6370 C.3       3 GLC5        0.0000 
     38 CA         -0.9450    0.0220   11.2610 C.3       9 GLL5        0.0000 
     39 CA         -0.8430   -3.8470   10.0130 C.3       6 GLP5        0.0000 
     40 CA         -1.7620   -0.2750    9.3925 C.3       3 GLC5        0.0000 
     41 CA         -2.5790   -0.5720    7.5240 C.3       6 GLP5        0.0000 
     42 CA          0.4800   -0.3015    9.8845 C.3       3 GLC5        0.0000 
     43 CA          1.9050   -0.6250    8.5080 C.3       6 GLP5        0.0000 
     44 CA          3.7908   -1.5825   13.8003 C.3       3 GLC5        0.0000 
     45 CA          5.3250   -2.8770   13.2640 C.3       6 GLP5        0.0000 
     46 CA          2.9788    0.9355   15.7828 C.3       3 GLC5        0.0000 
     47 CA          3.7010    2.1590   17.2290 C.3       6 GLP5        0.0000 
     48 CA         -2.3133   -0.1822   15.3777 C.3       3 GLC5        0.0000 
     49 CA         -2.4130   -2.4890   14.7470 C.3       9 GLL5        0.0000 
     50 CA          0.2625   -3.4750   13.7410 C.3       3 GLC5        0.0000 
     51 CA          0.2330   -1.9030   15.2240 C.3       9 GLL5        0.0000 
     52 CA          1.4335   -3.6660   15.7635 C.3       3 GLC5        0.0000 
     53 CA          5.5285   -1.6360   14.5877 C.3       3 GLC5        0.0000 
     54 CA          7.3175    0.4765   16.7978 C.3       3 GLC5        0.0000 
     55 CA          5.8380    0.0780   15.4390 C.3       9 GLL5        0.0000 
     56 CA          8.9030    1.3480   17.6840 C.3       6 GLP5        0.0000 
     57 CA          7.6420   -0.5555   15.1813 C.3       3 GLC5        0.0000 
     58 CA          9.5520   -0.7160   14.4510 C.3       6 GLP5        0.0000 
     59 CA          4.7165    0.8820   16.5703 C.3       3 GLC5        0.0000 
     60 CA         -1.9087   -4.1180   13.5230 C.3       3 GLC5        0.0000 
     61 CA         -1.7160   -3.2430   15.6870 C.3       9 GLL5        0.0000 
     62 CA         -1.7530   -5.3700   11.8290 C.3       6 GLP5        0.0000 
     63 CA         -1.2757   -1.4826   16.7021 C.3       3 GLC5        0.0000 
     64 CA         -1.5660   -0.4490   18.0920 C.3       6 GLP5        0.0000 
     65 CA          2.0344    2.0402    9.6934 C.3       3 GLC5        0.0000 
     66 CA          1.1960    3.5280   11.1290 C.3       9 GLL5        0.0000 
     67 CA          1.9660    0.8780    8.3360 C.3       6 GLP5        0.0000 
@<TRIPOS>BOND
@<TRIPOS>SUBSTRUCTURE
     1 ALC1       13 GROUP        1 X    ALC  0     ROOT ALC X 1
     2 SEC2       10 GROUP        1 X    SEC  0     **** SEC X 2
     3 GLC5        1 GROUP        1 X    GLC  0     **** GLC X 6
     4 ALP1       15 GROUP        1 Y    ALP  0     ROOT ALP Y 8
     5 SEP2       12 GROUP        1 Y    SEP  0     **** SEP Y 9
     6 GLP5        3 GROUP        1 Y    GLP  0     **** GLP Y 13
     7 ALL1       14 GROUP        1 Z    ALL  0     ROOT ALL Z 15
     8 SEL2       11 GROUP        1 Z    SEL  0     **** SEL Z 16
     9 GLL5        2 GROUP        1 Z    GLL  0     **** GLL Z 20
@<TRIPOS>SET

