#    Name: 4fz6_0VG_1_ligand
#    Modification time : Mon Mar 24 21:07:32 2014

@<TRIPOS>MOLECULE
4fz6_0VG_1_ligand
   50    54     1     0     0
SMALL
NO_CHARGES


@<TRIPOS>ATOM
      1 C1          3.7540   -0.6480   15.3380 C.2       1 0VG701      0.0000 
      2 N2          4.6620    0.2190   14.7740 N.pl3     1 0VG701      0.0000 
      3 C3          2.4300   -0.7110   14.8520 C.2       1 0VG701      0.0000 
      4 N4          4.2770    1.0560   13.7370 N.2       1 0VG701      0.0000 
      5 C5          2.0830    0.1350   13.8210 C.2       1 0VG701      0.0000 
      6 C6          3.0430    1.0310   13.2760 C.2       1 0VG701      0.0000 
      7 N7         -0.4690   -1.2080   14.3360 N.ar      1 0VG701      0.0000 
      8 C8         -1.7500   -1.4580   14.0720 C.ar      1 0VG701      0.0000 
      9 N9         -2.4270   -0.6880   13.1160 N.3       1 0VG701      0.0000 
     10 N10         4.3660   -1.3020   16.3080 N.2       1 0VG701      0.0000 
     11 N11         1.5730   -1.6270   15.4910 N.pl3     1 0VG701      0.0000 
     12 C12         0.2330   -1.9030   15.2240 C.ar      1 0VG701      0.0000 
     13 C13         5.8380    0.0780   15.4390 C.2       1 0VG701      0.0000 
     14 C14         5.6260   -0.8680   16.3840 C.2       1 0VG701      0.0000 
     15 C15         2.7290    1.9970   12.1840 C.ar      1 0VG701      0.0000 
     16 C16        -1.7790    0.4830   12.4640 C.3       1 0VG701      0.0000 
     17 C17        -3.9110   -0.5490   13.0740 C.3       1 0VG701      0.0000 
     18 C18        -2.4130   -2.4890   14.7470 C.ar      1 0VG701      0.0000 
     19 C19        -0.3770   -2.9450   15.9280 C.ar      1 0VG701      0.0000 
     20 C20        -1.7160   -3.2430   15.6870 C.ar      1 0VG701      0.0000 
     21 C21        -4.1780    0.4900   11.9680 C.3       1 0VG701      0.0000 
     22 C22        -2.9360    1.4040   12.0080 C.3       1 0VG701      0.0000 
     23 C23         3.7140    2.3520   11.2440 C.ar      1 0VG701      0.0000 
     24 C24         1.4720    2.6090   12.1320 C.ar      1 0VG701      0.0000 
     25 C25        -0.9450    0.0220   11.2610 C.3       1 0VG701      0.0000 
     26 C26         3.4310    3.2760   10.2490 C.ar      1 0VG701      0.0000 
     27 C27         1.1960    3.5280   11.1290 C.ar      1 0VG701      0.0000 
     28 C28         2.1710    3.8590   10.1960 C.ar      1 0VG701      0.0000 
     29 H           1.1327    0.1330   13.4315 H         1 0VG701      0.0000 
     30 H           2.0226   -2.1948   16.3037 H         1 0VG701      0.0000 
     31 H           6.6446    0.5492   15.2726 H         1 0VG701      0.0000 
     32 H           6.2986   -1.1777   17.0185 H         1 0VG701      0.0000 
     33 H          -1.1768    1.0065   13.1538 H         1 0VG701      0.0000 
     34 H          -4.2840   -0.1709   13.9995 H         1 0VG701      0.0000 
     35 H          -4.3718   -1.4714   12.7991 H         1 0VG701      0.0000 
     36 H          -3.3957   -2.6832   14.5502 H         1 0VG701      0.0000 
     37 H           0.1576   -3.4832   16.6143 H         1 0VG701      0.0000 
     38 H          -2.1773   -4.0001   16.1904 H         1 0VG701      0.0000 
     39 H          -5.0410    1.0526   12.2081 H         1 0VG701      0.0000 
     40 H          -4.2325    0.0055   11.0292 H         1 0VG701      0.0000 
     41 H          -2.7321    1.7723   11.0345 H         1 0VG701      0.0000 
     42 H          -3.0806    2.1718   12.7253 H         1 0VG701      0.0000 
     43 H           4.6450    1.9195   11.3025 H         1 0VG701      0.0000 
     44 H           0.7616    2.3766   12.8334 H         1 0VG701      0.0000 
     45 H           4.1452    3.5275    9.5576 H         1 0VG701      0.0000 
     46 H           0.2651    3.9666   11.0756 H         1 0VG701      0.0000 
     47 H           1.9565    4.5465    9.4545 H         1 0VG701      0.0000 
     48 H          -0.4980    0.7902   10.8027 H         1 0VG701      0.0000 
     49 H          -0.2250   -0.6172   11.5313 H         1 0VG701      0.0000 
     50 H          -1.5065   -0.4417   10.5756 H         1 0VG701      0.0000 
@<TRIPOS>BOND
     1    2    1 1    
     2    3    1 1    
     3   10    1 2    
     4    4    2 1    
     5   13    2 1    
     6    5    3 2    
     7   11    3 1    
     8    6    4 2    
     9    6    5 1    
    10   29    5 1    
    11   15    6 1    
    12    8    7 ar   
    13   12    7 ar   
    14    9    8 1    
    15   18    8 ar   
    16   16    9 1    
    17   17    9 1    
    18   14   10 1    
    19   12   11 1    
    20   30   11 1    
    21   19   12 ar   
    22   14   13 2    
    23   31   13 1    
    24   32   14 1    
    25   23   15 ar   
    26   24   15 ar   
    27   22   16 1    
    28   25   16 1    
    29   33   16 1    
    30   21   17 1    
    31   34   17 1    
    32   35   17 1    
    33   20   18 ar   
    34   36   18 1    
    35   20   19 ar   
    36   37   19 1    
    37   38   20 1    
    38   22   21 1    
    39   39   21 1    
    40   40   21 1    
    41   41   22 1    
    42   42   22 1    
    43   26   23 ar   
    44   43   23 1    
    45   27   24 ar   
    46   44   24 1    
    47   48   25 1    
    48   49   25 1    
    49   50   25 1    
    50   28   26 ar   
    51   45   26 1    
    52   28   27 ar   
    53   46   27 1    
    54   47   28 1    
@<TRIPOS>SUBSTRUCTURE
     1 0VG701      1 GROUP   
@<TRIPOS>SET

