#    Name: 3e92_G6A_1_INTS_M
#    Modification time : Tue Mar 25 01:15:29 2014

@<TRIPOS>MOLECULE
3e92_G6A_1_INTS_M
   78     0     9     0     0
SMALL
NO_CHARGES


@<TRIPOS>ATOM
      1 CA         48.4640   32.8115   29.8345 C.3       3 GLC5        0.0000 
      2 CA         48.9010   34.8130   30.4810 C.3       9 GLL5        0.0000 
      3 CA         48.0270   30.8100   29.1880 C.3       6 GLP5        0.0000 
      4 CA         49.1030   36.7420   31.0120 C.3       3 GLC5        0.0000 
      5 CA         49.3050   38.6710   31.5430 C.3       6 GLP5        0.0000 
      6 CA         50.2640   35.3960   31.6995 C.3       3 GLC5        0.0000 
      7 CA         51.6270   35.9790   32.9180 C.3       6 GLP5        0.0000 
      8 CA         35.4405   26.2605   37.4410 C.3       3 GLC5        0.0000 
      9 CA         37.1320   26.5140   36.2330 C.3       9 GLL5        0.0000 
     10 CA         33.7490   26.0070   38.6490 C.3       6 GLP5        0.0000 
     11 CA         38.8765   29.2820   37.1060 C.3       3 GLC5        0.0000 
     12 CA         38.2640   27.1710   36.9540 C.3       9 GLL5        0.0000 
     13 CA         39.4890   31.3930   37.2580 C.3       6 GLP5        0.0000 
     14 N          47.5680   37.0385   32.2060 N.am      2 SEC2        0.0000 
     15 N          46.9900   35.7430   32.0320 N.am      8 SEL2        0.0000 
     16 N          48.1460   38.3340   32.3800 N.am      5 SEP2        0.0000 
     17 N          45.5925   36.7865   32.7490 N.am      2 SEC2        0.0000 
     18 N          45.8270   35.3620   32.3690 N.am      8 SEL2        0.0000 
     19 N          45.3580   38.2110   33.1290 N.am      5 SEP2        0.0000 
     20 CA         40.3055   33.9715   32.6900 C.3       3 GLC5        0.0000 
     21 CA         42.0870   32.9840   32.6390 C.3       9 GLL5        0.0000 
     22 CA         38.5240   34.9590   32.7410 C.3       6 GLP5        0.0000 
     23 CA         42.7535   32.4830   34.4605 C.3       3 GLC5        0.0000 
     24 CA         43.4200   31.9820   36.2820 C.3       6 GLP5        0.0000 
     25 CA         44.2145   29.1260   29.3595 C.3       3 GLC5        0.0000 
     26 CA         43.0360   30.0670   30.4250 C.3       9 GLL5        0.0000 
     27 CA         45.3930   28.1850   28.2940 C.3       6 GLP5        0.0000 
     28 CA         42.7460   29.5850   28.4680 C.3       3 GLC5        0.0000 
     29 CA         42.4560   29.1030   26.5110 C.3       6 GLP5        0.0000 
     30 CA         42.7110   30.3525   33.8640 C.3       3 GLC5        0.0000 
     31 CA         40.6450   30.0430   33.1170 C.3       9 GLL5        0.0000 
     32 CA         44.7770   30.6620   34.6110 C.3       6 GLP5        0.0000 
     33 CA         37.7925   29.7145   34.5005 C.3       3 GLC5        0.0000 
     34 CA         39.5210   29.2010   33.2980 C.3       9 GLL5        0.0000 
     35 CA         36.0640   30.2280   35.7030 C.3       6 GLP5        0.0000 
     36 N          41.1465   27.8450   36.2965 N.am      2 SEC2        0.0000 
     37 N          40.4020   28.4830   35.3640 N.am      8 SEL2        0.0000 
     38 N          41.8910   27.2070   37.2290 N.am      5 SEP2        0.0000 
     39 O          37.9775   26.7995   33.3630 O.2       1 ALC1        0.0000 
     40 O          38.5850   27.2970   34.6010 O.2       7 ALL1        0.0000 
     41 O          37.3700   26.3020   32.1250 O.2       4 ALP1        0.0000 
     42 CA         36.5655   30.4820   30.3840 C.3       3 GLC5        0.0000 
     43 CA         38.5450   30.2290   31.3010 C.3       9 GLL5        0.0000 
     44 CA         34.5860   30.7350   29.4670 C.3       6 GLP5        0.0000 
     45 CA         40.7805   33.5050   29.5010 C.3       3 GLC5        0.0000 
     46 CA         39.7830   32.0540   29.9890 C.3       9 GLL5        0.0000 
     47 CA         41.7780   34.9560   29.0130 C.3       6 GLP5        0.0000 
     48 CA         36.5272   26.0817   34.4882 C.3       3 GLC5        0.0000 
     49 CA         38.5190   26.3570   35.7020 C.3       9 GLL5        0.0000 
     50 CA         35.2290   25.7280   33.0090 C.3       6 GLP5        0.0000 
     51 CA         36.8810   28.5353   36.1483 C.3       3 GLC5        0.0000 
     52 CA         37.4060   27.3588   38.3912 C.3       3 GLC5        0.0000 
     53 CA         37.1140   27.8750   40.1890 C.3       6 GLP5        0.0000 
     54 CA         38.0687   24.7018   35.2357 C.3       3 GLC5        0.0000 
     55 CA         38.3120   22.9680   34.5040 C.3       6 GLP5        0.0000 
     56 CA         40.0662   26.2610   36.7100 C.3       3 GLC5        0.0000 
     57 CA         41.7410   25.7580   37.0920 C.3       6 GLP5        0.0000 
     58 CA         42.7675   34.2803   30.6205 C.3       3 GLC5        0.0000 
     59 CA         43.2130   33.8020   32.6200 C.3       9 GLL5        0.0000 
     60 CA         44.2670   32.1332   33.4195 C.3       3 GLC5        0.0000 
     61 CA         41.8200   34.0675   34.2413 C.3       3 GLC5        0.0000 
     62 CA         40.9900   34.7420   35.8530 C.3       6 GLP5        0.0000 
     63 CA         41.9083   33.6710   30.6530 C.3       3 GLC5        0.0000 
     64 CA         42.7105   33.3715   30.0815 C.3       3 GLC5        0.0000 
     65 CA         43.0760   31.3710   31.1840 C.3       9 GLL5        0.0000 
     66 CA         43.7968   31.2248   33.0797 C.3       3 GLC5        0.0000 
     67 CA         44.2100   32.2030   31.1160 C.3       9 GLL5        0.0000 
     68 CA         36.7452   29.6330   32.6815 C.3       3 GLC5        0.0000 
     69 CA         38.4600   29.3230   32.3610 C.3       9 GLL5        0.0000 
     70 CA         34.9880   29.4900   33.5320 C.3       6 GLP5        0.0000 
     71 CA         38.1172   31.7085   32.2540 C.3       3 GLC5        0.0000 
     72 CA         37.7320   33.6410   32.6770 C.3       6 GLP5        0.0000 
     73 CA         39.1879   28.4032   30.7051 C.3       3 GLC5        0.0000 
     74 CA         39.6080   27.0610   29.3450 C.3       6 GLP5        0.0000 
     75 CA         39.0760   30.4830   28.9775 C.3       3 GLC5        0.0000 
     76 CA         39.6930   31.0460   31.1330 C.3       9 GLL5        0.0000 
     77 CA         38.4140   29.4160   27.3940 C.3       6 GLP5        0.0000 
     78 CA         38.8671   32.5836   31.7332 C.3       3 GLC5        0.0000 
@<TRIPOS>BOND
@<TRIPOS>SUBSTRUCTURE
     1 ALC1       39 GROUP        1 X    ALC  0     ROOT ALC X 1
     2 SEC2       14 GROUP        1 X    SEC  0     **** SEC X 2
     3 GLC5        1 GROUP        1 X    GLC  0     **** GLC X 6
     4 ALP1       41 GROUP        1 Y    ALP  0     ROOT ALP Y 8
     5 SEP2       16 GROUP        1 Y    SEP  0     **** SEP Y 9
     6 GLP5        3 GROUP        1 Y    GLP  0     **** GLP Y 13
     7 ALL1       40 GROUP        1 Z    ALL  0     ROOT ALL Z 15
     8 SEL2       15 GROUP        1 Z    SEL  0     **** SEL Z 16
     9 GLL5        2 GROUP        1 Z    GLL  0     **** GLL Z 20
@<TRIPOS>SET

