#    Name: 3e92_G6A_1_ligand
#    Modification time : Tue Mar 25 01:15:29 2014

@<TRIPOS>MOLECULE
3e92_G6A_1_ligand
   47    50     1     0     0
SMALL
NO_CHARGES


@<TRIPOS>ATOM
      1 C26        48.9010   34.8130   30.4810 C.3       1 G6A361      0.0000 
      2 C23        37.1320   26.5140   36.2330 C.3       1 G6A361      0.0000 
      3 C22        38.2640   27.1710   36.9540 C.3       1 G6A361      0.0000 
      4 C19        38.5190   26.3570   35.7020 C.3       1 G6A361      0.0000 
      5 C25        47.5280   34.8470   31.1690 C.2       1 G6A361      0.0000 
      6 O21        46.6350   33.8930   30.9750 O.3       1 G6A361      0.0000 
      7 N24        46.9900   35.7430   32.0320 N.2       1 G6A361      0.0000 
      8 N20        45.8270   35.3620   32.3690 N.2       1 G6A361      0.0000 
      9 C18        45.5470   34.1890   31.7290 C.2       1 G6A361      0.0000 
     10 C15        44.3010   33.4070   31.8360 C.ar      1 G6A361      0.0000 
     11 C12        43.2130   33.8020   32.6200 C.ar      1 G6A361      0.0000 
     12 C6         42.0870   32.9840   32.6390 C.ar      1 G6A361      0.0000 
     13 C10        44.2100   32.2030   31.1160 C.ar      1 G6A361      0.0000 
     14 C5         43.0760   31.3710   31.1840 C.ar      1 G6A361      0.0000 
     15 C11        43.0360   30.0670   30.4250 C.3       1 G6A361      0.0000 
     16 C2         41.9900   31.7880   31.9470 C.ar      1 G6A361      0.0000 
     17 C1         40.7500   30.9510   32.0470 C.ar      1 G6A361      0.0000 
     18 C3         40.6450   30.0430   33.1170 C.ar      1 G6A361      0.0000 
     19 C7         39.5210   29.2010   33.2980 C.ar      1 G6A361      0.0000 
     20 C13        39.5490   28.2860   34.4810 C.2       1 G6A361      0.0000 
     21 O17        40.4020   28.4830   35.3640 O.2       1 G6A361      0.0000 
     22 N16        38.5850   27.2970   34.6010 N.am      1 G6A361      0.0000 
     23 C14        38.4600   29.3230   32.3610 C.ar      1 G6A361      0.0000 
     24 C8         38.5450   30.2290   31.3010 C.ar      1 G6A361      0.0000 
     25 C4         39.6930   31.0460   31.1330 C.ar      1 G6A361      0.0000 
     26 C9         39.7830   32.0540   29.9890 C.3       1 G6A361      0.0000 
     27 H          36.6800   27.1731   35.7128 H         1 G6A361      0.0000 
     28 H          36.8941   25.7186   36.7021 H         1 G6A361      0.0000 
     29 H          38.4982   26.6338   37.7006 H         1 G6A361      0.0000 
     30 H          38.2841   28.0883   36.7113 H         1 G6A361      0.0000 
     31 H          38.8563   25.5868   35.8686 H         1 G6A361      0.0000 
     32 H          43.2460   34.6602   33.1583 H         1 G6A361      0.0000 
     33 H          41.2591   33.2960   33.2159 H         1 G6A361      0.0000 
     34 H          45.0059   31.9165   30.5130 H         1 G6A361      0.0000 
     35 H          41.4232   29.9852   33.8053 H         1 G6A361      0.0000 
     36 H          37.8465   27.2025   33.8621 H         1 G6A361      0.0000 
     37 H          37.6258   28.7341   32.4731 H         1 G6A361      0.0000 
     38 H          37.7711   30.3121   30.6289 H         1 G6A361      0.0000 
     39 H          49.4611   35.6029   30.7306 H         1 G6A361      0.0000 
     40 H          49.4205   33.9953   30.7289 H         1 G6A361      0.0000 
     41 H          48.8173   34.8162   29.4845 H         1 G6A361      0.0000 
     42 H          43.1373   30.2073   29.4401 H         1 G6A361      0.0000 
     43 H          43.7686   29.4488   30.7099 H         1 G6A361      0.0000 
     44 H          42.1726   29.5823   30.5648 H         1 G6A361      0.0000 
     45 H          39.8697   32.9915   30.3260 H         1 G6A361      0.0000 
     46 H          40.5732   31.8795   29.4015 H         1 G6A361      0.0000 
     47 H          38.9717   32.0263   29.4050 H         1 G6A361      0.0000 
@<TRIPOS>BOND
     1    5    1 1    
     2   39    1 1    
     3   40    1 1    
     4   41    1 1    
     5    3    2 1    
     6    4    2 1    
     7   27    2 1    
     8   28    2 1    
     9    4    3 1    
    10   29    3 1    
    11   30    3 1    
    12   22    4 1    
    13   31    4 1    
    14    6    5 1    
    15    7    5 2    
    16    9    6 1    
    17    8    7 1    
    18    9    8 2    
    19   10    9 1    
    20   11   10 ar   
    21   13   10 ar   
    22   12   11 ar   
    23   32   11 1    
    24   16   12 ar   
    25   33   12 1    
    26   14   13 ar   
    27   34   13 1    
    28   15   14 1    
    29   16   14 ar   
    30   42   15 1    
    31   43   15 1    
    32   44   15 1    
    33   17   16 1    
    34   18   17 ar   
    35   25   17 ar   
    36   19   18 ar   
    37   35   18 1    
    38   20   19 1    
    39   23   19 ar   
    40   21   20 2    
    41   22   20 am   
    42   36   22 1    
    43   24   23 ar   
    44   37   23 1    
    45   25   24 ar   
    46   38   24 1    
    47   26   25 1    
    48   45   26 1    
    49   46   26 1    
    50   47   26 1    
@<TRIPOS>SUBSTRUCTURE
     1 G6A361      1 GROUP   
@<TRIPOS>SET

