#    Name: 4eiq_KCT_1_INTS_M
#    Modification time : Mon Mar 24 18:00:13 2014

@<TRIPOS>MOLECULE
4eiq_KCT_1_INTS_M
   48     0     6     0     0
SMALL
NO_CHARGES


@<TRIPOS>ATOM
      1 CA         -4.6545   15.5445   48.5565 C.3       2 GLC5        0.0000 
      2 CA         -3.6100   13.9630   47.4970 C.3       6 GLL5        0.0000 
      3 CA         -5.6990   17.1260   49.6160 C.3       4 GLP5        0.0000 
      4 CA         -1.3155   12.4485   44.0195 C.3       2 GLC5        0.0000 
      5 CA         -2.5430   12.0930   45.6460 C.3       6 GLL5        0.0000 
      6 CA         -0.0880   12.8040   42.3930 C.3       4 GLP5        0.0000 
      7 O          -1.4555   10.3025   44.4400 O.2       1 ALC1        0.0000 
      8 O          -2.2560   11.3030   44.5610 O.2       5 ALL1        0.0000 
      9 O          -0.6550    9.3020   44.3190 O.2       3 ALP1        0.0000 
     10 O          -1.5145    9.6860   43.0580 O.2       1 ALC1        0.0000 
     11 O          -2.3740   10.0700   41.7970 O.2       5 ALL1        0.0000 
     12 CA         -1.0110   10.7760   41.0605 C.3       2 GLC5        0.0000 
     13 CA         -2.7500    9.7910   40.4940 C.3       6 GLL5        0.0000 
     14 CA          0.7280   11.7610   41.6270 C.3       4 GLP5        0.0000 
     15 CA         -5.2250    7.8455   37.9115 C.3       2 GLC5        0.0000 
     16 CA         -3.9860    9.6980   37.9260 C.3       6 GLL5        0.0000 
     17 CA         -6.4640    5.9930   37.8970 C.3       4 GLP5        0.0000 
     18 CA         -1.8400   12.4578   43.0930 C.3       2 GLC5        0.0000 
     19 CA         -4.0360   12.6080   44.0040 C.3       6 GLL5        0.0000 
     20 CA         -2.7360   15.5635   46.2703 C.3       2 GLC5        0.0000 
     21 CA         -4.1940   13.8430   46.2160 C.3       6 GLL5        0.0000 
     22 CA         -1.5700   17.2240   45.6840 C.3       4 GLP5        0.0000 
     23 CA         -0.5513   10.9678   46.0290 C.3       2 GLC5        0.0000 
     24 CA         -1.9680   12.2160   46.9300 C.3       6 GLL5        0.0000 
     25 CA          1.1530    9.7810   45.7700 C.3       4 GLP5        0.0000 
     26 CA         -0.8571   13.2845   46.1779 C.3       2 GLC5        0.0000 
     27 CA          0.6740   14.1810   45.8360 C.3       4 GLP5        0.0000 
     28 CA         -1.8785   12.0177   42.1085 C.3       2 GLC5        0.0000 
     29 CA         -4.1410   11.4280   41.3560 C.3       6 GLL5        0.0000 
     30 CA         -5.5162   10.2241   41.6475 C.3       2 GLC5        0.0000 
     31 CA         -5.1060   12.4970   41.8140 C.3       6 GLL5        0.0000 
     32 CA         -6.6450    8.5840   41.4760 C.3       4 GLP5        0.0000 
     33 CA         -4.3049   14.3558   41.4341 C.3       2 GLC5        0.0000 
     34 CA         -3.2620   15.6740   40.3760 C.3       4 GLP5        0.0000 
     35 CA         -4.2770    8.3618   40.3863 C.3       2 GLC5        0.0000 
     36 CA         -6.0490    7.3810   40.7740 C.3       4 GLP5        0.0000 
     37 CA         -5.4087    9.5963   40.5072 C.3       2 GLC5        0.0000 
     38 CA         -3.8580   10.6220   40.1700 C.3       6 GLL5        0.0000 
     39 CA         -1.0080    9.3453   37.9455 C.3       2 GLC5        0.0000 
     40 CA         -2.2600    8.8940   39.5030 C.3       6 GLL5        0.0000 
     41 CA          0.5530    9.8190   37.0270 C.3       4 GLP5        0.0000 
     42 CA         -4.7405    8.3272   39.4248 C.3       2 GLC5        0.0000 
     43 CA         -2.8780    8.8490   38.2250 C.3       6 GLL5        0.0000 
     44 CA         -6.0427    9.6318   37.5532 C.3       2 GLC5        0.0000 
     45 CA         -7.8490    9.1170   36.6900 C.3       4 GLP5        0.0000 
     46 CA         -3.7061   12.8000   39.5020 C.3       2 GLC5        0.0000 
     47 CA         -4.4870   10.5950   38.9070 C.3       6 GLL5        0.0000 
     48 CA         -3.1690   14.7900   39.1690 C.3       4 GLP5        0.0000 
@<TRIPOS>BOND
@<TRIPOS>SUBSTRUCTURE
     1 ALC1        7 GROUP        1 X    ALC  0     ROOT ALC X 1
     2 GLC5        1 GROUP        1 X    GLC  0     **** GLC X 6
     3 ALP1        9 GROUP        1 Y    ALP  0     ROOT ALP Y 8
     4 GLP5        3 GROUP        1 Y    GLP  0     **** GLP Y 13
     5 ALL1        8 GROUP        1 Z    ALL  0     ROOT ALL Z 15
     6 GLL5        2 GROUP        1 Z    GLL  0     **** GLL Z 20
@<TRIPOS>SET

