#    Name: 4eiq_KCT_1_ligand
#    Modification time : Mon Mar 24 18:00:13 2014

@<TRIPOS>MOLECULE
4eiq_KCT_1_ligand
   39    44     1     0     0
SMALL
NO_CHARGES


@<TRIPOS>ATOM
      1 O27        -6.4670   16.3620   43.5510 O.co2     1 KCT600      0.0000 
      2 C25        -5.6160   15.4910   43.4030 C.2       1 KCT600      0.0000 
      3 O26        -4.3860   15.7600   43.3880 O.co2     1 KCT600      0.0000 
      4 C7         -6.1170   14.0820   43.2480 C.3       1 KCT600      0.0000 
      5 N6         -6.8040   14.0490   41.9340 N.am      1 KCT600      0.0000 
      6 C22        -5.0620   13.0740   43.0930 C.ar      1 KCT600      0.0000 
      7 C21        -4.0360   12.6080   44.0040 C.ar      1 KCT600      0.0000 
      8 C20        -3.6510   12.9070   45.3020 C.ar      1 KCT600      0.0000 
      9 C8         -4.1940   13.8430   46.2160 C.ar      1 KCT600      0.0000 
     10 C9         -3.6100   13.9630   47.4970 C.ar      1 KCT600      0.0000 
     11 C10        -2.4990   13.1500   47.8570 C.ar      1 KCT600      0.0000 
     12 C11        -1.9680   12.2160   46.9300 C.ar      1 KCT600      0.0000 
     13 C19        -2.5430   12.0930   45.6460 C.ar      1 KCT600      0.0000 
     14 N12        -2.2560   11.3030   44.5610 N.pl3     1 KCT600      0.0000 
     15 C18        -3.1480   11.6150   43.5820 C.ar      1 KCT600      0.0000 
     16 C17        -3.1970   11.0350   42.2920 C.ar      1 KCT600      0.0000 
     17 C16        -4.1410   11.4280   41.3560 C.ar      1 KCT600      0.0000 
     18 C23        -5.1060   12.4970   41.8140 C.ar      1 KCT600      0.0000 
     19 C5         -6.2290   13.1550   41.1180 C.2       1 KCT600      0.0000 
     20 O24        -6.6210   12.9230   39.9180 O.2       1 KCT600      0.0000 
     21 N13        -2.3740   10.0700   41.7970 N.pl3     1 KCT600      0.0000 
     22 C14        -2.7500    9.7910   40.4940 C.ar      1 KCT600      0.0000 
     23 C15        -3.8580   10.6220   40.1700 C.ar      1 KCT600      0.0000 
     24 C1         -2.2600    8.8940   39.5030 C.ar      1 KCT600      0.0000 
     25 C2         -2.8780    8.8490   38.2250 C.ar      1 KCT600      0.0000 
     26 C3         -3.9860    9.6980   37.9260 C.ar      1 KCT600      0.0000 
     27 C4         -4.4870   10.5950   38.9070 C.ar      1 KCT600      0.0000 
     28 H          -6.7991   13.8293   43.9986 H         1 KCT600      0.0000 
     29 H          -7.5549   14.6231   41.7661 H         1 KCT600      0.0000 
     30 H          -4.9868   14.4153   45.9545 H         1 KCT600      0.0000 
     31 H          -3.9832   14.6340   48.1698 H         1 KCT600      0.0000 
     32 H          -2.0845   13.2401   48.7841 H         1 KCT600      0.0000 
     33 H          -1.1723   11.6358   47.1935 H         1 KCT600      0.0000 
     34 H          -1.5582   10.6564   44.5096 H         1 KCT600      0.0000 
     35 H          -1.6511    9.6461   42.2622 H         1 KCT600      0.0000 
     36 H          -1.4707    8.2886   39.7107 H         1 KCT600      0.0000 
     37 H          -2.5297    8.2060   37.5130 H         1 KCT600      0.0000 
     38 H          -4.4176    9.6581   37.0034 H         1 KCT600      0.0000 
     39 H          -5.2705   11.1940   38.7023 H         1 KCT600      0.0000 
@<TRIPOS>BOND
     1    2    1 ar   
     2    3    2 ar   
     3    4    2 1    
     4    5    4 1    
     5    6    4 1    
     6   28    4 1    
     7   19    5 am   
     8   29    5 1    
     9    7    6 ar   
    10   18    6 ar   
    11    8    7 1    
    12   15    7 ar   
    13    9    8 ar   
    14   13    8 ar   
    15   10    9 ar   
    16   30    9 1    
    17   11   10 ar   
    18   31   10 1    
    19   12   11 ar   
    20   32   11 1    
    21   13   12 ar   
    22   33   12 1    
    23   14   13 1    
    24   15   14 1    
    25   34   14 1    
    26   16   15 ar   
    27   17   16 ar   
    28   21   16 1    
    29   18   17 ar   
    30   23   17 1    
    31   19   18 1    
    32   20   19 2    
    33   22   21 1    
    34   35   21 1    
    35   23   22 ar   
    36   24   22 ar   
    37   27   23 ar   
    38   25   24 ar   
    39   36   24 1    
    40   26   25 ar   
    41   37   25 1    
    42   27   26 ar   
    43   38   26 1    
    44   39   27 1    
@<TRIPOS>SUBSTRUCTURE
     1 KCT600      1 GROUP   
@<TRIPOS>SET

