#    Name: 1NMQ_2_CAVITY_N1_ALL.mol2
#    Modification time : Mon Mar 10 19:55:40 2014

@<TRIPOS>MOLECULE
1NMQ_2_CAVITY_N1_ALL.mol2
   70     0     5     0     0
SMALL
NO_CHARGES


@<TRIPOS>ATOM
      1 N           5.6617   35.2758   34.4141 N.2       2 ALA2        0.0000 
      2 CZ          6.8079   34.5462   33.7784 C.ar      3 PHE5        0.0000 
      3 CA          3.6268   34.8220   34.8053 C.3       4 GLY6        0.0000 
      4 N           4.7729   34.0924   34.1696 N.2       2 ALA2        0.0000 
      5 DU          5.9191   33.3629   33.5340 H         5 CUB7        0.0000 
      6 CZ          7.0652   32.6333   32.8983 C.ar      3 PHE5        0.0000 
      7 CZ          8.2113   31.9037   32.2626 C.ar      3 PHE5        0.0000 
      8 O           3.8841   32.9091   33.9252 O.2       2 ALA2        0.0000 
      9 DU          5.0302   32.1795   33.2895 H         5 CUB7        0.0000 
     10 DU          6.1764   31.4500   32.6539 H         5 CUB7        0.0000 
     11 CZ          7.3225   30.7204   32.0182 C.ar      3 PHE5        0.0000 
     12 CZ          8.4687   29.9908   31.3825 C.ar      3 PHE5        0.0000 
     13 O           2.9953   31.7258   33.6808 O.2       2 ALA2        0.0000 
     14 DU          4.1414   30.9962   33.0451 H         5 CUB7        0.0000 
     15 DU          5.2876   30.2666   32.4094 H         5 CUB7        0.0000 
     16 CZ          6.4337   29.5371   31.7738 C.ar      3 PHE5        0.0000 
     17 CZ          7.5799   28.8075   31.1381 C.ar      3 PHE5        0.0000 
     18 O           2.1065   30.5424   33.4364 O.2       2 ALA2        0.0000 
     19 O           3.2526   29.8129   32.8007 O.2       2 ALA2        0.0000 
     20 DU          4.3988   29.0833   32.1650 H         5 CUB7        0.0000 
     21 O           2.3638   28.6295   32.5563 O.2       2 ALA2        0.0000 
     22 O           4.3903   34.6559   32.8332 O.2       2 ALA2        0.0000 
     23 N           5.5365   33.9263   32.1975 N.2       2 ALA2        0.0000 
     24 CZ          6.6826   33.1967   31.5618 C.ar      3 PHE5        0.0000 
     25 CZ          7.8288   32.4671   30.9261 C.ar      3 PHE5        0.0000 
     26 O           2.3554   34.2021   33.2244 O.2       2 ALA2        0.0000 
     27 N           3.5015   33.4725   32.5887 N.2       2 ALA2        0.0000 
     28 N           4.6477   32.7430   31.9531 N.2       2 ALA2        0.0000 
     29 CZ          5.7938   32.0134   31.3174 C.ar      3 PHE5        0.0000 
     30 CZ          6.9399   31.2838   30.6817 C.ar      3 PHE5        0.0000 
     31 O           2.6127   32.2892   32.3443 O.2       2 ALA2        0.0000 
     32 CA          3.7589   31.5596   31.7086 C.3       4 GLY6        0.0000 
     33 CZ          4.9050   30.8301   31.0730 C.ar      3 PHE5        0.0000 
     34 O           1.7239   31.1059   32.0999 O.2       2 ALA2        0.0000 
     35 O           2.8700   30.3763   31.4642 O.2       2 ALA2        0.0000 
     36 CZ          4.0162   29.6467   30.8285 C.ar      3 PHE5        0.0000 
     37 O           1.9812   29.1930   31.2198 O.2       2 ALA2        0.0000 
     38 DU          3.1274   28.4634   30.5841 H         5 CUB7        0.0000 
     39 N           1.9728   34.7655   31.8879 N.2       2 ALA2        0.0000 
     40 O           1.0840   33.5822   31.6435 O.2       2 ALA2        0.0000 
     41 CA          2.2301   32.8526   31.0078 C.3       4 GLY6        0.0000 
     42 O           0.1952   32.3989   31.3991 O.2       2 ALA2        0.0000 
     43 O           1.3413   31.6693   30.7634 O.2       2 ALA2        0.0000 
     44 CA          2.4875   30.9397   30.1277 C.3       4 GLY6        0.0000 
     45 O           1.5986   29.7564   29.8833 O.2       2 ALA2        0.0000 
     46 CA          2.7448   29.0268   29.2476 C.3       4 GLY6        0.0000 
     47 O           0.7014   34.1456   30.3070 O.2       2 ALA2        0.0000 
     48 N          -0.1874   32.9623   30.0626 N.2       2 ALA2        0.0000 
     49 CA          0.9587   32.2327   29.4269 C.3       4 GLY6        0.0000 
     50 N           5.2808   34.8785   37.7227 N.2       2 ALA2        0.0000 
     51 O           4.3919   33.6951   37.4783 O.2       2 ALA2        0.0000 
     52 DU          5.5381   32.9656   36.8426 H         5 CUB7        0.0000 
     53 O           3.5031   32.5118   37.2338 O.2       2 ALA2        0.0000 
     54 O           4.6493   31.7822   36.5982 O.2       2 ALA2        0.0000 
     55 O           2.6143   31.3285   36.9894 O.2       2 ALA2        0.0000 
     56 N           6.0443   34.7123   35.7506 N.2       2 ALA2        0.0000 
     57 CZ          7.1905   33.9828   35.1149 C.ar      3 PHE5        0.0000 
     58 O           4.0094   34.2586   36.1418 O.2       2 ALA2        0.0000 
     59 N           5.1555   33.5290   35.5061 N.2       2 ALA2        0.0000 
     60 DU          6.3016   32.7994   34.8704 H         5 CUB7        0.0000 
     61 CZ          7.4478   32.0699   34.2348 C.ar      3 PHE5        0.0000 
     62 CZ          8.5939   31.3403   33.5991 C.ar      3 PHE5        0.0000 
     63 O           4.2667   32.3457   35.2617 O.2       2 ALA2        0.0000 
     64 DU          5.4128   31.6161   34.6260 H         5 CUB7        0.0000 
     65 DU          7.7051   30.1570   33.3547 H         5 CUB7        0.0000 
     66 CZ          8.8513   29.4274   32.7190 C.ar      3 PHE5        0.0000 
     67 O           3.3779   31.1623   35.0173 O.2       2 ALA2        0.0000 
     68 DU          4.5240   30.4328   34.3816 H         5 CUB7        0.0000 
     69 DU          6.8163   28.9736   33.1102 H         5 CUB7        0.0000 
     70 OG          2.4891   29.9790   34.7728 O.2       1 SER1        0.0000 
@<TRIPOS>BOND
@<TRIPOS>SUBSTRUCTURE
     1 SER1       70 GROUP   
     2 ALA2        1 GROUP   
     3 PHE5        2 GROUP   
     4 GLY6        3 GROUP   
     5 CUB7        5 GROUP   
@<TRIPOS>SET

