#    Name: 1nmq_160_2_INTS_M
#    Modification time : Mon Mar 24 18:27:59 2014

@<TRIPOS>MOLECULE
1nmq_160_2_INTS_M
   72     0    12     0     0
SMALL
NO_CHARGES


@<TRIPOS>ATOM
      1 N          12.2895   38.6835   35.5190 N.am      2 SEC2        0.0000 
      2 N          10.8580   39.2360   35.4490 N.am     10 SEL2        0.0000 
      3 N          13.7210   38.1310   35.5890 N.am      6 SEP2        0.0000 
      4 N           7.9535   40.2895   34.4565 N.am      2 SEC2        0.0000 
      5 N           8.4040   39.3080   35.6460 N.am     10 SEL2        0.0000 
      6 N           7.5030   41.2710   33.2670 N.am      6 SEP2        0.0000 
      7 CA         11.6215   36.8110   34.6900 C.3       4 GLC5        0.0000 
      8 CA         10.7230   36.3380   36.5660 C.3      12 GLL5        0.0000 
      9 CA         12.5200   37.2840   32.8140 C.3       8 GLP5        0.0000 
     10 CA         12.7140   37.0830   36.5825 C.3       4 GLC5        0.0000 
     11 CA         14.7050   37.8280   36.5990 C.3       8 GLP5        0.0000 
     12 CA          9.4000   33.0975   34.0830 C.3       4 GLC5        0.0000 
     13 CA          8.9330   31.5030   35.5850 C.3      12 GLL5        0.0000 
     14 CA          9.8670   34.6920   32.5810 C.3       8 GLP5        0.0000 
     15 CA         10.8555   31.3620   34.4710 C.3       4 GLC5        0.0000 
     16 CA         12.7780   31.2210   33.3570 C.3       8 GLP5        0.0000 
     17 CA         10.0200   28.3295   33.7455 C.3       4 GLC5        0.0000 
     18 CA          8.4260   29.0240   34.5070 C.3      12 GLL5        0.0000 
     19 CA         11.6140   27.6350   32.9840 C.3       8 GLP5        0.0000 
     20 CA          6.8840   28.8875   30.4025 C.3       4 GLC5        0.0000 
     21 CA          6.7280   28.5950   32.1300 C.3      12 GLL5        0.0000 
     22 CA          7.0400   29.1800   28.6750 C.3       8 GLP5        0.0000 
     23 CA          8.8200   28.7290   31.5975 C.3       4 GLC5        0.0000 
     24 CA         10.9120   28.8630   31.0650 C.3       8 GLP5        0.0000 
     25 N           2.1240   32.5255   34.3125 N.am      2 SEC2        0.0000 
     26 N           2.8420   31.8830   33.3240 N.am     10 SEL2        0.0000 
     27 N           1.4060   33.1680   35.3010 N.am      6 SEP2        0.0000 
     28 O           3.6245   34.0050   30.3280 O.2       1 ALC1        0.0000 
     29 O           2.8460   32.8330   30.8910 O.2       9 ALL1        0.0000 
     30 O           4.4030   35.1770   29.7650 O.2       5 ALP1        0.0000 
     31 N          -0.8695   30.6780   28.3985 N.am      2 SEC2        0.0000 
     32 N           0.4570   30.9990   29.1780 N.am     10 SEL2        0.0000 
     33 N          -2.1960   30.3570   27.6190 N.am      6 SEP2        0.0000 
     34 N           0.4230   32.0705   27.8635 N.am      2 SEC2        0.0000 
     35 N           0.3890   33.1420   26.5490 N.am      6 SEP2        0.0000 
     36 CA          2.9485   31.3755   28.7290 C.3       4 GLC5        0.0000 
     37 CA          2.7600   30.6500   29.4710 C.3      12 GLL5        0.0000 
     38 CA          3.1370   32.1010   27.9870 C.3       8 GLP5        0.0000 
     39 CA          4.7740   30.5670   28.8885 C.3       4 GLC5        0.0000 
     40 CA          6.7880   30.4840   28.3060 C.3       8 GLP5        0.0000 
     41 CA         -1.0185   32.3185   30.1390 C.3       4 GLC5        0.0000 
     42 CA          0.6820   33.6850   30.3800 C.3      12 GLL5        0.0000 
     43 CA         -2.7190   30.9520   29.8980 C.3       8 GLP5        0.0000 
     44 CA         -0.3535   34.2220   28.6825 C.3       4 GLC5        0.0000 
     45 CA         -1.3890   34.7590   26.9850 C.3       8 GLP5        0.0000 
     46 CA          1.8085   34.8105   28.8065 C.3       4 GLC5        0.0000 
     47 CA          2.9350   35.9360   27.2330 C.3       8 GLP5        0.0000 
     48 NZ         -1.3830   34.9345   32.3945 N.4       3 LYC4        0.0000 
     49 NZ         -0.0450   33.7590   32.6210 N.4      11 LYL4        0.0000 
     50 NZ         -3.0880   35.4250   33.1850 N.4       7 LYP4        0.0000 
     51 NZ          0.3020   34.5260   33.7385 N.4       3 LYC4        0.0000 
     52 NZ          1.0460   34.3780   35.7260 N.4       7 LYP4        0.0000 
     53 N          -1.3455   33.9675   32.8865 N.am      2 SEC2        0.0000 
     54 N          -0.0450   33.7590   32.6210 N.am     10 SEL2        0.0000 
     55 N          -2.6460   34.1760   33.1520 N.am      6 SEP2        0.0000 
     56 N           0.3020   34.5260   33.7385 N.am      2 SEC2        0.0000 
     57 N           0.6490   35.2930   34.8560 N.am      6 SEP2        0.0000 
     58 N           0.6805   33.4635   33.9610 N.am      2 SEC2        0.0000 
     59 NZ         -1.2340   36.0435   32.1575 N.4       3 LYC4        0.0000 
     60 NZ         -0.1200   35.6930   31.6370 N.4      11 LYL4        0.0000 
     61 N          -1.3830   34.9345   32.3945 N.am      2 SEC2        0.0000 
     62 N          -0.1200   35.6930   31.6370 N.am     10 SEL2        0.0000 
     63 N          -1.2340   36.0435   32.1575 N.am      2 SEC2        0.0000 
     64 N          -2.3480   36.3940   32.6780 N.am      6 SEP2        0.0000 
     65 N           0.2450   36.6740   30.6640 N.am      2 SEC2        0.0000 
     66 N           0.6100   37.6550   29.6910 N.am      6 SEP2        0.0000 
     67 N           0.2645   35.4930   33.2465 N.am      2 SEC2        0.0000 
     68 CA         12.2610   34.5030   36.5945 C.3       4 GLC5        0.0000 
     69 CA         10.3370   35.0120   36.5660 C.3      12 GLL5        0.0000 
     70 CA         13.9920   33.3310   36.6230 C.3       8 GLP5        0.0000 
     71 CA          2.1080   32.5823   29.2830 C.3       4 GLC5        0.0000 
     72 CA          1.4760   32.4420   30.7780 C.3      12 GLL5        0.0000 
@<TRIPOS>BOND
@<TRIPOS>SUBSTRUCTURE
     1 ALC1       28 GROUP        1 X    ALC  0     ROOT ALC X 1
     2 SEC2        1 GROUP        1 X    SEC  0     **** SEC X 2
     3 LYC4       48 GROUP        1 X    LYC  0     **** LYC X 4
     4 GLC5        7 GROUP        1 X    GLC  0     **** GLC X 6
     5 ALP1       30 GROUP        1 Y    ALP  0     ROOT ALP Y 8
     6 SEP2        3 GROUP        1 Y    SEP  0     **** SEP Y 9
     7 LYP4       50 GROUP        1 Y    LYP  0     **** LYP Y 11
     8 GLP5        9 GROUP        1 Y    GLP  0     **** GLP Y 13
     9 ALL1       29 GROUP        1 Z    ALL  0     ROOT ALL Z 15
    10 SEL2        2 GROUP        1 Z    SEL  0     **** SEL Z 16
    11 LYL4       49 GROUP        1 Z    LYL  0     **** LYL Z 18
    12 GLL5        8 GROUP        1 Z    GLL  0     **** GLL Z 20
@<TRIPOS>SET

