#    Name: 1nmq_160_2_ligand
#    Modification time : Mon Mar 24 18:27:59 2014

@<TRIPOS>MOLECULE
1nmq_160_2_ligand
   58    59     1     0     0
SMALL
NO_CHARGES


@<TRIPOS>ATOM
      1 O35         6.9560   33.8280   35.7900 O.2       1 1605278     0.0000 
      2 C18         8.0970   33.6900   36.2040 C.2       1 1605278     0.0000 
      3 C19         8.9760   34.8830   36.3130 C.2       1 1605278     0.0000 
      4 S20         8.1390   36.3290   36.0770 S.3       1 1605278     0.0000 
      5 C21         9.6060   37.0940   36.3140 C.2       1 1605278     0.0000 
      6 S24         9.6750   38.8390   36.2410 S.o2      1 1605278     0.0000 
      7 O33        10.8580   39.2360   35.4490 O.2       1 1605278     0.0000 
      8 O34         8.4040   39.3080   35.6460 O.2       1 1605278     0.0000 
      9 C25         9.8500   39.5040   37.8900 C.3       1 1605278     0.0000 
     10 C22        10.7230   36.3380   36.5660 C.2       1 1605278     0.0000 
     11 C23        10.3370   35.0120   36.5660 C.2       1 1605278     0.0000 
     12 N17         8.5920   32.5110   36.5660 N.am      1 1605278     0.0000 
     13 C16         8.9330   31.5030   35.5850 C.3       1 1605278     0.0000 
     14 C15         7.8620   30.4250   35.4960 C.3       1 1605278     0.0000 
     15 S14         8.4260   29.0240   34.5070 S.3       1 1605278     0.0000 
     16 S13         6.6840   28.2040   33.8940 S.3       1 1605278     0.0000 
     17 C12         6.7280   28.5950   32.1300 C.3       1 1605278     0.0000 
     18 C8          6.5650   30.0900   32.0080 C.ar      1 1605278     0.0000 
     19 C9          7.6470   30.8990   31.6920 C.ar      1 1605278     0.0000 
     20 C10         7.4740   32.2830   31.5870 C.ar      1 1605278     0.0000 
     21 C11         6.2330   32.8670   31.8130 C.ar      1 1605278     0.0000 
     22 C7          5.3280   30.6770   32.2330 C.ar      1 1605278     0.0000 
     23 C6          5.1690   32.0500   32.1410 C.ar      1 1605278     0.0000 
     24 S5          3.6240   32.7320   32.3990 S.o2      1 1605278     0.0000 
     25 O27         3.7640   34.1080   32.9310 O.2       1 1605278     0.0000 
     26 O28         2.8420   31.8830   33.3240 O.2       1 1605278     0.0000 
     27 N4          2.8460   32.8330   30.8910 N.pl3     1 1605278     0.0000 
     28 C3          1.4760   32.4420   30.7780 C.3       1 1605278     0.0000 
     29 C2          1.4650   31.3370   29.7580 C.2       1 1605278     0.0000 
     30 O26         0.4570   30.9990   29.1780 O.2       1 1605278     0.0000 
     31 C1          2.7600   30.6500   29.4710 C.3       1 1605278     0.0000 
     32 C29         0.6820   33.6850   30.3800 C.3       1 1605278     0.0000 
     33 C30         0.1540   34.3900   31.6130 C.2       1 1605278     0.0000 
     34 O31        -0.0450   33.7590   32.6210 O.co2     1 1605278     0.0000 
     35 O32        -0.1200   35.6930   31.6370 O.co2     1 1605278     0.0000 
     36 H          11.6030   36.6623   36.7141 H         1 1605278     0.0000 
     37 H          10.9345   34.2635   36.7219 H         1 1605278     0.0000 
     38 H           8.7566   32.2581   37.5615 H         1 1605278     0.0000 
     39 H           9.8881   31.0145   35.8360 H         1 1605278     0.0000 
     40 H           9.0512   31.9493   34.5847 H         1 1605278     0.0000 
     41 H           6.9832   30.7364   34.9758 H         1 1605278     0.0000 
     42 H           7.6344   29.9690   36.4342 H         1 1605278     0.0000 
     43 H           5.9167   28.0402   31.7561 H         1 1605278     0.0000 
     44 H           7.6753   28.2391   31.8440 H         1 1605278     0.0000 
     45 H           8.5741   30.4878   31.5347 H         1 1605278     0.0000 
     46 H           8.2826   32.8765   31.3377 H         1 1605278     0.0000 
     47 H           6.1151   33.8772   31.7372 H         1 1605278     0.0000 
     48 H           4.5161   30.0818   32.4721 H         1 1605278     0.0000 
     49 H           3.4272   33.1675   30.1852 H         1 1605278     0.0000 
     50 H           1.1196   32.0740   31.7143 H         1 1605278     0.0000 
     51 H          -0.1500   33.3880   29.7448 H         1 1605278     0.0000 
     52 H           1.3303   34.3588   29.8236 H         1 1605278     0.0000 
     53 H          10.6832   39.1770   38.3358 H         1 1605278     0.0000 
     54 H           9.8930   40.5031   37.8849 H         1 1605278     0.0000 
     55 H           9.0829   39.2466   38.4776 H         1 1605278     0.0000 
     56 H           3.4502   31.2869   29.1275 H         1 1605278     0.0000 
     57 H           3.1407   30.2184   30.2888 H         1 1605278     0.0000 
     58 H           2.6551   29.9323   28.7826 H         1 1605278     0.0000 
@<TRIPOS>BOND
     1    2    1 2    
     2    3    2 1    
     3   12    2 am   
     4    4    3 1    
     5   11    3 2    
     6    5    4 1    
     7    6    5 1    
     8   10    5 2    
     9    7    6 2    
    10    8    6 2    
    11    9    6 1    
    12   53    9 1    
    13   54    9 1    
    14   55    9 1    
    15   11   10 1    
    16   36   10 1    
    17   37   11 1    
    18   13   12 1    
    19   38   12 1    
    20   14   13 1    
    21   39   13 1    
    22   40   13 1    
    23   15   14 1    
    24   41   14 1    
    25   42   14 1    
    26   16   15 1    
    27   17   16 1    
    28   18   17 1    
    29   43   17 1    
    30   44   17 1    
    31   19   18 ar   
    32   22   18 ar   
    33   20   19 ar   
    34   45   19 1    
    35   21   20 ar   
    36   46   20 1    
    37   23   21 ar   
    38   47   21 1    
    39   23   22 ar   
    40   48   22 1    
    41   24   23 1    
    42   25   24 2    
    43   26   24 2    
    44   27   24 1    
    45   28   27 1    
    46   49   27 1    
    47   29   28 1    
    48   32   28 1    
    49   50   28 1    
    50   30   29 2    
    51   31   29 1    
    52   56   31 1    
    53   57   31 1    
    54   58   31 1    
    55   33   32 1    
    56   51   32 1    
    57   52   32 1    
    58   34   33 ar   
    59   35   33 ar   
@<TRIPOS>SUBSTRUCTURE
     1 1605278     1 GROUP   
@<TRIPOS>SET

