#    Name: 2ivj_BCV_1_INTS_M
#    Modification time : Tue Mar 25 18:44:54 2014

@<TRIPOS>MOLECULE
2ivj_BCV_1_INTS_M
   59     0     9     0     0
SMALL
NO_CHARGES


@<TRIPOS>ATOM
      1 CA         16.2430   34.5670    6.8790 C.3       3 GLC5        0.0000 
      2 CA         15.8030   36.3710    6.2210 C.3       9 GLL5        0.0000 
      3 CA         16.6830   32.7630    7.5370 C.3       6 GLP5        0.0000 
      4 CA         14.3685   34.9000    6.0150 C.3       3 GLC5        0.0000 
      5 CA         12.9340   33.4290    5.8090 C.3       6 GLP5        0.0000 
      6 NZ         19.4750   36.2165    6.0075 N.4       2 LYC4        0.0000 
      7 NZ         18.1680   36.3630    6.4770 N.4       8 LYL4        0.0000 
      8 NZ         20.9900   35.5530    4.3350 N.4       5 LYP4        0.0000 
      9 N          19.4750   36.2165    6.0075 N.am      1 SEC2        0.0000 
     10 N          18.1680   36.3630    6.4770 N.am      7 SEL2        0.0000 
     11 N          20.7820   36.0700    5.5380 N.am      4 SEP2        0.0000 
     12 NZ         18.6610   35.6585    3.9830 N.4       2 LYC4        0.0000 
     13 NZ         17.3610   35.9740    4.4380 N.4       8 LYL4        0.0000 
     14 N          18.6610   35.6585    3.9830 N.am      1 SEC2        0.0000 
     15 N          17.3610   35.9740    4.4380 N.am      7 SEL2        0.0000 
     16 N          19.9610   35.3430    3.5280 N.am      4 SEP2        0.0000 
     17 N          16.9055   34.9200    3.7450 N.am      1 SEC2        0.0000 
     18 N          16.4500   33.8660    3.0520 N.am      4 SEP2        0.0000 
     19 CA         16.2480   39.1515    4.8800 C.3       3 GLC5        0.0000 
     20 CA         15.2260   37.5940    5.5270 C.3       9 GLL5        0.0000 
     21 CA         17.2700   40.7090    4.2330 C.3       6 GLP5        0.0000 
     22 CA         15.3095   39.9720    4.7395 C.3       3 GLC5        0.0000 
     23 CA         13.3490   39.2350    5.2460 C.3       9 GLL5        0.0000 
     24 CA         12.9645   41.1455    4.9215 C.3       3 GLC5        0.0000 
     25 CA         12.5800   43.0560    4.5970 C.3       6 GLP5        0.0000 
     26 CA         10.8360   41.8525    4.2050 C.3       3 GLC5        0.0000 
     27 CA          9.0920   40.6490    3.8130 C.3       9 GLL5        0.0000 
     28 CA         10.5265   38.5020    1.5895 C.3       3 GLC5        0.0000 
     29 CA          9.3710   39.8040    2.2180 C.3       9 GLL5        0.0000 
     30 CA         11.6820   37.2000    0.9610 C.3       6 GLP5        0.0000 
     31 N           4.3675   38.1760    7.4650 N.am      1 SEC2        0.0000 
     32 N           5.0850   38.2090    6.4190 N.am      7 SEL2        0.0000 
     33 N           3.6500   38.1430    8.5110 N.am      4 SEP2        0.0000 
     34 N           4.4160   35.1595    4.6515 N.am      1 SEC2        0.0000 
     35 N           4.3490   36.4150    5.3090 N.am      7 SEL2        0.0000 
     36 N           4.4830   33.9040    3.9940 N.am      4 SEP2        0.0000 
     37 CA          5.0905   34.4455    3.7880 C.3       3 GLC5        0.0000 
     38 CA          6.1830   35.7700    2.5120 C.3       9 GLL5        0.0000 
     39 CA          3.9980   33.1210    5.0640 C.3       6 GLP5        0.0000 
     40 CA          8.2875   35.2995    1.7930 C.3       3 GLC5        0.0000 
     41 CA          7.0650   36.8550    1.8930 C.3       9 GLL5        0.0000 
     42 CA          9.5100   33.7440    1.6930 C.3       6 GLP5        0.0000 
     43 CA          9.2940   36.8130    2.0795 C.3       3 GLC5        0.0000 
     44 CA         11.5230   36.7710    2.2660 C.3       6 GLP5        0.0000 
     45 CA         13.2021   37.2130    4.1630 C.3       3 GLC5        0.0000 
     46 CA         13.8250   37.9960    6.0130 C.3       9 GLL5        0.0000 
     47 CA         12.4670   35.9110    2.8180 C.3       6 GLP5        0.0000 
     48 CA          8.4635   41.6715    5.0945 C.3       3 GLC5        0.0000 
     49 CA          9.5160   39.7830    4.9950 C.3       9 GLL5        0.0000 
     50 CA          7.6230   43.1270    5.7850 C.3       6 GLP5        0.0000 
     51 CA          8.8748   41.9208    2.3603 C.3       3 GLC5        0.0000 
     52 CA          8.5180   43.6150    1.7050 C.3       6 GLP5        0.0000 
     53 CA          7.0500   35.8275    5.4045 C.3       3 GLC5        0.0000 
     54 CA          6.5250   37.0160    3.3240 C.3       9 GLL5        0.0000 
     55 CA          7.5760   34.5200    6.7120 C.3       6 GLP5        0.0000 
     56 CA          7.9130   35.0160    3.0455 C.3       3 GLC5        0.0000 
     57 CA          9.4720   33.6390    3.1730 C.3       6 GLP5        0.0000 
     58 CA          6.2295   34.6908    1.4773 C.3       3 GLC5        0.0000 
     59 CA          5.8350   33.0690    0.7520 C.3       6 GLP5        0.0000 
@<TRIPOS>BOND
@<TRIPOS>SUBSTRUCTURE
     1 SEC2        9 GROUP        1 X    SEC  0     ROOT SEC X 2
     2 LYC4        6 GROUP        1 X    LYC  0     **** LYC X 4
     3 GLC5        1 GROUP        1 X    GLC  0     **** GLC X 6
     4 SEP2       11 GROUP        1 Y    SEP  0     ROOT SEP Y 9
     5 LYP4        8 GROUP        1 Y    LYP  0     **** LYP Y 11
     6 GLP5        3 GROUP        1 Y    GLP  0     **** GLP Y 13
     7 SEL2       10 GROUP        1 Z    SEL  0     ROOT SEL Z 16
     8 LYL4        7 GROUP        1 Z    LYL  0     **** LYL Z 18
     9 GLL5        2 GROUP        1 Z    GLL  0     **** GLL Z 20
@<TRIPOS>SET

