#    Name: 2ivj_BCV_1_ligand
#    Modification time : Tue Mar 25 18:44:54 2014

@<TRIPOS>MOLECULE
2ivj_BCV_1_ligand
   45    45     1     0     0
SMALL
NO_CHARGES


@<TRIPOS>ATOM
      1 N14        15.7150   36.5330    7.6940 N.4       1 BCV1332     0.0000 
      2 C2         15.8030   36.3710    6.2210 C.3       1 BCV1332     0.0000 
      3 C1         17.2380   36.2270    5.6580 C.2       1 BCV1332     0.0000 
      4 O19        18.1680   36.3630    6.4770 O.co2     1 BCV1332     0.0000 
      5 O20        17.3610   35.9740    4.4380 O.co2     1 BCV1332     0.0000 
      6 C3         15.2260   37.5940    5.5270 C.3       1 BCV1332     0.0000 
      7 C4         13.8250   37.9960    6.0130 C.3       1 BCV1332     0.0000 
      8 C7         13.3490   39.2350    5.2460 C.3       1 BCV1332     0.0000 
      9 C10        11.9200   39.5900    5.6840 C.2       1 BCV1332     0.0000 
     10 O15        11.6130   39.8650    6.8530 O.2       1 BCV1332     0.0000 
     11 N11        10.9530   39.5250    4.7790 N.am      1 BCV1332     0.0000 
     12 C12         9.5160   39.7830    4.9950 C.3       1 BCV1332     0.0000 
     13 C16         9.0920   40.6490    3.8130 C.3       1 BCV1332     0.0000 
     14 S17         9.3710   39.8040    2.2180 S.3       1 BCV1332     0.0000 
     15 C13         8.7340   38.4590    4.9990 C.2       1 BCV1332     0.0000 
     16 O18         9.3270   37.3860    4.8580 O.2       1 BCV1332     0.0000 
     17 N29         7.4120   38.4280    5.1000 N.am      1 BCV1332     0.0000 
     18 C30         6.5230   37.2540    4.8700 C.3       1 BCV1332     0.0000 
     19 C31         5.1880   37.2950    5.5840 C.2       1 BCV1332     0.0000 
     20 O42         5.0850   38.2090    6.4190 O.co2     1 BCV1332     0.0000 
     21 O43         4.3490   36.4150    5.3090 O.co2     1 BCV1332     0.0000 
     22 C32         6.5250   37.0160    3.3240 C.3       1 BCV1332     0.0000 
     23 C37         6.1830   35.7700    2.5120 C.3       1 BCV1332     0.0000 
     24 C33         7.0650   36.8550    1.8930 C.3       1 BCV1332     0.0000 
     25 H          15.2320   35.5155    5.8876 H         1 BCV1332     0.0000 
     26 H          15.1802   37.4067    4.4400 H         1 BCV1332     0.0000 
     27 H          15.9076   38.4500    5.6738 H         1 BCV1332     0.0000 
     28 H          13.8654   38.2218    7.0707 H         1 BCV1332     0.0000 
     29 H          13.1380   37.1785    5.8368 H         1 BCV1332     0.0000 
     30 H          13.3554   39.0253    4.1851 H         1 BCV1332     0.0000 
     31 H          14.0058   40.0663    5.4631 H         1 BCV1332     0.0000 
     32 H          11.1835   39.2602    3.7610 H         1 BCV1332     0.0000 
     33 H           9.3571   40.3093    5.8906 H         1 BCV1332     0.0000 
     34 H           9.6734   41.5382    3.6987 H         1 BCV1332     0.0000 
     35 H           8.0429   40.8490    3.7786 H         1 BCV1332     0.0000 
     36 H           6.8660   39.3125    5.3735 H         1 BCV1332     0.0000 
     37 H           7.1053   36.3596    5.2806 H         1 BCV1332     0.0000 
     38 H           5.4270   37.5554    2.8584 H         1 BCV1332     0.0000 
     39 H           5.3091   35.8825    2.1682 H         1 BCV1332     0.0000 
     40 H           6.7514   35.0726    2.8036 H         1 BCV1332     0.0000 
     41 H           7.9607   36.5673    1.9641 H         1 BCV1332     0.0000 
     42 H           6.5184   37.3773    1.3287 H         1 BCV1332     0.0000 
     43 H          16.1127   35.7534    8.1778 H         1 BCV1332     0.0000 
     44 H          16.1987   37.3502    8.0073 H         1 BCV1332     0.0000 
     45 H          14.7675   36.6170    8.0024 H         1 BCV1332     0.0000 
@<TRIPOS>BOND
     1    2    1 1    
     2   43    1 1    
     3   44    1 1    
     4   45    1 1    
     5    3    2 1    
     6    6    2 1    
     7   25    2 1    
     8    4    3 ar   
     9    5    3 ar   
    10    7    6 1    
    11   26    6 1    
    12   27    6 1    
    13    8    7 1    
    14   28    7 1    
    15   29    7 1    
    16    9    8 1    
    17   30    8 1    
    18   31    8 1    
    19   10    9 2    
    20   11    9 am   
    21   12   11 1    
    22   32   11 1    
    23   13   12 1    
    24   15   12 1    
    25   33   12 1    
    26   14   13 1    
    27   34   13 1    
    28   35   13 1    
    29   16   15 2    
    30   17   15 am   
    31   18   17 1    
    32   36   17 1    
    33   19   18 1    
    34   22   18 1    
    35   37   18 1    
    36   20   19 ar   
    37   21   19 ar   
    38   23   22 1    
    39   24   22 1    
    40   38   22 1    
    41   24   23 1    
    42   39   23 1    
    43   40   23 1    
    44   41   24 1    
    45   42   24 1    
@<TRIPOS>SUBSTRUCTURE
     1 BCV1332     1 GROUP   
@<TRIPOS>SET

