#    Name: 2dki_FAD_1_INTS_M
#    Modification time : Tue Mar 25 10:09:31 2014

@<TRIPOS>MOLECULE
2dki_FAD_1_INTS_M
   92     0     9     0     0
SMALL
NO_CHARGES


@<TRIPOS>ATOM
      1 CA          9.2310   43.7240   18.5050 C.3       3 GLC5        0.0000 
      2 CA          8.4240   44.7690   19.8380 C.3       9 GLL5        0.0000 
      3 CA         10.0380   42.6790   17.1720 C.3       6 GLP5        0.0000 
      4 CA          6.3690   47.0175   19.3740 C.3       3 GLC5        0.0000 
      5 CA          7.1550   45.4390   20.3060 C.3       9 GLL5        0.0000 
      6 CA          5.5830   48.5960   18.4420 C.3       6 GLP5        0.0000 
      7 CA          8.3575   46.9545   21.3595 C.3       3 GLC5        0.0000 
      8 CA          9.5600   48.4700   22.4130 C.3       6 GLP5        0.0000 
      9 O           5.1340   46.5360   22.0940 O.2       1 ALC1        0.0000 
     10 O           6.0500   45.7220   22.4940 O.2       7 ALL1        0.0000 
     11 O           4.2180   47.3500   21.6940 O.2       4 ALP1        0.0000 
     12 N           3.2120   42.8690   20.6360 N.am      2 SEC2        0.0000 
     13 N           4.0630   43.8550   21.6300 N.am      8 SEL2        0.0000 
     14 N           2.3610   41.8830   19.6420 N.am      5 SEP2        0.0000 
     15 O           3.4005   44.8755   22.0285 O.2       1 ALC1        0.0000 
     16 O           4.0630   43.8550   21.6300 O.2       7 ALL1        0.0000 
     17 O           2.7380   45.8960   22.4270 O.2       4 ALP1        0.0000 
     18 O           4.1405   45.6025   21.6620 O.2       1 ALC1        0.0000 
     19 CA          5.2620   46.8020   19.0340 C.3       3 GLC5        0.0000 
     20 CA          4.9410   45.0080   19.6260 C.3       9 GLL5        0.0000 
     21 CA          6.1650   45.1030   17.8645 C.3       3 GLC5        0.0000 
     22 CA          7.3890   45.1980   16.1030 C.3       6 GLP5        0.0000 
     23 CA          0.0590   43.1670   16.0780 C.3       3 GLC5        0.0000 
     24 CA          1.8670   44.0620   15.9020 C.3       9 GLL5        0.0000 
     25 CA         -1.7490   42.2720   16.2540 C.3       6 GLP5        0.0000 
     26 CA          0.9935   45.2140   14.2515 C.3       3 GLC5        0.0000 
     27 CA          0.1200   46.3660   12.6010 C.3       6 GLP5        0.0000 
     28 O           0.5550   43.3655   13.6275 O.2       1 ALC1        0.0000 
     29 O           1.6320   43.2670   14.8630 O.2       7 ALL1        0.0000 
     30 O          -0.5220   43.4640   12.3920 O.2       4 ALP1        0.0000 
     31 N          -0.1110   45.2635   15.3095 N.am      2 SEC2        0.0000 
     32 N           1.0200   45.0960   16.1780 N.am      8 SEL2        0.0000 
     33 N          -1.2420   45.4310   14.4410 N.am      5 SEP2        0.0000 
     34 CA          2.3400   46.7290   15.8855 C.3       3 GLC5        0.0000 
     35 CA          1.2930   45.9020   17.2520 C.3       9 GLL5        0.0000 
     36 CA          3.3870   47.5560   14.5190 C.3       6 GLP5        0.0000 
     37 CA          1.3310   47.3185   18.8185 C.3       3 GLC5        0.0000 
     38 CA          1.3690   48.7350   20.3850 C.3       6 GLP5        0.0000 
     39 CA          0.4335   45.0580   18.6740 C.3       3 GLC5        0.0000 
     40 CA         -0.4260   44.2140   20.0960 C.3       6 GLP5        0.0000 
     41 CA         -0.4975   45.3330   16.8865 C.3       3 GLC5        0.0000 
     42 CA         -2.2880   44.7640   16.5210 C.3       6 GLP5        0.0000 
     43 N           1.3620   46.1575   19.3220 N.am      2 SEC2        0.0000 
     44 N           2.3290   45.8170   18.1190 N.am      8 SEL2        0.0000 
     45 N           0.3950   46.4980   20.5250 N.am      5 SEP2        0.0000 
     46 O          19.2475   39.5915   29.1430 O.2       1 ALC1        0.0000 
     47 O          18.4520   39.8340   27.9000 O.2       7 ALL1        0.0000 
     48 O          20.0430   39.3490   30.3860 O.2       4 ALP1        0.0000 
     49 CA         15.6950   36.0620   26.6850 C.3       3 GLC5        0.0000 
     50 CA         14.3670   37.7090   26.5460 C.3       9 GLL5        0.0000 
     51 CA         17.0230   34.4150   26.8240 C.3       6 GLP5        0.0000 
     52 CA         14.6425   35.0985   26.5165 C.3       3 GLC5        0.0000 
     53 CA         13.2950   36.7730   26.7730 C.3       9 GLL5        0.0000 
     54 CA         15.9900   33.4240   26.2600 C.3       6 GLP5        0.0000 
     55 CA         11.3405   35.0330   28.3215 C.3       3 GLC5        0.0000 
     56 CA         11.1550   35.5950   26.2010 C.3       9 GLL5        0.0000 
     57 CA         11.5260   34.4710   30.4420 C.3       6 GLP5        0.0000 
     58 CA         16.4450   38.5380   23.8585 C.3       3 GLC5        0.0000 
     59 CA         15.4810   40.3060   23.8990 C.3       9 GLL5        0.0000 
     60 CA         17.4090   36.7700   23.8180 C.3       6 GLP5        0.0000 
     61 CA         13.5990   41.3565   25.6680 C.3       3 GLC5        0.0000 
     62 CA         14.9800   41.7500   24.0950 C.3       9 GLL5        0.0000 
     63 CA         12.2180   40.9630   27.2410 C.3       6 GLP5        0.0000 
     64 CA         15.6530   43.0235   25.6390 C.3       3 GLC5        0.0000 
     65 CA         16.3260   44.2970   27.1830 C.3       6 GLP5        0.0000 
     66 N          15.4960   41.9995   20.9330 N.am      2 SEC2        0.0000 
     67 N          16.2990   42.4060   22.1950 N.am      8 SEL2        0.0000 
     68 N          14.6930   41.5930   19.6710 N.am      5 SEP2        0.0000 
     69 CA         13.4000   45.8285   22.9910 C.3       3 GLC5        0.0000 
     70 CA         14.4510   43.8620   22.7150 C.3       9 GLL5        0.0000 
     71 CA         12.3490   47.7950   23.2670 C.3       6 GLP5        0.0000 
     72 CA         15.8610   45.2585   23.3820 C.3       3 GLC5        0.0000 
     73 CA         17.2710   46.6550   24.0490 C.3       6 GLP5        0.0000 
     74 N          12.8170   48.7730   20.1380 N.am      2 SEC2        0.0000 
     75 N          12.5320   47.4210   19.9620 N.am      8 SEL2        0.0000 
     76 N          13.1020   50.1250   20.3140 N.am      5 SEP2        0.0000 
     77 N          14.1850   44.8690   17.4915 N.am      2 SEC2        0.0000 
     78 N          13.6430   45.6020   18.6130 N.am      8 SEL2        0.0000 
     79 N          14.7270   44.1360   16.3700 N.am      5 SEP2        0.0000 
     80 N          14.7840   46.5725   18.6995 N.am      2 SEC2        0.0000 
     81 N          15.9250   47.5430   18.7860 N.am      5 SEP2        0.0000 
     82 CA          7.5892   45.1510   18.0875 C.3       3 GLC5        0.0000 
     83 CA          1.9205   43.8595   18.9405 C.3       3 GLC5        0.0000 
     84 CA          3.0100   43.8680   16.7580 C.3       9 GLL5        0.0000 
     85 CA          0.7500   43.4160   20.6040 C.3       6 GLP5        0.0000 
     86 CA          3.0961   45.9537   15.7910 C.3       3 GLC5        0.0000 
     87 CA          4.4536   44.6598   16.1775 C.3       3 GLC5        0.0000 
     88 CA          6.1020   44.9680   15.2920 C.3       6 GLP5        0.0000 
     89 CA         13.4075   38.7800   27.5243 C.3       3 GLC5        0.0000 
     90 CA         12.9840   40.3190   28.3890 C.3       6 GLP5        0.0000 
     91 CA         12.8889   39.5773   26.0927 C.3       3 GLC5        0.0000 
     92 CA         13.2940   38.3420   24.4300 C.3       9 GLL5        0.0000 
@<TRIPOS>BOND
@<TRIPOS>SUBSTRUCTURE
     1 ALC1        9 GROUP        1 X    ALC  0     ROOT ALC X 1
     2 SEC2       12 GROUP        1 X    SEC  0     **** SEC X 2
     3 GLC5        1 GROUP        1 X    GLC  0     **** GLC X 6
     4 ALP1       11 GROUP        1 Y    ALP  0     ROOT ALP Y 8
     5 SEP2       14 GROUP        1 Y    SEP  0     **** SEP Y 9
     6 GLP5        3 GROUP        1 Y    GLP  0     **** GLP Y 13
     7 ALL1       10 GROUP        1 Z    ALL  0     ROOT ALL Z 15
     8 SEL2       13 GROUP        1 Z    SEL  0     **** SEL Z 16
     9 GLL5        2 GROUP        1 Z    GLL  0     **** GLL Z 20
@<TRIPOS>SET

