#    Name: 2dki_FAD_1_ligand
#    Modification time : Tue Mar 25 10:09:31 2014

@<TRIPOS>MOLECULE
2dki_FAD_1_ligand
   84    89     1     0     0
SMALL
NO_CHARGES


@<TRIPOS>ATOM
      1 PA         10.7640   44.3270   21.0690 P.3       1 FAD640      0.0000 
      2 O1A        11.2400   44.7020   22.4160 O.co2     1 FAD640      0.0000 
      3 O2A        10.8330   42.8750   20.7330 O.co2     1 FAD640      0.0000 
      4 O5B         9.2920   44.8840   20.9570 O.3       1 FAD640      0.0000 
      5 C5B         8.4240   44.7690   19.8380 C.3       1 FAD640      0.0000 
      6 C4B         7.1550   45.4390   20.3060 C.3       1 FAD640      0.0000 
      7 O4B         6.2240   45.5080   19.2160 O.3       1 FAD640      0.0000 
      8 C3B         6.4020   44.7790   21.5050 C.3       1 FAD640      0.0000 
      9 O3B         6.0500   45.7220   22.4940 O.3       1 FAD640      0.0000 
     10 C2B         5.1990   44.1040   20.8340 C.3       1 FAD640      0.0000 
     11 O2B         4.0630   43.8550   21.6300 O.3       1 FAD640      0.0000 
     12 C1B         4.9410   45.0080   19.6260 C.3       1 FAD640      0.0000 
     13 N9A         4.3340   44.3610   18.4670 N.pl3     1 FAD640      0.0000 
     14 C8A         4.7890   43.2790   17.7640 C.2       1 FAD640      0.0000 
     15 N7A         4.0360   42.9320   16.7370 N.2       1 FAD640      0.0000 
     16 C5A         3.0100   43.8680   16.7580 C.ar      1 FAD640      0.0000 
     17 C6A         1.8670   44.0620   15.9020 C.ar      1 FAD640      0.0000 
     18 N6A         1.6320   43.2670   14.8630 N.pl3     1 FAD640      0.0000 
     19 N1A         1.0200   45.0960   16.1780 N.ar      1 FAD640      0.0000 
     20 C2A         1.2930   45.9020   17.2520 C.ar      1 FAD640      0.0000 
     21 N3A         2.3290   45.8170   18.1190 N.ar      1 FAD640      0.0000 
     22 C4A         3.1720   44.7380   17.7960 C.ar      1 FAD640      0.0000 
     23 N1         17.4740   40.5010   25.8180 N.2       1 FAD640      0.0000 
     24 C2         18.4760   40.6320   26.7410 C.2       1 FAD640      0.0000 
     25 O2         19.4310   41.4420   26.6030 O.2       1 FAD640      0.0000 
     26 N3         18.4520   39.8340   27.9000 N.am      1 FAD640      0.0000 
     27 C4         17.4600   38.8900   28.2040 C.2       1 FAD640      0.0000 
     28 O4         17.5240   38.2250   29.2640 O.2       1 FAD640      0.0000 
     29 C4X        16.4290   38.7630   27.2510 C.2       1 FAD640      0.0000 
     30 N5         15.3850   37.8270   27.4940 N.2       1 FAD640      0.0000 
     31 C5X        14.3670   37.7090   26.5460 C.ar      1 FAD640      0.0000 
     32 C6         13.2950   36.7730   26.7730 C.ar      1 FAD640      0.0000 
     33 C7         12.2520   36.6170   25.8680 C.ar      1 FAD640      0.0000 
     34 C7M        11.1550   35.5950   26.2010 C.3       1 FAD640      0.0000 
     35 C8         12.2210   37.3940   24.6760 C.ar      1 FAD640      0.0000 
     36 C8M        11.1130   37.2790   23.6430 C.3       1 FAD640      0.0000 
     37 C9         13.2940   38.3420   24.4300 C.ar      1 FAD640      0.0000 
     38 C9A        14.3620   38.5150   25.3360 C.ar      1 FAD640      0.0000 
     39 N10        15.4580   39.4690   25.1180 N.pl3     1 FAD640      0.0000 
     40 C10        16.4690   39.5850   26.0660 C.2       1 FAD640      0.0000 
     41 C1'        15.4810   40.3060   23.8990 C.3       1 FAD640      0.0000 
     42 C2'        14.9800   41.7500   24.0950 C.3       1 FAD640      0.0000 
     43 O2'        13.6820   41.6990   24.7050 O.3       1 FAD640      0.0000 
     44 C3'        14.9710   42.4070   22.7200 C.3       1 FAD640      0.0000 
     45 O3'        16.2990   42.4060   22.1950 O.3       1 FAD640      0.0000 
     46 C4'        14.4510   43.8620   22.7150 C.3       1 FAD640      0.0000 
     47 O4'        13.1450   43.8500   23.2450 O.3       1 FAD640      0.0000 
     48 C5'        14.4460   44.3480   21.2640 C.3       1 FAD640      0.0000 
     49 O5'        13.9070   45.6760   21.1220 O.3       1 FAD640      0.0000 
     50 P          12.9380   46.0120   19.8670 P.3       1 FAD640      0.0000 
     51 O1P        12.5320   47.4210   19.9620 O.co2     1 FAD640      0.0000 
     52 O2P        13.6430   45.6020   18.6130 O.co2     1 FAD640      0.0000 
     53 O3P        11.6370   45.0480   19.9350 O.3       1 FAD640      0.0000 
     54 H           8.2031   43.7456   19.5974 H         1 FAD640      0.0000 
     55 H           8.7944   45.2974   18.9792 H         1 FAD640      0.0000 
     56 H           7.3946   46.4701   20.6181 H         1 FAD640      0.0000 
     57 H           7.0496   43.9919   21.8629 H         1 FAD640      0.0000 
     58 H           5.6111   43.1634   20.3890 H         1 FAD640      0.0000 
     59 H           4.3328   45.8432   19.9578 H         1 FAD640      0.0000 
     60 H           5.6365   42.8007   18.0296 H         1 FAD640      0.0000 
     61 H           0.7950   43.4519   14.3479 H         1 FAD640      0.0000 
     62 H           2.3134   42.5558   14.6902 H         1 FAD640      0.0000 
     63 H           0.5803   46.7148   17.4255 H         1 FAD640      0.0000 
     64 H          19.2426   39.9567   28.5931 H         1 FAD640      0.0000 
     65 H          13.3225   36.2114   27.6407 H         1 FAD640      0.0000 
     66 H          13.2582   38.8962   23.5633 H         1 FAD640      0.0000 
     67 H          14.8633   39.8393   23.1028 H         1 FAD640      0.0000 
     68 H          16.5124   40.3588   23.4907 H         1 FAD640      0.0000 
     69 H          15.6997   42.2515   24.7137 H         1 FAD640      0.0000 
     70 H          14.3187   41.8247   22.0666 H         1 FAD640      0.0000 
     71 H          15.1284   44.4522   23.2787 H         1 FAD640      0.0000 
     72 H          13.8668   43.6160   20.6684 H         1 FAD640      0.0000 
     73 H          15.4873   44.2976   20.8910 H         1 FAD640      0.0000 
     74 H          11.5252   34.6711   26.2977 H         1 FAD640      0.0000 
     75 H          10.6898   35.8156   27.0583 H         1 FAD640      0.0000 
     76 H          10.4543   35.5569   25.4886 H         1 FAD640      0.0000 
     77 H          11.2562   37.9018   22.8739 H         1 FAD640      0.0000 
     78 H          11.0523   36.3553   23.2648 H         1 FAD640      0.0000 
     79 H          10.2179   37.4955   24.0328 H         1 FAD640      0.0000 
     80 H           5.7678   46.5361   21.9865 H         1 FAD640      0.0000 
     81 H           3.4516   44.6272   21.4570 H         1 FAD640      0.0000 
     82 H          13.1959   42.4957   24.3459 H         1 FAD640      0.0000 
     83 H          16.4304   43.3245   21.8221 H         1 FAD640      0.0000 
     84 H          12.5421   43.8572   22.4473 H         1 FAD640      0.0000 
@<TRIPOS>BOND
     1    2    1 ar   
     2    3    1 ar   
     3    4    1 1    
     4   53    1 1    
     5    5    4 1    
     6    6    5 1    
     7   54    5 1    
     8   55    5 1    
     9    7    6 1    
    10    8    6 1    
    11   56    6 1    
    12   12    7 1    
    13    9    8 1    
    14   10    8 1    
    15   57    8 1    
    16   80    9 1    
    17   11   10 1    
    18   12   10 1    
    19   58   10 1    
    20   81   11 1    
    21   13   12 1    
    22   59   12 1    
    23   14   13 1    
    24   22   13 1    
    25   15   14 2    
    26   60   14 1    
    27   16   15 1    
    28   17   16 ar   
    29   22   16 ar   
    30   18   17 1    
    31   19   17 ar   
    32   61   18 1    
    33   62   18 1    
    34   20   19 ar   
    35   21   20 ar   
    36   63   20 1    
    37   22   21 ar   
    38   24   23 1    
    39   40   23 2    
    40   25   24 2    
    41   26   24 am   
    42   27   26 am   
    43   64   26 1    
    44   28   27 2    
    45   29   27 1    
    46   30   29 2    
    47   40   29 1    
    48   31   30 1    
    49   32   31 ar   
    50   38   31 ar   
    51   33   32 ar   
    52   65   32 1    
    53   34   33 1    
    54   35   33 ar   
    55   74   34 1    
    56   75   34 1    
    57   76   34 1    
    58   36   35 1    
    59   37   35 ar   
    60   77   36 1    
    61   78   36 1    
    62   79   36 1    
    63   38   37 ar   
    64   66   37 1    
    65   39   38 1    
    66   40   39 1    
    67   41   39 1    
    68   42   41 1    
    69   67   41 1    
    70   68   41 1    
    71   43   42 1    
    72   44   42 1    
    73   69   42 1    
    74   82   43 1    
    75   45   44 1    
    76   46   44 1    
    77   70   44 1    
    78   83   45 1    
    79   47   46 1    
    80   48   46 1    
    81   71   46 1    
    82   84   47 1    
    83   49   48 1    
    84   72   48 1    
    85   73   48 1    
    86   50   49 1    
    87   51   50 ar   
    88   52   50 ar   
    89   53   50 1    
@<TRIPOS>SUBSTRUCTURE
     1 FAD640      1 GROUP   
@<TRIPOS>SET

