#    Name: 3f3s_NAD_2_INTS_M
#    Modification time : Tue Mar 25 03:05:51 2014

@<TRIPOS>MOLECULE
3f3s_NAD_2_INTS_M
   94     0    12     0     0
SMALL
NO_CHARGES


@<TRIPOS>ATOM
      1 NZ        -69.1605   19.4070    0.9755 N.4       3 LYC4        0.0000 
      2 NZ        -70.7420   19.3850   -0.1860 N.4      11 LYL4        0.0000 
      3 NZ        -67.5790   19.4290    2.1370 N.4       7 LYP4        0.0000 
      4 N         -69.9835   20.6735   -3.8690 N.am      2 SEC2        0.0000 
      5 N         -69.9220   20.2440   -2.4560 N.am     10 SEL2        0.0000 
      6 N         -70.0450   21.1030   -5.2820 N.am      6 SEP2        0.0000 
      7 CA        -75.7940   18.5120   -3.6890 C.3       4 GLC5        0.0000 
      8 CA        -74.4880   19.0090   -2.1710 C.3      12 GLL5        0.0000 
      9 CA        -77.1000   18.0150   -5.2070 C.3       8 GLP5        0.0000 
     10 O         -76.4340   21.2545   -2.8835 O.2       1 ALC1        0.0000 
     11 O         -75.1860   21.3420   -2.3290 O.2       9 ALL1        0.0000 
     12 O         -77.6820   21.1670   -3.4380 O.2       5 ALP1        0.0000 
     13 O         -77.9660   21.2095   -1.0245 O.2       1 ALC1        0.0000 
     14 O         -76.8610   20.9880   -0.2750 O.2       9 ALL1        0.0000 
     15 O         -79.0710   21.4310   -1.7740 O.2       5 ALP1        0.0000 
     16 O         -77.2715   21.0775   -1.8565 O.2       1 ALC1        0.0000 
     17 CA        -76.8740   18.4490   -3.2610 C.3       4 GLC5        0.0000 
     18 CA        -76.6480   18.8830   -1.3150 C.3      12 GLL5        0.0000 
     19 CA        -75.5740   17.2695   -0.4935 C.3       4 GLC5        0.0000 
     20 CA        -74.5000   15.6560    0.3280 C.3       8 GLP5        0.0000 
     21 CA        -78.1485   15.0660    1.2065 C.3       4 GLC5        0.0000 
     22 CA        -79.1440   16.7760    0.1660 C.3      12 GLL5        0.0000 
     23 CA        -77.1530   13.3560    2.2470 C.3       8 GLP5        0.0000 
     24 CA        -81.2405   17.6720    0.1815 C.3       4 GLC5        0.0000 
     25 CA        -80.3220   16.0970   -0.0510 C.3      12 GLL5        0.0000 
     26 CA        -82.1590   19.2470    0.4140 C.3       8 GLP5        0.0000 
     27 CA        -80.1885   14.2995   -0.7025 C.3       4 GLC5        0.0000 
     28 CA        -80.0550   12.5020   -1.3540 C.3       8 GLP5        0.0000 
     29 CA        -80.3860   15.6830   -4.0145 C.3       4 GLC5        0.0000 
     30 CA        -80.3300   16.8200   -2.2850 C.3      12 GLL5        0.0000 
     31 CA        -80.4420   14.5460   -5.7440 C.3       8 GLP5        0.0000 
     32 CA        -80.6210   18.6950   -3.2100 C.3       4 GLC5        0.0000 
     33 CA        -80.9120   20.5700   -4.1350 C.3       8 GLP5        0.0000 
     34 CA        -81.2445   18.0335   -0.9355 C.3       4 GLC5        0.0000 
     35 CA        -78.9455   15.7610   -2.5335 C.3       4 GLC5        0.0000 
     36 CA        -77.5610   14.7020   -2.7820 C.3       8 GLP5        0.0000 
     37 CA        -80.1925   14.6610   -1.8195 C.3       4 GLC5        0.0000 
     38 N         -69.5645   18.4490   -5.8055 N.am      2 SEC2        0.0000 
     39 N         -69.8670   17.8710   -4.5070 N.am     10 SEL2        0.0000 
     40 N         -69.2620   19.0270   -7.1040 N.am      6 SEP2        0.0000 
     41 CA        -69.9235   15.8955   -5.5775 C.3       4 GLC5        0.0000 
     42 CA        -70.5440   15.1960   -3.5890 C.3      12 GLL5        0.0000 
     43 CA        -69.3030   16.5950   -7.5660 C.3       8 GLP5        0.0000 
     44 CA        -71.2540   13.4875   -1.2210 C.3       4 GLC5        0.0000 
     45 CA        -69.9540   12.8160   -2.8360 C.3      12 GLL5        0.0000 
     46 CA        -72.5540   14.1590    0.3940 C.3       8 GLP5        0.0000 
     47 N         -71.8420   11.1520   -2.7430 N.am      2 SEC2        0.0000 
     48 N         -70.5290   11.4840   -2.9800 N.am     10 SEL2        0.0000 
     49 N         -73.1550   10.8200   -2.5060 N.am      6 SEP2        0.0000 
     50 O         -70.0430   10.3055   -2.3910 O.2       1 ALC1        0.0000 
     51 O         -70.5290   11.4840   -2.9800 O.2       9 ALL1        0.0000 
     52 O         -69.5570    9.1270   -1.8020 O.2       5 ALP1        0.0000 
     53 CA        -67.1595   12.7715   -1.4760 C.3       4 GLC5        0.0000 
     54 CA        -68.4620   12.7530   -3.0940 C.3      12 GLL5        0.0000 
     55 CA        -65.8570   12.7900    0.1420 C.3       8 GLP5        0.0000 
     56 N         -67.0225   10.3625   -2.3680 N.am      2 SEC2        0.0000 
     57 N         -67.9420   11.5600   -2.5070 N.am     10 SEL2        0.0000 
     58 N         -66.1030    9.1650   -2.2290 N.am      6 SEP2        0.0000 
     59 CA        -68.1750   14.4970   -5.8250 C.3       4 GLC5        0.0000 
     60 CA        -68.4480   12.6530   -4.6120 C.3      12 GLL5        0.0000 
     61 CA        -67.9020   16.3410   -7.0380 C.3       8 GLP5        0.0000 
     62 CA        -69.2090   10.5545   -4.8860 C.3       4 GLC5        0.0000 
     63 CA        -69.9700    8.4560   -5.1600 C.3       8 GLP5        0.0000 
     64 CA        -66.4530   12.8900   -8.8680 C.3       4 GLC5        0.0000 
     65 CA        -65.5230   12.9180   -6.9790 C.3      12 GLL5        0.0000 
     66 CA        -67.3830   12.8620  -10.7570 C.3       8 GLP5        0.0000 
     67 CA        -67.3125   14.4300   -6.7260 C.3       4 GLC5        0.0000 
     68 CA        -66.7230   12.5190   -6.4140 C.3      12 GLL5        0.0000 
     69 CA        -67.2185   11.9750   -8.4050 C.3       4 GLC5        0.0000 
     70 CA        -67.7140   11.4310  -10.3960 C.3       8 GLP5        0.0000 
     71 CA        -74.4285   16.7385   -2.1800 C.3       4 GLC5        0.0000 
     72 CA        -75.0240   14.7410   -2.4640 C.3       8 GLP5        0.0000 
     73 CA        -74.1665   17.1960   -0.7840 C.3       4 GLC5        0.0000 
     74 CA        -73.1780   18.4630   -1.6210 C.3      12 GLL5        0.0000 
     75 CA        -73.3665   20.4765   -3.2058 C.3       4 GLC5        0.0000 
     76 CA        -72.4180   21.4280   -4.7660 C.3       8 GLP5        0.0000 
     77 CA        -79.8485   18.4112    0.3425 C.3       4 GLC5        0.0000 
     78 CA        -78.6100   17.4870   -0.8880 C.3      12 GLL5        0.0000 
     79 CA        -80.8200   19.6910    1.0460 C.3       8 GLP5        0.0000 
     80 CA        -78.3663   15.8319   -1.5986 C.3       4 GLC5        0.0000 
     81 CA        -72.2215   14.4868   -4.9570 C.3       4 GLC5        0.0000 
     82 CA        -73.9550   14.5130   -6.1280 C.3       8 GLP5        0.0000 
     83 CA        -69.1830   11.7812   -1.2345 C.3       4 GLC5        0.0000 
     84 CA        -69.1580   10.7780    0.4960 C.3       8 GLP5        0.0000 
     85 CA        -66.8590   15.3375   -5.9585 C.3       4 GLC5        0.0000 
     86 CA        -66.4110   14.1310   -4.5890 C.3      12 GLL5        0.0000 
     87 CA        -63.7543   15.5350   -6.7475 C.3       4 GLC5        0.0000 
     88 CA        -65.2210   14.5370   -5.1690 C.3      12 GLL5        0.0000 
     89 CA        -62.5080   16.8400   -7.7370 C.3       8 GLP5        0.0000 
     90 CA        -65.9507   14.9292   -7.3875 C.3       4 GLC5        0.0000 
     91 CA        -64.7800   13.9230   -6.3470 C.3      12 GLL5        0.0000 
     92 CA        -66.7500   16.4380   -8.1120 C.3       8 GLP5        0.0000 
     93 CA        -65.9620   11.0338   -7.2642 C.3       4 GLC5        0.0000 
     94 CA        -65.8010    9.3490   -7.8320 C.3       8 GLP5        0.0000 
@<TRIPOS>BOND
@<TRIPOS>SUBSTRUCTURE
     1 ALC1       10 GROUP        1 X    ALC  0     ROOT ALC X 1
     2 SEC2        4 GROUP        1 X    SEC  0     **** SEC X 2
     3 LYC4        1 GROUP        1 X    LYC  0     **** LYC X 4
     4 GLC5        7 GROUP        1 X    GLC  0     **** GLC X 6
     5 ALP1       12 GROUP        1 Y    ALP  0     ROOT ALP Y 8
     6 SEP2        6 GROUP        1 Y    SEP  0     **** SEP Y 9
     7 LYP4        3 GROUP        1 Y    LYP  0     **** LYP Y 11
     8 GLP5        9 GROUP        1 Y    GLP  0     **** GLP Y 13
     9 ALL1       11 GROUP        1 Z    ALL  0     ROOT ALL Z 15
    10 SEL2        5 GROUP        1 Z    SEL  0     **** SEL Z 16
    11 LYL4        2 GROUP        1 Z    LYL  0     **** LYL Z 18
    12 GLL5        8 GROUP        1 Z    GLL  0     **** GLL Z 20
@<TRIPOS>SET

