#    Name: 3f3s_NAD_2_ligand
#    Modification time : Tue Mar 25 03:05:51 2014

@<TRIPOS>MOLECULE
3f3s_NAD_2_ligand
   70    74     1     0     0
SMALL
NO_CHARGES


@<TRIPOS>ATOM
      1 PA        -70.6700   19.2610   -1.6470 P.3       1 NAD601      0.0000 
      2 O1A       -70.7420   19.3850   -0.1860 O.co2     1 NAD601      0.0000 
      3 O2A       -69.9220   20.2440   -2.4560 O.co2     1 NAD601      0.0000 
      4 O5B       -72.0900   19.1350   -2.2940 O.3       1 NAD601      0.0000 
      5 C5B       -73.1780   18.4630   -1.6210 C.3       1 NAD601      0.0000 
      6 C4B       -74.4880   19.0090   -2.1710 C.3       1 NAD601      0.0000 
      7 O4B       -75.6020   18.1080   -1.9460 O.3       1 NAD601      0.0000 
      8 C3B       -74.7970   20.3140   -1.3950 C.3       1 NAD601      0.0000 
      9 O3B       -75.1860   21.3420   -2.3290 O.3       1 NAD601      0.0000 
     10 C2B       -75.9440   19.9070   -0.4770 C.3       1 NAD601      0.0000 
     11 O2B       -76.8610   20.9880   -0.2750 O.3       1 NAD601      0.0000 
     12 C1B       -76.6480   18.8830   -1.3150 C.3       1 NAD601      0.0000 
     13 N9A       -77.5160   18.0440   -0.4330 N.pl3     1 NAD601      0.0000 
     14 C8A       -77.3650   17.7280    0.8610 C.2       1 NAD601      0.0000 
     15 N7A       -78.3770   16.9400    1.2360 N.2       1 NAD601      0.0000 
     16 C5A       -79.1440   16.7760    0.1660 C.ar      1 NAD601      0.0000 
     17 C6A       -80.3220   16.0970   -0.0510 C.ar      1 NAD601      0.0000 
     18 N6A       -80.8540   15.4220    0.9680 N.pl3     1 NAD601      0.0000 
     19 N1A       -80.8800   16.1340   -1.2790 N.ar      1 NAD601      0.0000 
     20 C2A       -80.3300   16.8200   -2.2850 C.ar      1 NAD601      0.0000 
     21 N3A       -79.2000   17.4980   -2.0990 N.ar      1 NAD601      0.0000 
     22 C4A       -78.6100   17.4870   -0.8880 C.ar      1 NAD601      0.0000 
     23 O3        -70.0020   17.8030   -1.9330 O.3       1 NAD601      0.0000 
     24 PN        -69.1780   17.3920   -3.2640 P.3       1 NAD601      0.0000 
     25 O1N       -67.7390   17.6840   -3.0510 O.co2     1 NAD601      0.0000 
     26 O2N       -69.8670   17.8710   -4.5070 O.co2     1 NAD601      0.0000 
     27 O5D       -69.3710   15.7810   -3.1830 O.3       1 NAD601      0.0000 
     28 C5D       -70.5440   15.1960   -3.5890 C.3       1 NAD601      0.0000 
     29 C4D       -70.4320   13.7250   -3.9830 C.3       1 NAD601      0.0000 
     30 O4D       -69.4830   13.5950   -5.0460 O.3       1 NAD601      0.0000 
     31 C3D       -69.9540   12.8160   -2.8360 C.3       1 NAD601      0.0000 
     32 O3D       -70.5290   11.4840   -2.9800 O.3       1 NAD601      0.0000 
     33 C2D       -68.4620   12.7530   -3.0940 C.3       1 NAD601      0.0000 
     34 O2D       -67.9420   11.5600   -2.5070 O.3       1 NAD601      0.0000 
     35 C1D       -68.4480   12.6530   -4.6120 C.3       1 NAD601      0.0000 
     36 N1N       -67.1780   13.1080   -5.2180 N.pl3     1 NAD601      0.0000 
     37 C2N       -66.4110   14.1310   -4.5890 C.ar      1 NAD601      0.0000 
     38 C3N       -65.2210   14.5370   -5.1690 C.ar      1 NAD601      0.0000 
     39 C7N       -64.4990   15.7080   -4.5030 C.2       1 NAD601      0.0000 
     40 O7N       -65.1440   16.5160   -3.8450 O.2       1 NAD601      0.0000 
     41 N7N       -63.2790   15.9720   -4.8580 N.am      1 NAD601      0.0000 
     42 C4N       -64.7800   13.9230   -6.3470 C.ar      1 NAD601      0.0000 
     43 C5N       -65.5230   12.9180   -6.9790 C.ar      1 NAD601      0.0000 
     44 C6N       -66.7230   12.5190   -6.4140 C.ar      1 NAD601      0.0000 
     45 H         -73.1552   18.6450   -0.5482 H         1 NAD601      0.0000 
     46 H         -73.1533   17.3896   -1.7988 H         1 NAD601      0.0000 
     47 H         -74.3735   19.2630   -3.1932 H         1 NAD601      0.0000 
     48 H         -73.9541   20.5529   -0.8169 H         1 NAD601      0.0000 
     49 H         -75.5782   19.4699    0.3801 H         1 NAD601      0.0000 
     50 H         -77.2404   19.3911   -2.0435 H         1 NAD601      0.0000 
     51 H         -76.6356   18.0255    1.4326 H         1 NAD601      0.0000 
     52 H         -81.7368   14.9858    0.7938 H         1 NAD601      0.0000 
     53 H         -80.3224   15.4126    1.8149 H         1 NAD601      0.0000 
     54 H         -80.7938   16.8227   -3.2269 H         1 NAD601      0.0000 
     55 H         -71.0026   15.7243   -4.4718 H         1 NAD601      0.0000 
     56 H         -71.3451   15.2502   -2.7991 H         1 NAD601      0.0000 
     57 H         -71.4020   13.3738   -4.3045 H         1 NAD601      0.0000 
     58 H         -70.1403   13.2741   -1.9315 H         1 NAD601      0.0000 
     59 H         -68.0209   13.6334   -2.7956 H         1 NAD601      0.0000 
     60 H         -68.7022   11.6774   -4.9099 H         1 NAD601      0.0000 
     61 H         -66.7496   14.5471   -3.7236 H         1 NAD601      0.0000 
     62 H         -62.8985   15.3997   -5.5844 H         1 NAD601      0.0000 
     63 H         -62.8322   16.7234   -4.3724 H         1 NAD601      0.0000 
     64 H         -63.8772   14.2205   -6.7641 H         1 NAD601      0.0000 
     65 H         -65.1806   12.4920   -7.8395 H         1 NAD601      0.0000 
     66 H         -67.2929   11.7891   -6.8624 H         1 NAD601      0.0000 
     67 H         -76.1576   21.1805   -2.5016 H         1 NAD601      0.0000 
     68 H         -77.5369   20.8939   -1.0059 H         1 NAD601      0.0000 
     69 H         -69.9134   10.8803   -2.4735 H         1 NAD601      0.0000 
     70 H         -68.0156   11.7039   -1.5201 H         1 NAD601      0.0000 
@<TRIPOS>BOND
     1    2    1 ar   
     2    3    1 ar   
     3    4    1 1    
     4   23    1 1    
     5    5    4 1    
     6    6    5 1    
     7   45    5 1    
     8   46    5 1    
     9    7    6 1    
    10    8    6 1    
    11   47    6 1    
    12   12    7 1    
    13    9    8 1    
    14   10    8 1    
    15   48    8 1    
    16   67    9 1    
    17   11   10 1    
    18   12   10 1    
    19   49   10 1    
    20   68   11 1    
    21   13   12 1    
    22   50   12 1    
    23   14   13 1    
    24   22   13 1    
    25   15   14 2    
    26   51   14 1    
    27   16   15 1    
    28   17   16 ar   
    29   22   16 ar   
    30   18   17 1    
    31   19   17 ar   
    32   52   18 1    
    33   53   18 1    
    34   20   19 ar   
    35   21   20 ar   
    36   54   20 1    
    37   22   21 ar   
    38   24   23 1    
    39   25   24 ar   
    40   26   24 ar   
    41   27   24 1    
    42   28   27 1    
    43   29   28 1    
    44   55   28 1    
    45   56   28 1    
    46   30   29 1    
    47   31   29 1    
    48   57   29 1    
    49   35   30 1    
    50   32   31 1    
    51   33   31 1    
    52   58   31 1    
    53   69   32 1    
    54   34   33 1    
    55   35   33 1    
    56   59   33 1    
    57   70   34 1    
    58   36   35 1    
    59   60   35 1    
    60   37   36 ar   
    61   44   36 ar   
    62   38   37 ar   
    63   61   37 1    
    64   39   38 1    
    65   42   38 ar   
    66   40   39 2    
    67   41   39 am   
    68   62   41 1    
    69   63   41 1    
    70   43   42 ar   
    71   64   42 1    
    72   44   43 ar   
    73   65   43 1    
    74   66   44 1    
@<TRIPOS>SUBSTRUCTURE
     1 NAD601      1 GROUP   
@<TRIPOS>SET

