#    Name: 2c0c_NAP_2_INTS_M
#    Modification time : Mon Mar 24 22:04:16 2014

@<TRIPOS>MOLECULE
2c0c_NAP_2_INTS_M
  103     0    12     0     0
SMALL
NO_CHARGES


@<TRIPOS>ATOM
      1 N          35.6415   39.0225  -36.0010 N.am      2 SEC2        0.0000 
      2 N          34.9740   38.0030  -36.7510 N.am     10 SEL2        0.0000 
      3 N          36.3090   40.0420  -35.2510 N.am      6 SEP2        0.0000 
      4 N          35.2635   38.3070  -38.1230 N.am      2 SEC2        0.0000 
      5 N          35.5530   38.6110  -39.4950 N.am      6 SEP2        0.0000 
      6 CA         33.8240   34.4510  -38.1715 C.3       4 GLC5        0.0000 
      7 CA         35.3150   34.3090  -37.1360 C.3      12 GLL5        0.0000 
      8 CA         32.3330   34.5930  -39.2070 C.3       8 GLP5        0.0000 
      9 CA         38.0800   34.0810  -35.8460 C.3       4 GLC5        0.0000 
     10 CA         36.7740   33.9640  -37.4090 C.3      12 GLL5        0.0000 
     11 CA         39.3860   34.1980  -34.2830 C.3       8 GLP5        0.0000 
     12 N          38.8565   35.5480  -40.3195 N.am      2 SEC2        0.0000 
     13 N          37.3770   35.2260  -39.4860 N.am     10 SEL2        0.0000 
     14 N          40.3360   35.8700  -41.1530 N.am      6 SEP2        0.0000 
     15 O          36.5750   35.9895  -40.1535 O.2       1 ALC1        0.0000 
     16 O          37.3770   35.2260  -39.4860 O.2       9 ALL1        0.0000 
     17 O          35.7730   36.7530  -40.8210 O.2       5 ALP1        0.0000 
     18 CA         38.6280   33.0845  -36.0390 C.3       4 GLC5        0.0000 
     19 CA         37.8700   31.9710  -37.7950 C.3      12 GLL5        0.0000 
     20 CA         36.6895   30.8450  -36.3045 C.3       4 GLC5        0.0000 
     21 CA         35.5090   29.7190  -34.8140 C.3       8 GLP5        0.0000 
     22 CA         35.8085   26.3345  -36.9065 C.3       4 GLC5        0.0000 
     23 CA         36.4390   27.3020  -38.5420 C.3      12 GLL5        0.0000 
     24 CA         35.1780   25.3670  -35.2710 C.3       8 GLP5        0.0000 
     25 O          34.7440   26.6625  -40.2175 O.2       1 ALC1        0.0000 
     26 O          35.5740   26.4580  -39.1000 O.2       9 ALL1        0.0000 
     27 O          33.9140   26.8670  -41.3350 O.2       5 ALP1        0.0000 
     28 CA         38.9260   27.5895  -35.5155 C.3       4 GLC5        0.0000 
     29 CA         38.3510   27.5840  -37.1590 C.3      12 GLL5        0.0000 
     30 CA         39.5010   27.5950  -33.8720 C.3       8 GLP5        0.0000 
     31 CA         36.9300   28.6515  -35.9865 C.3       4 GLC5        0.0000 
     32 CA         37.4530   26.2125  -36.0615 C.3       4 GLC5        0.0000 
     33 CA         36.5550   24.8410  -34.9640 C.3       8 GLP5        0.0000 
     34 N          30.4645   36.0445  -34.6375 N.am      2 SEC2        0.0000 
     35 N          31.5490   36.8840  -34.1900 N.am     10 SEL2        0.0000 
     36 N          29.3800   35.2050  -35.0850 N.am      6 SEP2        0.0000 
     37 N          34.8660   39.0425  -32.9180 N.am      2 SEC2        0.0000 
     38 N          33.9220   37.8380  -33.4870 N.am     10 SEL2        0.0000 
     39 N          35.8100   40.2470  -32.3490 N.am      6 SEP2        0.0000 
     40 CA         32.5645   34.1510  -33.6960 C.3       4 GLC5        0.0000 
     41 CA         34.3970   35.0120  -32.7710 C.3      12 GLL5        0.0000 
     42 CA         30.7320   33.2900  -34.6210 C.3       8 GLP5        0.0000 
     43 CA         33.6725   31.3765  -33.0675 C.3       4 GLC5        0.0000 
     44 CA         33.2710   32.9670  -31.7090 C.3      12 GLL5        0.0000 
     45 CA         34.0740   29.7860  -34.4260 C.3       8 GLP5        0.0000 
     46 O          34.9635   31.0415  -31.1570 O.2       1 ALC1        0.0000 
     47 O          33.7090   31.7740  -31.1110 O.2       9 ALL1        0.0000 
     48 O          36.2180   30.3090  -31.2030 O.2       5 ALP1        0.0000 
     49 N          31.2255   31.3620  -30.2740 N.am      2 SEC2        0.0000 
     50 N          31.1070   32.6550  -30.4150 N.am     10 SEL2        0.0000 
     51 N          31.3440   30.0690  -30.1330 N.am      6 SEP2        0.0000 
     52 CA         34.1485   34.4950  -28.3525 C.3       4 GLC5        0.0000 
     53 CA         32.8690   34.2210  -29.7630 C.3      12 GLL5        0.0000 
     54 CA         35.4280   34.7690  -26.9420 C.3       8 GLP5        0.0000 
     55 CA         33.3500   32.2995  -28.8890 C.3       4 GLC5        0.0000 
     56 CA         33.8310   30.3780  -28.0150 C.3       8 GLP5        0.0000 
     57 N          29.4420   36.2965  -23.4470 N.am      2 SEC2        0.0000 
     58 N          29.9110   36.0570  -24.7840 N.am     10 SEL2        0.0000 
     59 N          28.9730   36.5360  -22.1100 N.am      6 SEP2        0.0000 
     60 O          32.2420   33.4130  -25.7105 O.2       1 ALC1        0.0000 
     61 O          31.3480   34.3290  -24.9770 O.2       9 ALL1        0.0000 
     62 O          33.1360   32.4970  -26.4440 O.2       5 ALP1        0.0000 
     63 O          31.6030   33.8245  -23.6725 O.2       1 ALC1        0.0000 
     64 O          31.8580   33.3200  -22.3680 O.2       5 ALP1        0.0000 
     65 CA         33.7645   37.1785  -29.9400 C.3       4 GLC5        0.0000 
     66 CA         31.7320   36.3920  -29.5570 C.3      12 GLL5        0.0000 
     67 CA         35.7970   37.9650  -30.3230 C.3       8 GLP5        0.0000 
     68 N          41.4695   30.4390  -39.2855 N.am      2 SEC2        0.0000 
     69 N          40.8610   31.4630  -38.8850 N.am     10 SEL2        0.0000 
     70 N          42.0780   29.4150  -39.6860 N.am      6 SEP2        0.0000 
     71 NZ         40.9350   34.7835  -40.5540 N.4       3 LYC4        0.0000 
     72 NZ         41.5340   33.6970  -39.9550 N.4      11 LYL4        0.0000 
     73 NZ         40.3360   35.8700  -41.1530 N.4       7 LYP4        0.0000 
     74 N          42.9775   33.5410  -40.1875 N.am      2 SEC2        0.0000 
     75 N          41.5340   33.6970  -39.9550 N.am     10 SEL2        0.0000 
     76 N          44.4210   33.3850  -40.4200 N.am      6 SEP2        0.0000 
     77 N          41.9220   33.2325  -41.1470 N.am      2 SEC2        0.0000 
     78 N          42.3100   32.7680  -42.3390 N.am      6 SEP2        0.0000 
     79 N          40.9350   34.7835  -40.5540 N.am      2 SEC2        0.0000 
     80 CA         34.7163   32.7933  -36.7312 C.3       4 GLC5        0.0000 
     81 CA         33.3880   31.4500  -36.1900 C.3       8 GLP5        0.0000 
     82 CA         37.5693   33.1640  -40.7170 C.3       4 GLC5        0.0000 
     83 CA         37.1030   33.9510  -38.9120 C.3      12 GLL5        0.0000 
     84 CA         37.4590   32.8680  -42.5320 C.3       8 GLP5        0.0000 
     85 CA         36.1980   29.4055  -36.5890 C.3       4 GLC5        0.0000 
     86 CA         37.3660   29.4900  -38.0360 C.3      12 GLL5        0.0000 
     87 CA         35.0747   36.2520  -31.2455 C.3       4 GLC5        0.0000 
     88 CA         35.4892   33.1593  -30.7525 C.3       4 GLC5        0.0000 
     89 CA         34.3080   34.0660  -31.5650 C.3      12 GLL5        0.0000 
     90 CA         37.1890   32.8020  -29.8680 C.3       8 GLP5        0.0000 
     91 CA         31.7115   33.2743  -32.9672 C.3       4 GLC5        0.0000 
     92 CA         31.5985   31.6268  -31.8312 C.3       4 GLC5        0.0000 
     93 CA         30.5060   29.9950  -32.3490 C.3       8 GLP5        0.0000 
     94 CA         32.4022   36.8418  -26.4635 C.3       4 GLC5        0.0000 
     95 CA         31.8130   34.8780  -27.7430 C.3      12 GLL5        0.0000 
     96 CA         33.3670   38.3790  -25.5790 C.3       8 GLP5        0.0000 
     97 CA         33.4327   35.0367  -27.1450 C.3       4 GLC5        0.0000 
     98 CA         31.0620   35.7310  -26.9530 C.3      12 GLL5        0.0000 
     99 CA         29.7718   38.6850  -28.7525 C.3       4 GLC5        0.0000 
    100 CA         30.6330   36.9360  -27.5060 C.3      12 GLL5        0.0000 
    101 CA         28.7340   40.2660  -29.3520 C.3       8 GLP5        0.0000 
    102 CA         32.0883   37.7415  -26.8660 C.3       4 GLC5        0.0000 
    103 CA         30.9860   37.2720  -28.8000 C.3      12 GLL5        0.0000 
@<TRIPOS>BOND
@<TRIPOS>SUBSTRUCTURE
     1 ALC1       15 GROUP        1 X    ALC  0     ROOT ALC X 1
     2 SEC2        1 GROUP        1 X    SEC  0     **** SEC X 2
     3 LYC4       71 GROUP        1 X    LYC  0     **** LYC X 4
     4 GLC5        6 GROUP        1 X    GLC  0     **** GLC X 6
     5 ALP1       17 GROUP        1 Y    ALP  0     ROOT ALP Y 8
     6 SEP2        3 GROUP        1 Y    SEP  0     **** SEP Y 9
     7 LYP4       73 GROUP        1 Y    LYP  0     **** LYP Y 11
     8 GLP5        8 GROUP        1 Y    GLP  0     **** GLP Y 13
     9 ALL1       16 GROUP        1 Z    ALL  0     ROOT ALL Z 15
    10 SEL2        2 GROUP        1 Z    SEL  0     **** SEL Z 16
    11 LYL4       72 GROUP        1 Z    LYL  0     **** LYL Z 18
    12 GLL5        7 GROUP        1 Z    GLL  0     **** GLL Z 20
@<TRIPOS>SET

