#    Name: 2c0c_NAP_2_ligand
#    Modification time : Mon Mar 24 22:04:16 2014

@<TRIPOS>MOLECULE
2c0c_NAP_2_ligand
   73    77     1     0     0
SMALL
NO_CHARGES


@<TRIPOS>ATOM
      1 PA         34.9960   36.7050  -36.1240 P.3       1 NAP1363     0.0000 
      2 O1A        34.9740   38.0030  -36.7510 O.co2     1 NAP1363     0.0000 
      3 O2A        36.1940   36.3810  -35.3010 O.co2     1 NAP1363     0.0000 
      4 O5B        35.0340   35.6730  -37.3210 O.3       1 NAP1363     0.0000 
      5 C5B        35.3150   34.3090  -37.1360 C.3       1 NAP1363     0.0000 
      6 C4B        36.7740   33.9640  -37.4090 C.3       1 NAP1363     0.0000 
      7 O4B        36.9710   32.6370  -36.9300 O.3       1 NAP1363     0.0000 
      8 C3B        37.1030   33.9510  -38.9120 C.3       1 NAP1363     0.0000 
      9 O3B        37.3770   35.2260  -39.4860 O.3       1 NAP1363     0.0000 
     10 C2B        38.2560   32.9690  -38.8920 C.3       1 NAP1363     0.0000 
     11 O2B        39.5240   33.5120  -38.5560 O.3       1 NAP1363     0.0000 
     12 C1B        37.8700   31.9710  -37.7950 C.3       1 NAP1363     0.0000 
     13 N9A        37.1260   30.7970  -38.3310 N.pl3     1 NAP1363     0.0000 
     14 C8A        36.0020   30.8060  -39.1210 C.2       1 NAP1363     0.0000 
     15 N7A        35.5720   29.5440  -39.3420 N.2       1 NAP1363     0.0000 
     16 C5A        36.4080   28.6940  -38.6920 C.ar      1 NAP1363     0.0000 
     17 C6A        36.4390   27.3020  -38.5420 C.ar      1 NAP1363     0.0000 
     18 N6A        35.5740   26.4580  -39.1000 N.pl3     1 NAP1363     0.0000 
     19 N1A        37.4040   26.7680  -37.7620 N.ar      1 NAP1363     0.0000 
     20 C2A        38.3510   27.5840  -37.1590 C.ar      1 NAP1363     0.0000 
     21 N3A        38.3240   28.9360  -37.2710 N.ar      1 NAP1363     0.0000 
     22 C4A        37.3660   29.4900  -38.0360 C.ar      1 NAP1363     0.0000 
     23 O3         33.5650   36.2620  -35.4690 O.3       1 NAP1363     0.0000 
     24 PN         33.0130   36.8210  -34.0590 P.3       1 NAP1363     0.0000 
     25 O1N        31.5490   36.8840  -34.1900 O.co2     1 NAP1363     0.0000 
     26 O2N        33.9220   37.8380  -33.4870 O.co2     1 NAP1363     0.0000 
     27 O5D        33.1430   35.5010  -33.1770 O.3       1 NAP1363     0.0000 
     28 C5D        34.3970   35.0120  -32.7710 C.3       1 NAP1363     0.0000 
     29 C4D        34.3080   34.0660  -31.5650 C.3       1 NAP1363     0.0000 
     30 O4D        33.9780   34.8090  -30.4050 O.3       1 NAP1363     0.0000 
     31 C3D        33.2710   32.9670  -31.7090 C.3       1 NAP1363     0.0000 
     32 O3D        33.7090   31.7740  -31.1110 O.3       1 NAP1363     0.0000 
     33 C2D        32.1110   33.5500  -30.9180 C.3       1 NAP1363     0.0000 
     34 O2D        31.1070   32.6550  -30.4150 O.3       1 NAP1363     0.0000 
     35 C1D        32.8690   34.2210  -29.7630 C.3       1 NAP1363     0.0000 
     36 N1N        32.1250   35.2260  -29.0180 N.pl3     1 NAP1363     0.0000 
     37 C2N        31.8130   34.8780  -27.7430 C.ar      1 NAP1363     0.0000 
     38 C3N        31.0620   35.7310  -26.9530 C.ar      1 NAP1363     0.0000 
     39 C7N        30.7710   35.3470  -25.5350 C.2       1 NAP1363     0.0000 
     40 O7N        29.9110   36.0570  -24.7840 O.2       1 NAP1363     0.0000 
     41 N7N        31.3480   34.3290  -24.9770 N.am      1 NAP1363     0.0000 
     42 C4N        30.6330   36.9360  -27.5060 C.ar      1 NAP1363     0.0000 
     43 C5N        30.9860   37.2720  -28.8000 C.ar      1 NAP1363     0.0000 
     44 C6N        31.7320   36.3920  -29.5570 C.ar      1 NAP1363     0.0000 
     45 P2B        41.0040   32.9690  -38.7740 P.3       1 NAP1363     0.0000 
     46 O1X        41.7560   33.3760  -37.5670 O.co2     1 NAP1363     0.0000 
     47 O2X        40.8610   31.4630  -38.8850 O.co2     1 NAP1363     0.0000 
     48 O3X        41.5340   33.6970  -39.9550 O.co2     1 NAP1363     0.0000 
     49 H          34.6964   33.6648  -37.7991 H         1 NAP1363     0.0000 
     50 H          35.0880   33.9760  -36.0992 H         1 NAP1363     0.0000 
     51 H          37.4049   34.6539  -36.9154 H         1 NAP1363     0.0000 
     52 H          36.2685   33.4273  -39.3833 H         1 NAP1363     0.0000 
     53 H          38.2599   32.4190  -39.8124 H         1 NAP1363     0.0000 
     54 H          38.7414   31.6568  -37.2830 H         1 NAP1363     0.0000 
     55 H          35.5839   31.6141  -39.4665 H         1 NAP1363     0.0000 
     56 H          35.6966   25.4909  -38.8769 H         1 NAP1363     0.0000 
     57 H          34.8796   26.8671  -39.6920 H         1 NAP1363     0.0000 
     58 H          39.1122   27.1250  -36.5975 H         1 NAP1363     0.0000 
     59 H          35.0921   35.8319  -32.4872 H         1 NAP1363     0.0000 
     60 H          34.9088   34.4517  -33.5834 H         1 NAP1363     0.0000 
     61 H          35.2831   33.5933  -31.4357 H         1 NAP1363     0.0000 
     62 H          32.9881   32.8953  -32.7127 H         1 NAP1363     0.0000 
     63 H          31.7006   34.3703  -31.5008 H         1 NAP1363     0.0000 
     64 H          33.2151   33.4236  -29.1106 H         1 NAP1363     0.0000 
     65 H          32.1324   33.9742  -27.3498 H         1 NAP1363     0.0000 
     66 H          31.0842   34.1373  -24.0317 H         1 NAP1363     0.0000 
     67 H          32.0035   33.8296  -25.5436 H         1 NAP1363     0.0000 
     68 H          30.0512   37.5753  -26.9451 H         1 NAP1363     0.0000 
     69 H          30.6926   38.1761  -29.1962 H         1 NAP1363     0.0000 
     70 H          31.9779   36.6434  -30.5296 H         1 NAP1363     0.0000 
     71 H          36.5247   35.4968  -39.9335 H         1 NAP1363     0.0000 
     72 H          34.6451   31.6484  -31.4396 H         1 NAP1363     0.0000 
     73 H          30.2545   32.9563  -30.8421 H         1 NAP1363     0.0000 
@<TRIPOS>BOND
     1    2    1 ar   
     2    3    1 ar   
     3    4    1 1    
     4   23    1 1    
     5    5    4 1    
     6    6    5 1    
     7   49    5 1    
     8   50    5 1    
     9    7    6 1    
    10    8    6 1    
    11   51    6 1    
    12   12    7 1    
    13    9    8 1    
    14   10    8 1    
    15   52    8 1    
    16   71    9 1    
    17   11   10 1    
    18   12   10 1    
    19   53   10 1    
    20   45   11 1    
    21   13   12 1    
    22   54   12 1    
    23   14   13 1    
    24   22   13 1    
    25   15   14 2    
    26   55   14 1    
    27   16   15 1    
    28   17   16 ar   
    29   22   16 ar   
    30   18   17 1    
    31   19   17 ar   
    32   56   18 1    
    33   57   18 1    
    34   20   19 ar   
    35   21   20 ar   
    36   58   20 1    
    37   22   21 ar   
    38   24   23 1    
    39   25   24 ar   
    40   26   24 ar   
    41   27   24 1    
    42   28   27 1    
    43   29   28 1    
    44   59   28 1    
    45   60   28 1    
    46   30   29 1    
    47   31   29 1    
    48   61   29 1    
    49   35   30 1    
    50   32   31 1    
    51   33   31 1    
    52   62   31 1    
    53   72   32 1    
    54   34   33 1    
    55   35   33 1    
    56   63   33 1    
    57   73   34 1    
    58   36   35 1    
    59   64   35 1    
    60   37   36 ar   
    61   44   36 ar   
    62   38   37 ar   
    63   65   37 1    
    64   39   38 1    
    65   42   38 ar   
    66   40   39 2    
    67   41   39 am   
    68   66   41 1    
    69   67   41 1    
    70   43   42 ar   
    71   68   42 1    
    72   44   43 ar   
    73   69   43 1    
    74   70   44 1    
    75   46   45 ar   
    76   47   45 ar   
    77   48   45 ar   
@<TRIPOS>SUBSTRUCTURE
     1 NAP1363     1 GROUP   
@<TRIPOS>SET

