#    Name: 4ES5_3_CAVITY_N1_6.mol2
#    Modification time : Mon Mar 10 18:04:38 2014

@<TRIPOS>MOLECULE
4ES5_3_CAVITY_N1_6.mol2
   83     0     5     0     0
SMALL
NO_CHARGES


@<TRIPOS>ATOM
      1 CA         -3.4071  -10.4716   57.8167 C.3       4 GLY6        0.0000 
      2 CA         -2.2483  -10.9503   56.9934 C.3       4 GLY6        0.0000 
      3 CA         -3.1294  -10.9971   55.7804 C.3       4 GLY6        0.0000 
      4 N          -1.9705  -11.4759   54.9571 N.2       1 ALA2        0.0000 
      5 N          -0.8117  -11.9546   54.1338 N.2       1 ALA2        0.0000 
      6 O          -5.1694  -10.5652   55.3907 O.2       1 ALA2        0.0000 
      7 CA         -4.0105  -11.0439   54.5674 C.3       4 GLY6        0.0000 
      8 CA         -2.8517  -11.5227   53.7441 C.3       4 GLY6        0.0000 
      9 N          -1.6928  -12.0014   52.9208 N.2       1 ALA2        0.0000 
     10 DU         -4.8917  -11.0908   53.3544 H         5 CUB7        0.0000 
     11 DU         -3.7328  -11.5695   52.5310 H         5 CUB7        0.0000 
     12 N          -2.5739  -12.0482   51.7077 N.2       1 ALA2        0.0000 
     13 N          -1.4150  -12.5270   50.8844 N.2       1 ALA2        0.0000 
     14 N          -0.2562  -13.0057   50.0611 N.2       1 ALA2        0.0000 
     15 O           0.9027  -13.4844   49.2378 O.2       1 ALA2        0.0000 
     16 CZ         -6.9316  -10.6588   52.9646 C.ar      3 PHE5        0.0000 
     17 CZ         -5.7728  -11.1376   52.1413 C.ar      3 PHE5        0.0000 
     18 DU         -4.6139  -11.6163   51.3180 H         5 CUB7        0.0000 
     19 CZ         -3.4550  -12.0950   50.4947 C.ar      3 PHE5        0.0000 
     20 CZ         -2.2962  -12.5738   49.6714 C.ar      3 PHE5        0.0000 
     21 CZ         -1.1373  -13.0525   48.8481 C.ar      3 PHE5        0.0000 
     22 CZ          0.0216  -13.5312   48.0248 C.ar      3 PHE5        0.0000 
     23 N          -6.6539  -11.1844   50.9283 N.2       1 ALA2        0.0000 
     24 CZ         -5.4950  -11.6631   50.1050 C.ar      3 PHE5        0.0000 
     25 CA         -1.6091  -10.0551   54.6397 C.3       4 GLY6        0.0000 
     26 O          -0.4502  -10.5338   53.8164 O.2       1 ALA2        0.0000 
     27 CA          0.7086  -11.0125   52.9931 C.3       4 GLY6        0.0000 
     28 CA         -2.4902  -10.1019   53.4267 C.3       4 GLY6        0.0000 
     29 CA         -1.3313  -10.5806   52.6034 C.3       4 GLY6        0.0000 
     30 CA         -0.1725  -11.0594   51.7801 C.3       4 GLY6        0.0000 
     31 CA          0.9864  -11.5381   50.9568 C.3       4 GLY6        0.0000 
     32 CZ         -4.5302   -9.6700   53.0370 C.ar      3 PHE5        0.0000 
     33 CA         -3.3713  -10.1487   52.2137 C.3       4 GLY6        0.0000 
     34 CZ         -2.2125  -10.6274   51.3904 C.ar      3 PHE5        0.0000 
     35 CZ         -1.0536  -11.1062   50.5670 C.ar      3 PHE5        0.0000 
     36 CZ         -4.2525  -10.1955   51.0006 C.ar      3 PHE5        0.0000 
     37 CZ         -3.0936  -10.6742   50.1773 C.ar      3 PHE5        0.0000 
     38 CA         -4.4078  -12.7876   60.4878 C.3       4 GLY6        0.0000 
     39 CA         -3.2489  -13.2663   59.6645 C.3       4 GLY6        0.0000 
     40 O          -5.2889  -12.8344   59.2748 O.2       1 ALA2        0.0000 
     41 CA         -4.1300  -13.3131   58.4515 C.3       4 GLY6        0.0000 
     42 CA         -3.8523  -13.8387   56.4152 C.3       4 GLY6        0.0000 
     43 CA         -2.6934  -14.3174   55.5919 C.3       4 GLY6        0.0000 
     44 DU         -4.7334  -13.8855   55.2021 H         5 CUB7        0.0000 
     45 DU         -3.5746  -14.3642   54.3788 H         5 CUB7        0.0000 
     46 N          -2.4157  -14.8430   53.5555 N.2       1 ALA2        0.0000 
     47 DU         -4.4557  -14.4110   53.1658 H         5 CUB7        0.0000 
     48 N          -3.2968  -14.8898   52.3425 N.2       1 ALA2        0.0000 
     49 DU         -4.1779  -14.9366   51.1295 H         5 CUB7        0.0000 
     50 O          -0.7013  -16.3728   48.6595 O.2       1 ALA2        0.0000 
     51 O           0.4575  -16.8515   47.8362 O.2       1 ALA2        0.0000 
     52 CZ         -1.5825  -16.4196   47.4465 C.ar      3 PHE5        0.0000 
     53 O          -2.8875  -11.8455   59.3471 O.2       1 ALA2        0.0000 
     54 O          -3.7686  -11.8924   58.1341 O.2       1 ALA2        0.0000 
     55 CA         -2.6097  -12.3711   57.3108 C.3       4 GLY6        0.0000 
     56 O          -4.6497  -11.9392   56.9211 O.2       1 ALA2        0.0000 
     57 CA         -3.4909  -12.4179   56.0978 C.3       4 GLY6        0.0000 
     58 CA         -2.3320  -12.8966   55.2745 C.3       4 GLY6        0.0000 
     59 O          -5.5308  -11.9860   55.7081 O.2       1 ALA2        0.0000 
     60 DU         -4.3720  -12.4647   54.8848 H         5 CUB7        0.0000 
     61 N          -3.2131  -12.9435   54.0615 N.2       1 ALA2        0.0000 
     62 N          -2.0542  -13.4222   53.2381 N.2       1 ALA2        0.0000 
     63 O          -7.5708  -11.5541   55.3184 O.2       1 ALA2        0.0000 
     64 O          -6.4120  -12.0328   54.4951 O.2       1 ALA2        0.0000 
     65 DU         -5.2531  -12.5115   53.6717 H         5 CUB7        0.0000 
     66 DU         -4.0942  -12.9903   52.8484 H         5 CUB7        0.0000 
     67 N          -2.9354  -13.4690   52.0251 N.2       1 ALA2        0.0000 
     68 N          -1.7765  -13.9477   51.2018 N.2       1 ALA2        0.0000 
     69 DU         -4.9754  -13.0371   51.6354 H         5 CUB7        0.0000 
     70 DU         -3.8165  -13.5158   50.8121 H         5 CUB7        0.0000 
     71 CZ         -2.6576  -13.9945   49.9888 C.ar      3 PHE5        0.0000 
     72 CZ         -1.4988  -14.4733   49.1655 C.ar      3 PHE5        0.0000 
     73 CZ         -0.3399  -14.9520   48.3422 C.ar      3 PHE5        0.0000 
     74 NZ          0.8190  -15.4307   47.5189 N.2       2 LYS4        0.0000 
     75 N          -7.0153  -12.6052   51.2457 N.2       1 ALA2        0.0000 
     76 CZ         -5.8565  -13.0839   50.4224 C.ar      3 PHE5        0.0000 
     77 CZ         -4.6976  -13.5626   49.5991 C.ar      3 PHE5        0.0000 
     78 CZ         -3.5387  -14.0414   48.7758 C.ar      3 PHE5        0.0000 
     79 CZ         -1.2210  -14.9988   47.1291 C.ar      3 PHE5        0.0000 
     80 O           1.0701   -9.5918   52.6757 O.2       1 ALA2        0.0000 
     81 CA         -0.9699   -9.1598   52.2860 C.3       4 GLY6        0.0000 
     82 N           0.1890   -9.6386   51.4627 N.2       1 ALA2        0.0000 
     83 CA         -3.0099   -8.7279   51.8963 C.3       4 GLY6        0.0000 
@<TRIPOS>BOND
@<TRIPOS>SUBSTRUCTURE
     1 ALA2        4 GROUP   
     2 LYS4       74 GROUP   
     3 PHE5       16 GROUP   
     4 GLY6        1 GROUP   
     5 CUB7       10 GROUP   
@<TRIPOS>SET

