#    Name: 4es5_MGT_3_INTS_M
#    Modification time : Mon Mar 24 18:36:07 2014

@<TRIPOS>MOLECULE
4es5_MGT_3_INTS_M
   39     0    12     0     0
SMALL
NO_CHARGES


@<TRIPOS>ATOM
      1 NZ         -2.2875  -17.5835   57.2345 N.4       3 LYC4        0.0000 
      2 NZ         -2.8730  -16.3810   56.0740 N.4      11 LYL4        0.0000 
      3 NZ         -1.7020  -18.7860   58.3950 N.4       7 LYP4        0.0000 
      4 N          -6.2290  -10.5440   56.4225 N.am      2 SEC2        0.0000 
      5 N          -5.8490  -10.7090   55.0580 N.am     10 SEL2        0.0000 
      6 N          -6.6090  -10.3790   57.7870 N.am      6 SEP2        0.0000 
      7 CA         -6.1650   -9.6760   51.5865 C.3       4 GLC5        0.0000 
      8 CA         -6.1030  -11.7850   52.0120 C.3      12 GLL5        0.0000 
      9 CA         -6.2270   -7.5670   51.1610 C.3       8 GLP5        0.0000 
     10 CA         -3.7940  -12.3205   48.6385 C.3       4 GLC5        0.0000 
     11 CA         -3.3900  -12.9810   50.2590 C.3      12 GLL5        0.0000 
     12 CA         -4.1980  -11.6600   47.0180 C.3       8 GLP5        0.0000 
     13 CA         -2.3260  -11.2955   49.3980 C.3       4 GLC5        0.0000 
     14 CA         -1.2620   -9.6100   48.5370 C.3       8 GLP5        0.0000 
     15 CA         -0.2420  -12.6135   52.2665 C.3       4 GLC5        0.0000 
     16 CA         -1.8020  -11.4810   51.4980 C.3      12 GLL5        0.0000 
     17 CA          1.3180  -13.7460   53.0350 C.3       8 GLP5        0.0000 
     18 CA         -1.5320  -10.5455   50.0175 C.3       4 GLC5        0.0000 
     19 CA          0.6790  -11.8095   52.2280 C.3       4 GLC5        0.0000 
     20 CA          0.0400   -9.8730   51.4210 C.3      12 GLL5        0.0000 
     21 CA         -0.6110   -9.7415   49.9790 C.3       4 GLC5        0.0000 
     22 CA          1.1615   -8.8245   53.0090 C.3       4 GLC5        0.0000 
     23 CA          2.2830   -7.7760   54.5970 C.3       8 GLP5        0.0000 
     24 CA         -0.7055   -8.6185   52.8380 C.3       4 GLC5        0.0000 
     25 CA         -1.4510   -7.3640   54.2550 C.3       8 GLP5        0.0000 
     26 N           3.6250  -10.8575   50.2415 N.am      2 SEC2        0.0000 
     27 N           2.4560  -11.7070   50.1930 N.am     10 SEL2        0.0000 
     28 N           4.7940  -10.0080   50.2900 N.am      6 SEP2        0.0000 
     29 O           2.8075  -13.5390   48.3235 O.2       1 ALC1        0.0000 
     30 O           1.5600  -13.3790   48.8850 O.2       9 ALL1        0.0000 
     31 O           4.0550  -13.6990   47.7620 O.2       5 ALP1        0.0000 
     32 O           2.0740  -15.3830   47.2310 O.2       1 ALC1        0.0000 
     33 O           0.5770  -15.0850   47.5460 O.2       9 ALL1        0.0000 
     34 O           3.5710  -15.6810   46.9160 O.2       5 ALP1        0.0000 
     35 CA         -5.4410  -12.7645   48.9315 C.3       4 GLC5        0.0000 
     36 CA         -5.3240  -13.9770   51.0480 C.3      12 GLL5        0.0000 
     37 CA         -5.4370  -12.2950   46.9470 C.3       8 GLP5        0.0000 
     38 CA          0.4625  -13.1487   51.5948 C.3       4 GLC5        0.0000 
     39 CA         -0.9250  -12.9680   49.9140 C.3      12 GLL5        0.0000 
@<TRIPOS>BOND
@<TRIPOS>SUBSTRUCTURE
     1 ALC1       29 GROUP        1 X    ALC  0     ROOT ALC X 1
     2 SEC2        4 GROUP        1 X    SEC  0     **** SEC X 2
     3 LYC4        1 GROUP        1 X    LYC  0     **** LYC X 4
     4 GLC5        7 GROUP        1 X    GLC  0     **** GLC X 6
     5 ALP1       31 GROUP        1 Y    ALP  0     ROOT ALP Y 8
     6 SEP2        6 GROUP        1 Y    SEP  0     **** SEP Y 9
     7 LYP4        3 GROUP        1 Y    LYP  0     **** LYP Y 11
     8 GLP5        9 GROUP        1 Y    GLP  0     **** GLP Y 13
     9 ALL1       30 GROUP        1 Z    ALL  0     ROOT ALL Z 15
    10 SEL2        5 GROUP        1 Z    SEL  0     **** SEL Z 16
    11 LYL4        2 GROUP        1 Z    LYL  0     **** LYL Z 18
    12 GLL5        8 GROUP        1 Z    GLL  0     **** GLL Z 20
@<TRIPOS>SET

