#    Name: 4es5_MGT_3_ligand
#    Modification time : Mon Mar 24 18:36:08 2014

@<TRIPOS>MOLECULE
4es5_MGT_3_ligand
   49    51     1     0     0
SMALL
NO_CHARGES


@<TRIPOS>ATOM
      1 PG         -3.3330  -16.3630   54.6320 P.3       1 MGT501      0.0000 
      2 O1G        -2.8730  -16.3810   56.0740 O.co2     1 MGT501      0.0000 
      3 O2G        -2.2190  -16.3090   53.5980 O.co2     1 MGT501      0.0000 
      4 O3G        -4.3970  -17.4030   54.3240 O.co2     1 MGT501      0.0000 
      5 O3B        -4.0900  -14.9330   54.5120 O.3       1 MGT501      0.0000 
      6 PB         -5.5980  -14.7180   55.0550 P.3       1 MGT501      0.0000 
      7 O1B        -5.4950  -14.6780   56.5660 O.co2     1 MGT501      0.0000 
      8 O2B        -6.4790  -15.7560   54.3740 O.co2     1 MGT501      0.0000 
      9 O3A        -6.0530  -13.2460   54.5250 O.3       1 MGT501      0.0000 
     10 PA         -5.1210  -11.9080   54.4790 P.3       1 MGT501      0.0000 
     11 O1A        -3.7340  -12.2370   54.9900 O.co2     1 MGT501      0.0000 
     12 O2A        -5.8490  -10.7090   55.0580 O.co2     1 MGT501      0.0000 
     13 O5'        -4.9910  -11.6400   52.8930 O.3       1 MGT501      0.0000 
     14 C5'        -6.1030  -11.7850   52.0120 C.3       1 MGT501      0.0000 
     15 C4'        -5.5660  -12.4910   50.7840 C.3       1 MGT501      0.0000 
     16 O4'        -4.2920  -11.9040   50.4800 O.3       1 MGT501      0.0000 
     17 C3'        -5.3240  -13.9770   51.0480 C.3       1 MGT501      0.0000 
     18 O3'        -5.6780  -14.7660   49.8970 O.3       1 MGT501      0.0000 
     19 C2'        -3.8270  -14.0650   51.2360 C.3       1 MGT501      0.0000 
     20 O2'        -3.3070  -15.3660   50.9220 O.3       1 MGT501      0.0000 
     21 C1'        -3.3900  -12.9810   50.2590 C.3       1 MGT501      0.0000 
     22 N9         -2.0550  -12.5500   50.5610 N.3       1 MGT501      0.0000 
     23 C8         -1.8020  -11.4810   51.4980 C.3       1 MGT501      0.0000 
     24 N7         -0.3410  -11.2800   51.4130 N.3       1 MGT501      0.0000 
     25 CM7         0.0400   -9.8730   51.4210 C.3       1 MGT501      0.0000 
     26 C5          0.1390  -12.1350   50.3950 C.2       1 MGT501      0.0000 
     27 C6          1.4730  -12.3870   49.8300 C.2       1 MGT501      0.0000 
     28 O6          2.4560  -11.7070   50.1930 O.2       1 MGT501      0.0000 
     29 N1          1.5600  -13.3790   48.8850 N.am      1 MGT501      0.0000 
     30 C2          0.4800  -14.1050   48.4760 C.2       1 MGT501      0.0000 
     31 N2          0.5770  -15.0850   47.5460 N.pl3     1 MGT501      0.0000 
     32 N3         -0.7500  -13.9110   48.9790 N.2       1 MGT501      0.0000 
     33 C4         -0.9250  -12.9680   49.9140 C.2       1 MGT501      0.0000 
     34 H          -6.5066  -10.8289   51.7070 H         1 MGT501      0.0000 
     35 H          -6.8850  -12.3960   52.4425 H         1 MGT501      0.0000 
     36 H          -6.2433  -12.3809   49.9779 H         1 MGT501      0.0000 
     37 H          -5.8036  -14.2611   51.9265 H         1 MGT501      0.0000 
     38 H          -3.6029  -13.7242   52.2168 H         1 MGT501      0.0000 
     39 H          -3.4794  -13.3640   49.2757 H         1 MGT501      0.0000 
     40 H          -2.0726  -11.7689   52.4982 H         1 MGT501      0.0000 
     41 H          -2.3113  -10.5799   51.2062 H         1 MGT501      0.0000 
     42 H           2.5027  -13.5856   48.4597 H         1 MGT501      0.0000 
     43 H          -0.2670  -15.5793   47.3379 H         1 MGT501      0.0000 
     44 H           1.4841  -15.2275   47.1499 H         1 MGT501      0.0000 
     45 H           1.0317   -9.7565   51.3667 H         1 MGT501      0.0000 
     46 H          -0.3562   -9.3766   50.6486 H         1 MGT501      0.0000 
     47 H          -0.2643   -9.4106   52.2538 H         1 MGT501      0.0000 
     48 H          -4.8350  -15.2370   49.6371 H         1 MGT501      0.0000 
     49 H          -2.9117  -15.7000   51.7777 H         1 MGT501      0.0000 
@<TRIPOS>BOND
     1    2    1 ar   
     2    3    1 ar   
     3    4    1 ar   
     4    5    1 1    
     5    6    5 1    
     6    7    6 ar   
     7    8    6 ar   
     8    9    6 1    
     9   10    9 1    
    10   11   10 ar   
    11   12   10 ar   
    12   13   10 1    
    13   14   13 1    
    14   15   14 1    
    15   34   14 1    
    16   35   14 1    
    17   16   15 1    
    18   17   15 1    
    19   36   15 1    
    20   21   16 1    
    21   18   17 1    
    22   19   17 1    
    23   37   17 1    
    24   48   18 1    
    25   20   19 1    
    26   21   19 1    
    27   38   19 1    
    28   49   20 1    
    29   22   21 1    
    30   39   21 1    
    31   23   22 1    
    32   33   22 1    
    33   24   23 1    
    34   40   23 1    
    35   41   23 1    
    36   25   24 1    
    37   26   24 1    
    38   45   25 1    
    39   46   25 1    
    40   47   25 1    
    41   27   26 1    
    42   33   26 2    
    43   28   27 2    
    44   29   27 am   
    45   30   29 1    
    46   42   29 1    
    47   31   30 1    
    48   32   30 2    
    49   43   31 1    
    50   44   31 1    
    51   33   32 1    
@<TRIPOS>SUBSTRUCTURE
     1 MGT501      1 GROUP   
@<TRIPOS>SET

