#    Name: 3nf7_CIW_2_INTS_M
#    Modification time : Tue Mar 25 01:27:52 2014

@<TRIPOS>MOLECULE
3nf7_CIW_2_INTS_M
   49     0     3     0     0
SMALL
NO_CHARGES


@<TRIPOS>ATOM
      1 CA         20.8100  -18.1000   18.4050 C.3       1 GLC5        0.0000 
      2 CA         20.8220  -18.9190   20.2490 C.3       3 GLL5        0.0000 
      3 CA         20.7980  -17.2810   16.5610 C.3       2 GLP5        0.0000 
      4 CA         18.9135  -22.3580   19.2835 C.3       1 GLC5        0.0000 
      5 CA         17.6580  -23.0720   20.9410 C.3       3 GLL5        0.0000 
      6 CA         20.1690  -21.6440   17.6260 C.3       2 GLP5        0.0000 
      7 CA         17.0595  -21.7585   19.5415 C.3       1 GLC5        0.0000 
      8 CA         16.4610  -20.4450   18.1420 C.3       2 GLP5        0.0000 
      9 CA         15.9585  -25.0180   19.4705 C.3       1 GLC5        0.0000 
     10 CA         17.4610  -24.3290   20.4090 C.3       3 GLL5        0.0000 
     11 CA         14.4560  -25.7070   18.5320 C.3       2 GLP5        0.0000 
     12 CA         15.5755  -25.9935   20.3540 C.3       1 GLC5        0.0000 
     13 CA         17.1120  -25.3310   21.2930 C.3       3 GLL5        0.0000 
     14 CA         14.0390  -26.6560   19.4150 C.3       2 GLP5        0.0000 
     15 CA         18.4175  -26.5860   22.0855 C.3       1 GLC5        0.0000 
     16 CA         16.6800  -27.2390   22.3390 C.3       3 GLL5        0.0000 
     17 CA         20.1550  -25.9330   21.8320 C.3       2 GLP5        0.0000 
     18 CA         15.8570  -27.6160   23.9730 C.3       1 GLC5        0.0000 
     19 CA         15.0340  -27.9930   25.6070 C.3       2 GLP5        0.0000 
     20 CA         17.5610  -28.6505   21.7570 C.3       1 GLC5        0.0000 
     21 CA         18.4420  -30.0620   21.1750 C.3       2 GLP5        0.0000 
     22 CA         15.3595  -26.9475   20.8770 C.3       1 GLC5        0.0000 
     23 CA         24.4505  -20.0130   18.4025 C.3       1 GLC5        0.0000 
     24 CA         23.3920  -19.3790   19.9040 C.3       3 GLL5        0.0000 
     25 CA         25.5090  -20.6470   16.9010 C.3       2 GLP5        0.0000 
     26 CA         23.3690  -18.4290   18.1360 C.3       1 GLC5        0.0000 
     27 CA         23.3460  -17.4790   16.3680 C.3       2 GLP5        0.0000 
     28 CA         20.9683  -21.0278   19.2168 C.3       1 GLC5        0.0000 
     29 CA         21.8500  -19.8090   20.4830 C.3       3 GLL5        0.0000 
     30 CA         21.7048  -20.0608   22.5748 C.3       1 GLC5        0.0000 
     31 CA         21.6420  -19.7100   24.3420 C.3       2 GLP5        0.0000 
     32 CA         20.9297  -23.1148   20.8925 C.3       1 GLC5        0.0000 
     33 CA         21.6850  -21.0140   21.1320 C.3       3 GLL5        0.0000 
     34 CA         20.7970  -25.0300   20.4240 C.3       2 GLP5        0.0000 
     35 CA         20.0517  -21.2907   19.5478 C.3       1 GLC5        0.0000 
     36 CA         20.4400  -21.3850   21.5900 C.3       3 GLL5        0.0000 
     37 CA         20.7882  -20.3238   22.9058 C.3       1 GLC5        0.0000 
     38 CA         19.4290  -20.4900   21.3490 C.3       3 GLL5        0.0000 
     39 CA         20.1865  -20.3742   19.0515 C.3       1 GLC5        0.0000 
     40 CA         19.5860  -19.2900   20.7050 C.3       3 GLL5        0.0000 
     41 CA         20.9230  -19.4073   22.4095 C.3       1 GLC5        0.0000 
     42 CA         17.6896  -19.8342   19.4842 C.3       1 GLC5        0.0000 
     43 CA         19.0030  -24.2938   22.9055 C.3       1 GLC5        0.0000 
     44 CA         17.5090  -22.8360   22.3090 C.3       3 GLL5        0.0000 
     45 CA         20.6770  -25.2480   23.0660 C.3       2 GLP5        0.0000 
     46 CA         19.1782  -24.3653   20.5495 C.3       1 GLC5        0.0000 
     47 CA         17.7718  -25.1460   18.9970 C.3       1 GLC5        0.0000 
     48 CA         18.2570  -25.4620   17.1430 C.3       2 GLP5        0.0000 
     49 CA         18.5965  -25.5678   21.8945 C.3       1 GLC5        0.0000 
@<TRIPOS>BOND
@<TRIPOS>SUBSTRUCTURE
     1 GLC5        1 GROUP        1 X    GLC  0     ROOT GLC X 6
     2 GLP5        3 GROUP        1 Y    GLP  0     ROOT GLP Y 13
     3 GLL5        2 GROUP        1 Z    GLL  0     ROOT GLL Z 20
@<TRIPOS>SET

