#    Name: 3nf7_CIW_2_ligand
#    Modification time : Tue Mar 25 01:27:52 2014

@<TRIPOS>MOLECULE
3nf7_CIW_2_ligand
   35    38     1     0     0
SMALL
NO_CHARGES


@<TRIPOS>ATOM
      1 C1         21.8500  -19.8090   20.4830 C.ar      1 CIW215      0.0000 
      2 C2         21.6850  -21.0140   21.1320 C.ar      1 CIW215      0.0000 
      3 C3         20.4400  -21.3850   21.5900 C.ar      1 CIW215      0.0000 
      4 C4         19.4290  -20.4900   21.3490 C.ar      1 CIW215      0.0000 
      5 C5         19.5860  -19.2900   20.7050 C.ar      1 CIW215      0.0000 
      6 C6         20.8220  -18.9190   20.2490 C.ar      1 CIW215      0.0000 
      7 C7         18.3290  -18.5570   20.6260 C.3       1 CIW215      0.0000 
      8 C8         17.4000  -19.5080   21.3260 C.2       1 CIW215      0.0000 
      9 O9         16.2090  -19.3350   21.4800 O.2       1 CIW215      0.0000 
     10 N10        18.1130  -20.6290   21.7160 N.am      1 CIW215      0.0000 
     11 C11        17.7520  -21.4610   22.8230 C.3       1 CIW215      0.0000 
     12 C12        17.5090  -22.8360   22.3090 C.ar      1 CIW215      0.0000 
     13 C13        17.6580  -23.0720   20.9410 C.ar      1 CIW215      0.0000 
     14 C14        17.4610  -24.3290   20.4090 C.ar      1 CIW215      0.0000 
     15 C15        17.1120  -25.3310   21.2930 C.ar      1 CIW215      0.0000 
     16 C16        16.9640  -25.0740   22.6210 C.ar      1 CIW215      0.0000 
     17 C17        17.1490  -23.8430   23.1810 C.ar      1 CIW215      0.0000 
     18 C18        16.9880  -23.7210   24.6680 C.2       1 CIW215      0.0000 
     19 O19        15.9260  -24.1620   25.1480 O.co2     1 CIW215      0.0000 
     20 O20        17.9180  -23.2420   25.3520 O.co2     1 CIW215      0.0000 
     21 O21        16.6400  -26.1970   23.3300 O.3       1 CIW215      0.0000 
     22 C22        16.6800  -27.2390   22.3390 C.3       1 CIW215      0.0000 
     23 O23        16.8770  -26.6830   21.0110 O.3       1 CIW215      0.0000 
     24 CL24       23.3920  -19.3790   19.9040 Cl        1 CIW215      0.0000 
     25 H          22.4950  -21.6382   21.2746 H         1 CIW215      0.0000 
     26 H          20.2858  -22.2536   22.0682 H         1 CIW215      0.0000 
     27 H          20.9779  -18.0467   19.7691 H         1 CIW215      0.0000 
     28 H          18.0164  -18.4315   19.6201 H         1 CIW215      0.0000 
     29 H          18.3774  -17.6457   21.1668 H         1 CIW215      0.0000 
     30 H          16.8433  -21.0989   23.3110 H         1 CIW215      0.0000 
     31 H          18.5506  -21.4970   23.5686 H         1 CIW215      0.0000 
     32 H          17.9215  -22.2838   20.3206 H         1 CIW215      0.0000 
     33 H          17.5666  -24.5090   19.4213 H         1 CIW215      0.0000 
     34 H          15.7400  -27.8237   22.3612 H         1 CIW215      0.0000 
     35 H          17.4952  -27.9526   22.5676 H         1 CIW215      0.0000 
@<TRIPOS>BOND
     1    2    1 ar   
     2    6    1 ar   
     3   24    1 1    
     4    3    2 ar   
     5   25    2 1    
     6    4    3 ar   
     7   26    3 1    
     8    5    4 ar   
     9   10    4 1    
    10    6    5 ar   
    11    7    5 1    
    12   27    6 1    
    13    8    7 1    
    14   28    7 1    
    15   29    7 1    
    16    9    8 2    
    17   10    8 am   
    18   11   10 1    
    19   12   11 1    
    20   30   11 1    
    21   31   11 1    
    22   13   12 ar   
    23   17   12 ar   
    24   14   13 ar   
    25   32   13 1    
    26   15   14 ar   
    27   33   14 1    
    28   16   15 ar   
    29   23   15 1    
    30   17   16 ar   
    31   21   16 1    
    32   18   17 1    
    33   19   18 ar   
    34   20   18 ar   
    35   22   21 1    
    36   23   22 1    
    37   34   22 1    
    38   35   22 1    
@<TRIPOS>SUBSTRUCTURE
     1 CIW215      1 GROUP   
@<TRIPOS>SET

