#    Name: 4g3p_UD1_1_INTS_M
#    Modification time : Mon Mar 24 21:22:04 2014

@<TRIPOS>MOLECULE
4g3p_UD1_1_INTS_M
   95     0    15     0     0
SMALL
NO_CHARGES


@<TRIPOS>ATOM
      1 CA        -22.7150   -8.9340  -23.2285 C.3       5 GLC5        0.0000 
      2 CA        -23.9210   -8.6090  -21.5800 C.3      15 GLL5        0.0000 
      3 CA        -21.5090   -9.2590  -24.8770 C.3      10 GLP5        0.0000 
      4 CA        -23.1065   -6.3920  -22.9020 C.3       5 GLC5        0.0000 
      5 CA        -23.2230   -7.3440  -21.0960 C.3      15 GLL5        0.0000 
      6 CA        -22.9900   -5.4400  -24.7080 C.3      10 GLP5        0.0000 
      7 CA        -20.5515   -5.9675  -20.0540 C.3       5 GLC5        0.0000 
      8 CA        -22.3050   -5.9790  -19.2400 C.3      15 GLL5        0.0000 
      9 CA        -18.7980   -5.9560  -20.8680 C.3      10 GLP5        0.0000 
     10 CA        -26.2495  -12.3145  -23.1465 C.3       5 GLC5        0.0000 
     11 CA        -27.6040  -11.5010  -21.9230 C.3      15 GLL5        0.0000 
     12 CA        -24.8950  -13.1280  -24.3700 C.3      10 GLP5        0.0000 
     13 CA        -28.2230  -13.1540  -22.3350 C.3       5 GLC5        0.0000 
     14 CA        -28.8420  -14.8070  -22.7470 C.3      10 GLP5        0.0000 
     15 CA        -27.3860  -10.0110  -23.2315 C.3       5 GLC5        0.0000 
     16 CA        -27.1680   -8.5210  -24.5400 C.3      10 GLP5        0.0000 
     17 O         -25.0615  -10.9250  -21.7975 O.2       1 ALC1        0.0000 
     18 O         -25.7930  -10.0940  -21.1340 O.2      11 ALL1        0.0000 
     19 O         -24.3300  -11.7560  -22.4610 O.2       6 ALP1        0.0000 
     20 N         -24.6775   -7.3080  -23.4155 N.am      2 SEC2        0.0000 
     21 N         -24.2150   -8.4940  -22.9900 N.am     12 SEL2        0.0000 
     22 N         -25.1400   -6.1220  -23.8410 N.am      7 SEP2        0.0000 
     23 O         -24.2725  -10.1250  -22.7255 O.2       1 ALC1        0.0000 
     24 O         -24.2150   -8.4940  -22.9900 O.2      11 ALL1        0.0000 
     25 O         -24.3855   -9.6120  -23.7165 O.2       1 ALC1        0.0000 
     26 O         -24.5560  -10.7300  -24.4430 O.2       6 ALP1        0.0000 
     27 N         -21.4690   -8.1540  -22.6900 N.am      2 SEC2        0.0000 
     28 N         -22.0050   -7.1460  -21.8210 N.am     12 SEL2        0.0000 
     29 N         -20.9330   -9.1620  -23.5590 N.am      7 SEP2        0.0000 
     30 O         -21.7625   -5.7715  -22.0645 O.2       1 ALC1        0.0000 
     31 O         -22.0050   -7.1460  -21.8210 O.2      11 ALL1        0.0000 
     32 O         -21.5200   -4.3970  -22.3080 O.2       6 ALP1        0.0000 
     33 O         -22.0095   -4.5065  -17.7515 O.2       1 ALC1        0.0000 
     34 O         -22.3130   -5.7520  -17.8350 O.2      11 ALL1        0.0000 
     35 O         -21.7060   -3.2610  -17.6680 O.2       6 ALP1        0.0000 
     36 N         -29.1665   -9.7985  -20.4620 N.am      2 SEC2        0.0000 
     37 N         -27.9270   -9.4300  -20.7010 N.am     12 SEL2        0.0000 
     38 N         -30.4060  -10.1670  -20.2230 N.am      7 SEP2        0.0000 
     39 O         -33.8790  -11.7670  -13.3665 O.2       1 ALC1        0.0000 
     40 O         -32.6250  -11.5560  -13.8510 O.2      11 ALL1        0.0000 
     41 O         -35.1330  -11.9780  -12.8820 O.2       6 ALP1        0.0000 
     42 CA        -31.6505  -13.3530  -16.4815 C.3       5 GLC5        0.0000 
     43 CA        -30.7310  -12.4970  -14.9010 C.3      15 GLL5        0.0000 
     44 CA        -32.5700  -14.2090  -18.0620 C.3      10 GLP5        0.0000 
     45 N         -32.3650   -9.2525  -11.5820 N.am      2 SEC2        0.0000 
     46 N         -32.5840   -9.5160  -12.9030 N.am     12 SEL2        0.0000 
     47 N         -32.1460   -8.9890  -10.2610 N.am      7 SEP2        0.0000 
     48 N         -34.3080  -13.2110  -14.7705 N.am      2 SEC2        0.0000 
     49 N         -32.7420  -13.6010  -14.7420 N.am     12 SEL2        0.0000 
     50 N         -35.8740  -12.8210  -14.7990 N.am      7 SEP2        0.0000 
     51 N         -33.1105  -14.2830  -15.9720 N.am      2 SEC2        0.0000 
     52 N         -33.4790  -14.9650  -17.2020 N.am      7 SEP2        0.0000 
     53 CA        -30.8775   -7.6055  -14.0240 C.3       5 GLC5        0.0000 
     54 CA        -29.8620   -9.0830  -13.5860 C.3      15 GLL5        0.0000 
     55 CA        -31.8930   -6.1280  -14.4620 C.3      10 GLP5        0.0000 
     56 CA        -29.8400   -9.5095  -15.7415 C.3       5 GLC5        0.0000 
     57 CA        -29.8180   -9.9360  -17.8970 C.3      10 GLP5        0.0000 
     58 N         -29.8210  -10.2510  -11.0245 N.am      2 SEC2        0.0000 
     59 N         -28.8760   -9.2430  -11.4270 N.am     12 SEL2        0.0000 
     60 N         -30.7660  -11.2590  -10.6220 N.am      7 SEP2        0.0000 
     61 CA        -29.9770   -7.0180  -14.5430 C.3       5 GLC5        0.0000 
     62 CA        -28.0610   -7.9080  -14.6240 C.3      15 GLL5        0.0000 
     63 N         -27.8915   -5.4545  -12.2510 N.am      2 SEC2        0.0000 
     64 N         -27.7540   -7.1160  -12.4100 N.am     12 SEL2        0.0000 
     65 N         -28.0290   -3.7930  -12.0920 N.am      7 SEP2        0.0000 
     66 O         -28.9235   -6.3650  -12.3070 O.2       1 ALC1        0.0000 
     67 O         -27.7540   -7.1160  -12.4100 O.2      11 ALL1        0.0000 
     68 O         -30.0930   -5.6140  -12.2040 O.2       6 ALP1        0.0000 
     69 NZ        -24.0615   -9.8820  -12.9725 N.4       3 LYC4        0.0000 
     70 NZ        -24.7150   -9.9650  -14.6120 N.4      13 LYL4        0.0000 
     71 NZ        -23.4080   -9.7990  -11.3330 N.4       8 LYP4        0.0000 
     72 Zn        -23.8500   -9.2415  -14.7365 Zn        4 ZIC7        0.0000 
     73 Zn        -24.7150   -9.9650  -14.6120 Zn       14 ZIL7        0.0000 
     74 Zn        -22.9850   -8.5180  -14.8610 Zn        9 ZIP7        0.0000 
     75 Zn        -22.9975   -9.0190  -15.8155 Zn        4 ZIC7        0.0000 
     76 Zn        -23.0100   -9.5200  -16.7700 Zn       14 ZIL7        0.0000 
     77 N         -21.8610  -10.0445  -16.0900 N.am      2 SEC2        0.0000 
     78 N         -23.0100   -9.5200  -16.7700 N.am     12 SEL2        0.0000 
     79 N         -20.7120  -10.5690  -15.4100 N.am      7 SEP2        0.0000 
     80 N         -22.7430  -12.6835  -16.3760 N.am      2 SEC2        0.0000 
     81 N         -23.1920  -11.9380  -17.8510 N.am     12 SEL2        0.0000 
     82 N         -22.2940  -13.4290  -14.9010 N.am      7 SEP2        0.0000 
     83 N         -23.9045  -12.7030  -18.9565 N.am      2 SEC2        0.0000 
     84 N         -24.6170  -13.4680  -20.0620 N.am      7 SEP2        0.0000 
     85 CA        -25.8605   -8.6215  -22.8507 C.3       5 GLC5        0.0000 
     86 CA        -25.1850   -8.8350  -20.7430 C.3      15 GLL5        0.0000 
     87 CA        -30.1182  -12.1363  -12.7922 C.3       5 GLC5        0.0000 
     88 CA        -30.0520  -11.3280  -14.5740 C.3      15 GLL5        0.0000 
     89 CA        -29.8450  -12.3600  -10.8470 C.3      10 GLP5        0.0000 
     90 CA        -30.1048  -10.9243  -16.3173 C.3       5 GLC5        0.0000 
     91 CA        -29.5358  -10.7937  -12.0215 C.3       5 GLC5        0.0000 
     92 CA        -28.7223   -9.0768  -16.5282 C.3       5 GLC5        0.0000 
     93 CA        -27.1871   -6.3364  -14.8331 C.3       5 GLC5        0.0000 
     94 CA        -27.1920   -8.5270  -15.6950 C.3      15 GLL5        0.0000 
     95 CA        -26.8630   -4.3590  -14.8540 C.3      10 GLP5        0.0000 
@<TRIPOS>BOND
@<TRIPOS>SUBSTRUCTURE
     1 ALC1       17 GROUP        1 X    ALC  0     ROOT ALC X 1
     2 SEC2       20 GROUP        1 X    SEC  0     **** SEC X 2
     3 LYC4       69 GROUP        1 X    LYC  0     **** LYC X 4
     4 ZIC7       72 GROUP        1 X    ZIC  0     **** ZIC X 5
     5 GLC5        1 GROUP        1 X    GLC  0     **** GLC X 6
     6 ALP1       19 GROUP        1 Y    ALP  0     ROOT ALP Y 8
     7 SEP2       22 GROUP        1 Y    SEP  0     **** SEP Y 9
     8 LYP4       71 GROUP        1 Y    LYP  0     **** LYP Y 11
     9 ZIP7       74 GROUP        1 Y    ZIP  0     **** ZIP Y 12
    10 GLP5        3 GROUP        1 Y    GLP  0     **** GLP Y 13
    11 ALL1       18 GROUP        1 Z    ALL  0     ROOT ALL Z 15
    12 SEL2       21 GROUP        1 Z    SEL  0     **** SEL Z 16
    13 LYL4       70 GROUP        1 Z    LYL  0     **** LYL Z 18
    14 ZIL7       73 GROUP        1 Z    ZIL  0     **** ZIL Z 19
    15 GLL5        2 GROUP        1 Z    GLL  0     **** GLL Z 20
@<TRIPOS>SET

