#    Name: 4g3p_UD1_1_ligand
#    Modification time : Mon Mar 24 21:22:04 2014

@<TRIPOS>MOLECULE
4g3p_UD1_1_ligand
   64    66     1     0     0
SMALL
NO_CHARGES


@<TRIPOS>ATOM
      1 C1'       -24.8250   -8.8650  -19.2520 C.3       1 UD1506      0.0000 
      2 C2'       -25.1850   -8.8350  -20.7430 C.3       1 UD1506      0.0000 
      3 C3'       -23.9210   -8.6090  -21.5800 C.3       1 UD1506      0.0000 
      4 C4'       -23.2230   -7.3440  -21.0960 C.3       1 UD1506      0.0000 
      5 C5'       -22.9860   -7.3220  -19.5780 C.3       1 UD1506      0.0000 
      6 C6'       -22.3050   -5.9790  -19.2400 C.3       1 UD1506      0.0000 
      7 C7'       -27.1250  -10.2390  -21.2110 C.2       1 UD1506      0.0000 
      8 C8'       -27.6040  -11.5010  -21.9230 C.3       1 UD1506      0.0000 
      9 N2'       -25.7930  -10.0940  -21.1340 N.am      1 UD1506      0.0000 
     10 O1'       -23.8960   -9.9550  -19.0290 O.3       1 UD1506      0.0000 
     11 O3'       -24.2150   -8.4940  -22.9900 O.3       1 UD1506      0.0000 
     12 O4'       -22.0050   -7.1460  -21.8210 O.3       1 UD1506      0.0000 
     13 O5'       -24.2130   -7.6420  -18.8170 O.3       1 UD1506      0.0000 
     14 O6'       -22.3130   -5.7520  -17.8350 O.3       1 UD1506      0.0000 
     15 O7'       -27.9270   -9.4300  -20.7010 O.2       1 UD1506      0.0000 
     16 N1        -30.6260  -10.3000  -13.9000 N.am      1 UD1506      0.0000 
     17 C2        -31.9790  -10.4260  -13.5340 C.2       1 UD1506      0.0000 
     18 N3        -32.6250  -11.5560  -13.8510 N.am      1 UD1506      0.0000 
     19 C4        -32.0630  -12.5740  -14.5130 C.2       1 UD1506      0.0000 
     20 C5        -30.7310  -12.4970  -14.9010 C.2       1 UD1506      0.0000 
     21 C6        -30.0520  -11.3280  -14.5740 C.2       1 UD1506      0.0000 
     22 O2        -32.5840   -9.5160  -12.9030 O.2       1 UD1506      0.0000 
     23 O4        -32.7420  -13.6010  -14.7420 O.2       1 UD1506      0.0000 
     24 C1B       -29.8620   -9.0830  -13.5860 C.3       1 UD1506      0.0000 
     25 C2B       -28.5910   -9.3720  -12.8060 C.3       1 UD1506      0.0000 
     26 O2'       -28.8760   -9.2430  -11.4270 O.3       1 UD1506      0.0000 
     27 C3B       -27.6000   -8.2930  -13.2350 C.3       1 UD1506      0.0000 
     28 C4B       -28.0610   -7.9080  -14.6240 C.3       1 UD1506      0.0000 
     29 O4B       -29.4100   -8.4020  -14.7740 O.3       1 UD1506      0.0000 
     30 O3B       -27.7540   -7.1160  -12.4100 O.3       1 UD1506      0.0000 
     31 C5B       -27.1920   -8.5270  -15.6950 C.3       1 UD1506      0.0000 
     32 O5B       -27.0980   -9.9110  -15.3660 O.3       1 UD1506      0.0000 
     33 PA        -25.6970  -10.7200  -15.4360 P.3       1 UD1506      0.0000 
     34 O1A       -25.9820  -12.1570  -15.0650 O.co2     1 UD1506      0.0000 
     35 O2A       -24.7150   -9.9650  -14.6120 O.co2     1 UD1506      0.0000 
     36 O3A       -25.2600  -10.6860  -16.9960 O.3       1 UD1506      0.0000 
     37 PB        -23.7370  -10.5590  -17.5530 P.3       1 UD1506      0.0000 
     38 O1B       -23.0100   -9.5200  -16.7700 O.co2     1 UD1506      0.0000 
     39 O2B       -23.1920  -11.9380  -17.8510 O.co2     1 UD1506      0.0000 
     40 H         -25.7383   -9.0556  -18.7001 H         1 UD1506      0.0000 
     41 H         -25.8555   -8.0143  -20.9160 H         1 UD1506      0.0000 
     42 H         -23.2475   -9.4428  -21.3945 H         1 UD1506      0.0000 
     43 H         -23.9134   -6.4973  -21.3197 H         1 UD1506      0.0000 
     44 H         -22.2197   -8.1114  -19.3903 H         1 UD1506      0.0000 
     45 H         -22.8448   -5.1937  -19.7876 H         1 UD1506      0.0000 
     46 H         -21.2842   -6.0209  -19.6450 H         1 UD1506      0.0000 
     47 H         -25.1409  -10.8735  -21.3500 H         1 UD1506      0.0000 
     48 H         -33.6510  -11.6494  -13.5572 H         1 UD1506      0.0000 
     49 H         -30.2799  -13.2484  -15.3935 H         1 UD1506      0.0000 
     50 H         -29.0415  -11.2507  -14.8710 H         1 UD1506      0.0000 
     51 H         -30.4563   -8.4017  -12.9863 H         1 UD1506      0.0000 
     52 H         -28.2224  -10.3130  -13.0834 H         1 UD1506      0.0000 
     53 H         -26.6431   -8.6691  -13.2697 H         1 UD1506      0.0000 
     54 H         -28.0401   -6.8426  -14.7161 H         1 UD1506      0.0000 
     55 H         -26.2260   -8.0396  -15.6769 H         1 UD1506      0.0000 
     56 H         -27.6664   -8.3699  -16.6548 H         1 UD1506      0.0000 
     57 H         -27.2825  -11.5383  -22.8692 H         1 UD1506      0.0000 
     58 H         -27.2770  -12.3301  -21.4695 H         1 UD1506      0.0000 
     59 H         -28.6021  -11.5559  -21.9502 H         1 UD1506      0.0000 
     60 H         -24.3228   -9.4355  -23.3094 H         1 UD1506      0.0000 
     61 H         -21.9266   -6.1550  -21.9293 H         1 UD1506      0.0000 
     62 H         -22.0834   -4.7846  -17.7279 H         1 UD1506      0.0000 
     63 H         -28.7725   -8.2677  -11.2316 H         1 UD1506      0.0000 
     64 H         -28.4255   -6.5505  -12.8889 H         1 UD1506      0.0000 
@<TRIPOS>BOND
     1    2    1 1    
     2   10    1 1    
     3   13    1 1    
     4   40    1 1    
     5    3    2 1    
     6    9    2 1    
     7   41    2 1    
     8    4    3 1    
     9   11    3 1    
    10   42    3 1    
    11    5    4 1    
    12   12    4 1    
    13   43    4 1    
    14    6    5 1    
    15   13    5 1    
    16   44    5 1    
    17   14    6 1    
    18   45    6 1    
    19   46    6 1    
    20    8    7 1    
    21    9    7 am   
    22   15    7 2    
    23   57    8 1    
    24   58    8 1    
    25   59    8 1    
    26   47    9 1    
    27   37   10 1    
    28   60   11 1    
    29   61   12 1    
    30   62   14 1    
    31   17   16 1    
    32   21   16 1    
    33   24   16 1    
    34   18   17 1    
    35   22   17 2    
    36   19   18 1    
    37   48   18 1    
    38   20   19 1    
    39   23   19 2    
    40   21   20 2    
    41   49   20 1    
    42   50   21 1    
    43   25   24 1    
    44   29   24 1    
    45   51   24 1    
    46   26   25 1    
    47   27   25 1    
    48   52   25 1    
    49   63   26 1    
    50   28   27 1    
    51   30   27 1    
    52   53   27 1    
    53   29   28 1    
    54   31   28 1    
    55   54   28 1    
    56   64   30 1    
    57   32   31 1    
    58   55   31 1    
    59   56   31 1    
    60   33   32 1    
    61   34   33 ar   
    62   35   33 ar   
    63   36   33 1    
    64   37   36 1    
    65   38   37 ar   
    66   39   37 ar   
@<TRIPOS>SUBSTRUCTURE
     1 UD1506      1 GROUP   
@<TRIPOS>SET

