#    Name: 3jsu_KA5_1_INTS_M
#    Modification time : Tue Mar 25 17:51:54 2014

@<TRIPOS>MOLECULE
3jsu_KA5_1_INTS_M
   66     0     9     0     0
SMALL
NO_CHARGES


@<TRIPOS>ATOM
      1 N          29.3865    7.0880   55.5365 N.am      2 SEC2        0.0000 
      2 N          29.6970    5.9360   56.3450 N.am      8 SEL2        0.0000 
      3 N          29.0760    8.2400   54.7280 N.am      5 SEP2        0.0000 
      4 CA         31.0250    3.0565   55.2170 C.3       3 GLC5        0.0000 
      5 CA         30.4850    5.0110   55.9090 C.3       9 GLL5        0.0000 
      6 CA         31.5650    1.1020   54.5250 C.3       6 GLP5        0.0000 
      7 CA         32.3835    4.5395   56.0960 C.3       3 GLC5        0.0000 
      8 CA         34.2820    4.0680   56.2830 C.3       6 GLP5        0.0000 
      9 CA         31.4745    6.5830   55.5475 C.3       3 GLC5        0.0000 
     10 CA         32.4640    8.1550   55.1860 C.3       6 GLP5        0.0000 
     11 CA         28.6270    4.3855   55.4465 C.3       3 GLC5        0.0000 
     12 CA         26.7690    3.7600   54.9840 C.3       6 GLP5        0.0000 
     13 CA         31.0325    2.0095   57.3315 C.3       3 GLC5        0.0000 
     14 CA         30.6260    4.0610   57.9560 C.3       9 GLL5        0.0000 
     15 CA         31.4390   -0.0420   56.7070 C.3       6 GLP5        0.0000 
     16 CA         32.4540    4.0645   57.1195 C.3       3 GLC5        0.0000 
     17 CA         28.0535    4.8630   56.2875 C.3       3 GLC5        0.0000 
     18 CA         29.3380    5.9660   57.5910 C.3       9 GLL5        0.0000 
     19 CA         28.1880    9.0295   59.6965 C.3       3 GLC5        0.0000 
     20 CA         28.0680    7.0960   59.2440 C.3       9 GLL5        0.0000 
     21 CA         28.3080   10.9630   60.1490 C.3       6 GLP5        0.0000 
     22 O          30.2610    6.0375   53.7955 O.2       1 ALC1        0.0000 
     23 O          30.8400    4.9960   54.6150 O.2       7 ALL1        0.0000 
     24 O          29.6820    7.0790   52.9760 O.2       4 ALP1        0.0000 
     25 O          32.4575    2.3765   58.1090 O.2       1 ALC1        0.0000 
     26 O          31.2040    3.0390   58.5980 O.2       7 ALL1        0.0000 
     27 O          33.7110    1.7140   57.6200 O.2       4 ALP1        0.0000 
     28 CA         28.4490    3.1150   60.0620 C.3       3 GLC5        0.0000 
     29 CA         29.7450    4.0200   61.1470 C.3       9 GLL5        0.0000 
     30 CA         27.1530    2.2100   58.9770 C.3       6 GLP5        0.0000 
     31 CA         30.0305    2.1565   61.4715 C.3       3 GLC5        0.0000 
     32 CA         30.3160    0.2930   61.7960 C.3       6 GLP5        0.0000 
     33 CA         31.3655    4.8925   61.1620 C.3       3 GLC5        0.0000 
     34 CA         32.9860    5.7650   61.1770 C.3       6 GLP5        0.0000 
     35 CA         27.8200    9.1870   61.1280 C.3       3 GLC5        0.0000 
     36 CA         27.3320    7.4110   62.1070 C.3       9 GLL5        0.0000 
     37 CA         26.6845    9.7730   61.0835 C.3       3 GLC5        0.0000 
     38 CA         25.0610    8.5830   62.0180 C.3       9 GLL5        0.0000 
     39 CA         27.1885   10.5465   61.8710 C.3       3 GLC5        0.0000 
     40 CA         26.0690   10.1300   63.5930 C.3       9 GLL5        0.0000 
     41 CA         25.3380    8.6285   65.0965 C.3       3 GLC5        0.0000 
     42 CA         24.6070    7.1270   66.6000 C.3       6 GLP5        0.0000 
     43 CA         24.3610    9.5175   64.4980 C.3       3 GLC5        0.0000 
     44 CA         22.6530    8.9050   65.4030 C.3       6 GLP5        0.0000 
     45 CA         20.9190    4.7865   62.3305 C.3       3 GLC5        0.0000 
     46 CA         21.9570    4.5890   60.8870 C.3       9 GLL5        0.0000 
     47 CA         19.8810    4.9840   63.7740 C.3       6 GLP5        0.0000 
     48 CA         22.4495    3.0795   61.7785 C.3       3 GLC5        0.0000 
     49 CA         22.9420    1.5700   62.6700 C.3       6 GLP5        0.0000 
     50 CA         26.6222    7.7625   57.9155 C.3       3 GLC5        0.0000 
     51 CA         24.9610    8.4830   57.2320 C.3       6 GLP5        0.0000 
     52 CA         26.2555    6.3730   63.7390 C.3       3 GLC5        0.0000 
     53 CA         25.8140    7.3990   61.9230 C.3       9 GLL5        0.0000 
     54 CA         25.9380    5.3410   65.4630 C.3       6 GLP5        0.0000 
     55 CA         24.6822    7.9398   60.1412 C.3       3 GLC5        0.0000 
     56 CA         23.8720    9.0760   58.5010 C.3       6 GLP5        0.0000 
     57 CA         23.9800    5.7973   63.3372 C.3       3 GLC5        0.0000 
     58 CA         25.1710    6.2080   61.6400 C.3       9 GLL5        0.0000 
     59 CA         23.4660    5.4430   65.1370 C.3       6 GLP5        0.0000 
     60 CA         23.6615    7.8797   59.9935 C.3       3 GLC5        0.0000 
     61 CA         23.8170    6.0950   61.4350 C.3       9 GLL5        0.0000 
     62 CA         23.4285    6.6587   63.4083 C.3       3 GLC5        0.0000 
     63 CA         23.0850    7.2720   61.5370 C.3       9 GLL5        0.0000 
     64 CA         24.1255    8.8030   60.2105 C.3       3 GLC5        0.0000 
     65 CA         23.6970    8.4770   61.8220 C.3       9 GLL5        0.0000 
     66 CA         23.4395    8.5669   63.6259 C.3       3 GLC5        0.0000 
@<TRIPOS>BOND
@<TRIPOS>SUBSTRUCTURE
     1 ALC1       22 GROUP        1 X    ALC  0     ROOT ALC X 1
     2 SEC2        1 GROUP        1 X    SEC  0     **** SEC X 2
     3 GLC5        4 GROUP        1 X    GLC  0     **** GLC X 6
     4 ALP1       24 GROUP        1 Y    ALP  0     ROOT ALP Y 8
     5 SEP2        3 GROUP        1 Y    SEP  0     **** SEP Y 9
     6 GLP5        6 GROUP        1 Y    GLP  0     **** GLP Y 13
     7 ALL1       23 GROUP        1 Z    ALL  0     ROOT ALL Z 15
     8 SEL2        2 GROUP        1 Z    SEL  0     **** SEL Z 16
     9 GLL5        5 GROUP        1 Z    GLL  0     **** GLL Z 20
@<TRIPOS>SET

