#    Name: 3jsu_KA5_1_ligand
#    Modification time : Tue Mar 25 17:51:55 2014

@<TRIPOS>MOLECULE
3jsu_KA5_1_ligand
   43    45     1     0     0
SMALL
NO_CHARGES


@<TRIPOS>ATOM
      1 N1         29.6970    5.9360   56.3450 N.ar      1 KA5609      0.0000 
      2 C2         30.4850    5.0110   55.9090 C.ar      1 KA5609      0.0000 
      3 N3         30.9370    4.1010   56.7000 N.ar      1 KA5609      0.0000 
      4 C4         30.6260    4.0610   57.9560 C.ar      1 KA5609      0.0000 
      5 C5         29.7820    5.0050   58.5270 C.ar      1 KA5609      0.0000 
      6 C6         29.3380    5.9660   57.5910 C.ar      1 KA5609      0.0000 
      7 C7         28.4990    6.9880   57.9540 C.ar      1 KA5609      0.0000 
      8 C8         28.0680    7.0960   59.2440 C.ar      1 KA5609      0.0000 
      9 C9         28.4680    6.1710   60.2080 C.ar      1 KA5609      0.0000 
     10 C10        29.3190    5.1290   59.8540 C.ar      1 KA5609      0.0000 
     11 N11        30.8400    4.9960   54.6150 N.pl3     1 KA5609      0.0000 
     12 N12        31.2040    3.0390   58.5980 N.pl3     1 KA5609      0.0000 
     13 CL13       29.7450    4.0200   61.1470 Cl        1 KA5609      0.0000 
     14 N14        28.0180    6.2680   61.5140 N.pl3     1 KA5609      0.0000 
     15 C15        27.3320    7.4110   62.1070 C.3       1 KA5609      0.0000 
     16 C16        25.8140    7.3990   61.9230 C.ar      1 KA5609      0.0000 
     17 C17        25.1710    6.2080   61.6400 C.ar      1 KA5609      0.0000 
     18 C18        23.8170    6.0950   61.4350 C.ar      1 KA5609      0.0000 
     19 C19        23.0850    7.2720   61.5370 C.ar      1 KA5609      0.0000 
     20 C20        23.6970    8.4770   61.8220 C.ar      1 KA5609      0.0000 
     21 C21        25.0610    8.5830   62.0180 C.ar      1 KA5609      0.0000 
     22 O22        25.6250    9.8340   62.2660 O.3       1 KA5609      0.0000 
     23 C23        26.0690   10.1300   63.5930 C.3       1 KA5609      0.0000 
     24 O24        23.3340    4.8300   61.1390 O.3       1 KA5609      0.0000 
     25 C25        21.9570    4.5890   60.8870 C.3       1 KA5609      0.0000 
     26 H          28.1930    7.6791   57.2439 H         1 KA5609      0.0000 
     27 H          27.4362    7.8691   59.5239 H         1 KA5609      0.0000 
     28 H          31.4747    4.2734   54.3412 H         1 KA5609      0.0000 
     29 H          30.4381    5.7088   54.0402 H         1 KA5609      0.0000 
     30 H          32.2037    3.0200   58.5849 H         1 KA5609      0.0000 
     31 H          30.5844    2.3859   59.0333 H         1 KA5609      0.0000 
     32 H          28.1739    5.4454   62.1700 H         1 KA5609      0.0000 
     33 H          27.7173    8.3614   61.6782 H         1 KA5609      0.0000 
     34 H          27.5402    7.4669   63.1975 H         1 KA5609      0.0000 
     35 H          25.7623    5.3297   61.5781 H         1 KA5609      0.0000 
     36 H          22.0556    7.2409   61.3952 H         1 KA5609      0.0000 
     37 H          23.1079    9.3396   61.8920 H         1 KA5609      0.0000 
     38 H          26.7794    9.4953   63.8972 H         1 KA5609      0.0000 
     39 H          26.4512   11.0517   63.6598 H         1 KA5609      0.0000 
     40 H          25.3223   10.0736   64.2557 H         1 KA5609      0.0000 
     41 H          21.6243    5.1177   60.1061 H         1 KA5609      0.0000 
     42 H          21.7793    3.6257   60.6858 H         1 KA5609      0.0000 
     43 H          21.3874    4.8346   61.6714 H         1 KA5609      0.0000 
@<TRIPOS>BOND
     1    2    1 ar   
     2    6    1 ar   
     3    3    2 ar   
     4   11    2 1    
     5    4    3 ar   
     6    5    4 ar   
     7   12    4 1    
     8    6    5 ar   
     9   10    5 ar   
    10    7    6 ar   
    11    8    7 ar   
    12   26    7 1    
    13    9    8 ar   
    14   27    8 1    
    15   10    9 ar   
    16   14    9 1    
    17   13   10 1    
    18   28   11 1    
    19   29   11 1    
    20   30   12 1    
    21   31   12 1    
    22   15   14 1    
    23   32   14 1    
    24   16   15 1    
    25   33   15 1    
    26   34   15 1    
    27   17   16 ar   
    28   21   16 ar   
    29   18   17 ar   
    30   35   17 1    
    31   19   18 ar   
    32   24   18 1    
    33   20   19 ar   
    34   36   19 1    
    35   21   20 ar   
    36   37   20 1    
    37   22   21 1    
    38   23   22 1    
    39   38   23 1    
    40   39   23 1    
    41   40   23 1    
    42   25   24 1    
    43   41   25 1    
    44   42   25 1    
    45   43   25 1    
@<TRIPOS>SUBSTRUCTURE
     1 KA5609      1 GROUP   
@<TRIPOS>SET

