#    Name: 3kah_4DH_1_INTS_M
#    Modification time : Mon Mar 24 19:03:51 2014

@<TRIPOS>MOLECULE
3kah_4DH_1_INTS_M
   63     0    12     0     0
SMALL
NO_CHARGES


@<TRIPOS>ATOM
      1 CA         29.9975  -24.9455  -14.7715 C.3       4 GLC5        0.0000 
      2 CA         32.1730  -24.7840  -14.4460 C.3      12 GLL5        0.0000 
      3 CA         27.8220  -25.1070  -15.0970 C.3       8 GLP5        0.0000 
      4 CA         32.2110  -22.6410  -17.9215 C.3       4 GLC5        0.0000 
      5 CA         33.0430  -23.9890  -16.5460 C.3      12 GLL5        0.0000 
      6 CA         31.3790  -21.2930  -19.2970 C.3       8 GLP5        0.0000 
      7 O          35.8595  -26.3230  -14.0090 O.2       1 ALC1        0.0000 
      8 O          35.6000  -25.9510  -15.1850 O.2       9 ALL1        0.0000 
      9 O          36.1190  -26.6950  -12.8330 O.2       5 ALP1        0.0000 
     10 CA         38.2665  -24.6340  -15.8890 C.3       4 GLC5        0.0000 
     11 CA         37.5980  -25.9760  -16.7640 C.3      12 GLL5        0.0000 
     12 CA         38.9350  -23.2920  -15.0140 C.3       8 GLP5        0.0000 
     13 CA         39.6590  -26.0940  -15.8750 C.3       4 GLC5        0.0000 
     14 CA         41.7200  -26.2120  -14.9860 C.3       8 GLP5        0.0000 
     15 CA         37.3285  -25.8590  -14.5685 C.3       4 GLC5        0.0000 
     16 CA         37.0590  -25.7420  -12.3730 C.3       8 GLP5        0.0000 
     17 N          39.6215  -26.0130  -20.3155 N.am      2 SEC2        0.0000 
     18 N          39.3330  -27.3840  -19.3510 N.am     10 SEL2        0.0000 
     19 N          39.9100  -24.6420  -21.2800 N.am      6 SEP2        0.0000 
     20 N          39.0735  -27.1490  -20.9010 N.am      2 SEC2        0.0000 
     21 N          38.8140  -26.9140  -22.4510 N.am      6 SEP2        0.0000 
     22 NZ         40.8390  -27.8195  -16.3715 N.4       3 LYC4        0.0000 
     23 NZ         39.7750  -27.9340  -17.3500 N.4      11 LYL4        0.0000 
     24 NZ         41.9030  -27.7050  -15.3930 N.4       7 LYP4        0.0000 
     25 N          40.8390  -27.8195  -16.3715 N.am      2 SEC2        0.0000 
     26 N          39.7750  -27.9340  -17.3500 N.am     10 SEL2        0.0000 
     27 N          41.9030  -27.7050  -15.3930 N.am      6 SEP2        0.0000 
     28 CA         33.7785  -24.6700  -20.6330 C.3       4 GLC5        0.0000 
     29 CA         34.8740  -26.5870  -20.4210 C.3      12 GLL5        0.0000 
     30 CA         32.6830  -22.7530  -20.8450 C.3       8 GLP5        0.0000 
     31 CA         35.7520  -24.1690  -22.2050 C.3       4 GLC5        0.0000 
     32 CA         35.5170  -26.2310  -21.5220 C.3      12 GLL5        0.0000 
     33 CA         35.9870  -22.1070  -22.8880 C.3       8 GLP5        0.0000 
     34 CA         32.6005  -24.7315  -20.2370 C.3       4 GLC5        0.0000 
     35 CA         32.5180  -26.7100  -19.6290 C.3      12 GLL5        0.0000 
     36 CA         30.7740  -26.0825  -18.6430 C.3       4 GLC5        0.0000 
     37 CA         29.0300  -25.4550  -17.6570 C.3       8 GLP5        0.0000 
     38 CA         37.8905  -26.0170  -23.7635 C.3       4 GLC5        0.0000 
     39 CA         35.9150  -25.7400  -24.3580 C.3      12 GLL5        0.0000 
     40 CA         39.8660  -26.2940  -23.1690 C.3       8 GLP5        0.0000 
     41 CA         37.8315  -25.3825  -26.6385 C.3       4 GLC5        0.0000 
     42 CA         36.1120  -25.2820  -25.6560 C.3      12 GLL5        0.0000 
     43 CA         39.5510  -25.4830  -27.6210 C.3       8 GLP5        0.0000 
     44 CA         35.3030  -22.3625  -26.8970 C.3       4 GLC5        0.0000 
     45 CA         35.1530  -24.4780  -26.2620 C.3      12 GLL5        0.0000 
     46 CA         35.4530  -20.2470  -27.5320 C.3       8 GLP5        0.0000 
     47 CA         30.7795  -24.7360  -16.8682 C.3       4 GLC5        0.0000 
     48 CA         30.9725  -23.2598  -13.6797 C.3       4 GLC5        0.0000 
     49 CA         32.0150  -24.0450  -15.6130 C.3      12 GLL5        0.0000 
     50 CA         29.8510  -22.1050  -12.3300 C.3       8 GLP5        0.0000 
     51 CA         32.0628  -26.1775  -13.0518 C.3       4 GLC5        0.0000 
     52 CA         31.3590  -27.2290  -11.7750 C.3       8 GLP5        0.0000 
     53 CA         35.4663  -25.5907  -13.5257 C.3       4 GLC5        0.0000 
     54 CA         33.3600  -25.4680  -14.2110 C.3      12 GLL5        0.0000 
     55 CA         37.3695  -25.1283  -18.5085 C.3       4 GLC5        0.0000 
     56 CA         37.1650  -23.7020  -19.7530 C.3       8 GLP5        0.0000 
     57 CA         36.1803  -25.0555  -20.3622 C.3       4 GLC5        0.0000 
     58 CA         33.4813  -23.8738  -22.4080 C.3       4 GLC5        0.0000 
     59 CA         33.8000  -24.5930  -24.2740 C.3      12 GLL5        0.0000 
     60 CA         36.4551  -23.6608  -24.6313 C.3       4 GLC5        0.0000 
     61 CA         37.3270  -22.3270  -23.6280 C.3       8 GLP5        0.0000 
     62 CA         35.0626  -23.3356  -23.8298 C.3       4 GLC5        0.0000 
     63 CA         34.7590  -25.3960  -23.6680 C.3      12 GLL5        0.0000 
@<TRIPOS>BOND
@<TRIPOS>SUBSTRUCTURE
     1 ALC1        7 GROUP        1 X    ALC  0     ROOT ALC X 1
     2 SEC2       17 GROUP        1 X    SEC  0     **** SEC X 2
     3 LYC4       22 GROUP        1 X    LYC  0     **** LYC X 4
     4 GLC5        1 GROUP        1 X    GLC  0     **** GLC X 6
     5 ALP1        9 GROUP        1 Y    ALP  0     ROOT ALP Y 8
     6 SEP2       19 GROUP        1 Y    SEP  0     **** SEP Y 9
     7 LYP4       24 GROUP        1 Y    LYP  0     **** LYP Y 11
     8 GLP5        3 GROUP        1 Y    GLP  0     **** GLP Y 13
     9 ALL1        8 GROUP        1 Z    ALL  0     ROOT ALL Z 15
    10 SEL2       18 GROUP        1 Z    SEL  0     **** SEL Z 16
    11 LYL4       23 GROUP        1 Z    LYL  0     **** LYL Z 18
    12 GLL5        2 GROUP        1 Z    GLL  0     **** GLL Z 20
@<TRIPOS>SET

