#    Name: 3kah_4DH_1_ligand
#    Modification time : Mon Mar 24 19:03:51 2014

@<TRIPOS>MOLECULE
3kah_4DH_1_ligand
   47    50     1     0     0
SMALL
NO_CHARGES


@<TRIPOS>ATOM
      1 C1         32.0150  -24.0450  -15.6130 C.ar      1 4DH165      0.0000 
      2 C2         32.1730  -24.7840  -14.4460 C.ar      1 4DH165      0.0000 
      3 C3         33.3600  -25.4680  -14.2110 C.ar      1 4DH165      0.0000 
      4 C4         33.0430  -23.9890  -16.5460 C.ar      1 4DH165      0.0000 
      5 N5         35.3530  -24.7970  -17.0060 N.2       1 4DH165      0.0000 
      6 C6         34.2290  -24.6740  -16.3090 C.ar      1 4DH165      0.0000 
      7 C7         34.3870  -25.4110  -15.1460 C.ar      1 4DH165      0.0000 
      8 N8         35.6000  -25.9510  -15.1850 N.pl3     1 4DH165      0.0000 
      9 C9         36.1900  -25.5760  -16.3200 C.2       1 4DH165      0.0000 
     10 C10        37.5980  -25.9760  -16.7640 C.3       1 4DH165      0.0000 
     11 C11        37.5500  -27.1330  -17.7640 C.3       1 4DH165      0.0000 
     12 C12        38.9740  -27.5070  -18.1810 C.2       1 4DH165      0.0000 
     13 O13        39.3330  -27.3840  -19.3510 O.co2     1 4DH165      0.0000 
     14 O14        39.7750  -27.9340  -17.3500 O.co2     1 4DH165      0.0000 
     15 N15        36.7820  -26.7260  -18.9490 N.am      1 4DH165      0.0000 
     16 C16        35.5200  -27.1020  -19.1330 C.2       1 4DH165      0.0000 
     17 C17        34.8740  -26.5870  -20.4210 C.2       1 4DH165      0.0000 
     18 O18        34.8900  -27.8080  -18.3480 O.2       1 4DH165      0.0000 
     19 N19        33.5760  -26.4220  -20.6240 N.pl3     1 4DH165      0.0000 
     20 N20        33.3790  -25.9940  -21.7610 N.2       1 4DH165      0.0000 
     21 C21        34.5610  -25.8550  -22.3710 C.2       1 4DH165      0.0000 
     22 C22        35.5170  -26.2310  -21.5220 C.2       1 4DH165      0.0000 
     23 C23        32.5180  -26.7100  -19.6290 C.3       1 4DH165      0.0000 
     24 C24        34.7590  -25.3960  -23.6680 C.ar      1 4DH165      0.0000 
     25 C25        35.9150  -25.7400  -24.3580 C.ar      1 4DH165      0.0000 
     26 C26        36.1120  -25.2820  -25.6560 C.ar      1 4DH165      0.0000 
     27 C27        35.1530  -24.4780  -26.2620 C.ar      1 4DH165      0.0000 
     28 C28        33.9970  -24.1340  -25.5720 C.ar      1 4DH165      0.0000 
     29 C29        33.8000  -24.5930  -24.2740 C.ar      1 4DH165      0.0000 
     30 H          31.1357  -23.5392  -15.7855 H         1 4DH165      0.0000 
     31 H          31.4110  -24.8245  -13.7562 H         1 4DH165      0.0000 
     32 H          33.4780  -26.0139  -13.3491 H         1 4DH165      0.0000 
     33 H          32.9272  -23.4431  -17.4084 H         1 4DH165      0.0000 
     34 H          35.9930  -26.5226  -14.5034 H         1 4DH165      0.0000 
     35 H          38.1765  -26.2792  -15.8925 H         1 4DH165      0.0000 
     36 H          38.0843  -25.1198  -17.2294 H         1 4DH165      0.0000 
     37 H          37.0966  -27.9786  -17.2906 H         1 4DH165      0.0000 
     38 H          37.2936  -26.1264  -19.6290 H         1 4DH165      0.0000 
     39 H          36.4562  -26.2396  -21.6786 H         1 4DH165      0.0000 
     40 H          36.6250  -26.3333  -23.9091 H         1 4DH165      0.0000 
     41 H          36.9664  -25.5377  -26.1675 H         1 4DH165      0.0000 
     42 H          35.2998  -24.1379  -27.2217 H         1 4DH165      0.0000 
     43 H          33.2872  -23.5404  -26.0203 H         1 4DH165      0.0000 
     44 H          32.9448  -24.3381  -23.7631 H         1 4DH165      0.0000 
     45 H          32.5234  -27.6698  -19.3484 H         1 4DH165      0.0000 
     46 H          32.6286  -26.1617  -18.8001 H         1 4DH165      0.0000 
     47 H          31.6059  -26.5152  -19.9898 H         1 4DH165      0.0000 
@<TRIPOS>BOND
     1    2    1 ar   
     2    4    1 ar   
     3   30    1 1    
     4    3    2 ar   
     5   31    2 1    
     6    7    3 ar   
     7   32    3 1    
     8    6    4 ar   
     9   33    4 1    
    10    6    5 1    
    11    9    5 2    
    12    7    6 ar   
    13    8    7 1    
    14    9    8 1    
    15   34    8 1    
    16   10    9 1    
    17   11   10 1    
    18   35   10 1    
    19   36   10 1    
    20   12   11 1    
    21   15   11 1    
    22   37   11 1    
    23   13   12 ar   
    24   14   12 ar   
    25   16   15 am   
    26   38   15 1    
    27   17   16 1    
    28   18   16 2    
    29   19   17 1    
    30   22   17 2    
    31   20   19 1    
    32   23   19 1    
    33   21   20 2    
    34   22   21 1    
    35   24   21 1    
    36   39   22 1    
    37   45   23 1    
    38   46   23 1    
    39   47   23 1    
    40   25   24 ar   
    41   29   24 ar   
    42   26   25 ar   
    43   40   25 1    
    44   27   26 ar   
    45   41   26 1    
    46   28   27 ar   
    47   42   27 1    
    48   29   28 ar   
    49   43   28 1    
    50   44   29 1    
@<TRIPOS>SUBSTRUCTURE
     1 4DH165      1 GROUP   
@<TRIPOS>SET

