#    Name: 3amb_VX6_1_INTS_M
#    Modification time : Mon Mar 24 17:49:17 2014

@<TRIPOS>MOLECULE
3amb_VX6_1_INTS_M
   70     0     9     0     0
SMALL
NO_CHARGES


@<TRIPOS>ATOM
      1 O         -32.1980   -9.5030  -15.4405 O.2       1 ALC1        0.0000 
      2 O         -31.7510   -8.4810  -14.4850 O.2       7 ALL1        0.0000 
      3 O         -32.6450  -10.5250  -16.3960 O.2       4 ALP1        0.0000 
      4 CA        -30.7415  -11.5910  -13.2800 C.3       3 GLC5        0.0000 
      5 CA        -30.1980   -9.7380  -13.0020 C.3       9 GLL5        0.0000 
      6 CA        -31.2850  -13.4440  -13.5580 C.3       6 GLP5        0.0000 
      7 CA        -32.5425  -11.2490  -12.5935 C.3       3 GLC5        0.0000 
      8 CA        -32.6870   -9.3550  -12.4020 C.3       9 GLL5        0.0000 
      9 CA        -32.3980  -13.1430  -12.7850 C.3       6 GLP5        0.0000 
     10 CA        -31.9255   -8.5765  -17.0295 C.3       3 GLC5        0.0000 
     11 CA        -31.8180   -7.3730  -15.4420 C.3       9 GLL5        0.0000 
     12 CA        -32.0330   -9.7800  -18.6170 C.3       6 GLP5        0.0000 
     13 CA        -31.3305  -11.8010   -7.6620 C.3       3 GLC5        0.0000 
     14 CA        -31.5570   -9.8070   -8.2360 C.3       9 GLL5        0.0000 
     15 CA        -31.1040  -13.7950   -7.0880 C.3       6 GLP5        0.0000 
     16 CA        -30.1215  -11.8735   -9.2720 C.3       3 GLC5        0.0000 
     17 CA        -29.3410  -10.0380   -8.9290 C.3       9 GLL5        0.0000 
     18 CA        -30.9020  -13.7090   -9.6150 C.3       6 GLP5        0.0000 
     19 CA        -30.4370   -8.1115   -9.2935 C.3       3 GLC5        0.0000 
     20 CA        -31.5330   -6.1850   -9.6580 C.3       6 GLP5        0.0000 
     21 O         -33.6940   -8.9305   -7.6620 O.2       1 ALC1        0.0000 
     22 O         -32.5020   -9.7340   -7.2890 O.2       7 ALL1        0.0000 
     23 O         -34.8860   -8.1270   -8.0350 O.2       4 ALP1        0.0000 
     24 CA        -33.8135   -8.1850   -5.7990 C.3       3 GLC5        0.0000 
     25 CA        -32.3900   -9.8650   -5.9520 C.3       9 GLL5        0.0000 
     26 CA        -35.2370   -6.5050   -5.6460 C.3       6 GLP5        0.0000 
     27 N         -34.5970   -9.3415   -4.7325 N.am      2 SEC2        0.0000 
     28 N         -33.1240   -9.8830   -3.9940 N.am      8 SEL2        0.0000 
     29 N         -36.0700   -8.8000   -5.4710 N.am      5 SEP2        0.0000 
     30 CA        -31.7735  -11.9795   -3.0500 C.3       3 GLC5        0.0000 
     31 CA        -31.0840  -10.3970   -2.6180 C.3       9 GLL5        0.0000 
     32 CA        -32.4630  -13.5620   -3.4820 C.3       6 GLP5        0.0000 
     33 CA        -30.9345  -11.1685   -0.6775 C.3       3 GLC5        0.0000 
     34 CA        -30.7850  -11.9400    1.2630 C.3       6 GLP5        0.0000 
     35 CA        -31.5905   -8.5685   -3.0215 C.3       3 GLC5        0.0000 
     36 CA        -32.0970   -6.7400   -3.4250 C.3       6 GLP5        0.0000 
     37 CA        -28.2660  -12.2060   -8.3810 C.3       3 GLC5        0.0000 
     38 CA        -27.6470  -10.2770   -8.5870 C.3       9 GLL5        0.0000 
     39 CA        -28.8850  -14.1350   -8.1750 C.3       6 GLP5        0.0000 
     40 CA        -27.6595   -6.5155   -6.7610 C.3       3 GLC5        0.0000 
     41 CA        -27.4550   -8.6800   -6.3420 C.3       9 GLL5        0.0000 
     42 CA        -27.8640   -4.3510   -7.1800 C.3       6 GLP5        0.0000 
     43 CA        -28.1350  -12.5960   -7.0680 C.3       3 GLC5        0.0000 
     44 CA        -27.3850  -11.0570   -5.9610 C.3       9 GLL5        0.0000 
     45 CA        -29.2980  -10.9340    1.0055 C.3       3 GLC5        0.0000 
     46 CA        -27.8110   -9.9280    0.7480 C.3       9 GLL5        0.0000 
     47 CA        -27.3295   -8.2990    1.7320 C.3       3 GLC5        0.0000 
     48 CA        -26.8480   -6.6700    2.7160 C.3       6 GLP5        0.0000 
     49 CA        -32.1085   -7.4735  -11.2727 C.3       3 GLC5        0.0000 
     50 CA        -31.1780  -11.7163   -9.8488 C.3       3 GLC5        0.0000 
     51 CA        -30.9690   -9.7570  -10.5850 C.3       9 GLL5        0.0000 
     52 CA        -31.5192   -7.9751   -9.4086 C.3       3 GLC5        0.0000 
     53 CA        -31.4785  -11.8972   -6.3257 C.3       3 GLC5        0.0000 
     54 CA        -32.1580  -11.7807   -4.5228 C.3       3 GLC5        0.0000 
     55 CA        -31.3160  -10.1340   -5.1750 C.3       9 GLL5        0.0000 
     56 CA        -31.9750   -8.3697   -4.4942 C.3       3 GLC5        0.0000 
     57 CA        -28.9447   -7.2440   -5.3745 C.3       3 GLC5        0.0000 
     58 CA        -27.3360   -8.4440   -4.9640 C.3       9 GLL5        0.0000 
     59 CA        -30.4940   -5.9260   -5.0960 C.3       6 GLP5        0.0000 
     60 CA        -27.9728  -12.6457   -4.4953 C.3       3 GLC5        0.0000 
     61 CA        -27.2500  -10.8220   -4.5880 C.3       9 GLL5        0.0000 
     62 CA        -28.6280  -14.3520   -3.7160 C.3       6 GLP5        0.0000 
     63 CA        -28.5188   -8.0040   -0.1603 C.3       3 GLC5        0.0000 
     64 CA        -26.9200   -9.4060   -0.3990 C.3       9 GLL5        0.0000 
     65 CA        -29.6720   -6.3410   -0.4950 C.3       6 GLP5        0.0000 
     66 CA        -26.0865   -8.2035    1.0217 C.3       3 GLC5        0.0000 
     67 CA        -25.5580   -6.5660    1.8900 C.3       6 GLP5        0.0000 
     68 CA        -26.6527  -11.8180    1.4230 C.3       3 GLC5        0.0000 
     69 CA        -26.3100  -10.2760    0.7060 C.3       9 GLL5        0.0000 
     70 CA        -26.2450  -13.5340    2.1190 C.3       6 GLP5        0.0000 
@<TRIPOS>BOND
@<TRIPOS>SUBSTRUCTURE
     1 ALC1        1 GROUP        1 X    ALC  0     ROOT ALC X 1
     2 SEC2       27 GROUP        1 X    SEC  0     **** SEC X 2
     3 GLC5        4 GROUP        1 X    GLC  0     **** GLC X 6
     4 ALP1        3 GROUP        1 Y    ALP  0     ROOT ALP Y 8
     5 SEP2       29 GROUP        1 Y    SEP  0     **** SEP Y 9
     6 GLP5        6 GROUP        1 Y    GLP  0     **** GLP Y 13
     7 ALL1        2 GROUP        1 Z    ALL  0     ROOT ALL Z 15
     8 SEL2       28 GROUP        1 Z    SEL  0     **** SEL Z 16
     9 GLL5        5 GROUP        1 Z    GLL  0     **** GLL Z 20
@<TRIPOS>SET

