#    Name: 3amb_VX6_1_ligand
#    Modification time : Mon Mar 24 17:49:17 2014

@<TRIPOS>MOLECULE
3amb_VX6_1_ligand
   62    66     1     0     0
SMALL
NO_CHARGES


@<TRIPOS>ATOM
      1 N1        -31.7510   -8.4810  -14.4850 N.4       1 VX6351      0.0000 
      2 C2        -30.3410   -8.6250  -14.0490 C.3       1 VX6351      0.0000 
      3 C3        -30.1980   -9.7380  -13.0020 C.3       1 VX6351      0.0000 
      4 N4        -31.2820   -9.6310  -11.9610 N.3       1 VX6351      0.0000 
      5 C5        -32.6870   -9.3550  -12.4020 C.3       1 VX6351      0.0000 
      6 C6        -32.6810   -8.1690  -13.3730 C.3       1 VX6351      0.0000 
      7 C7        -31.8180   -7.3730  -15.4420 C.3       1 VX6351      0.0000 
      8 C8        -30.9690   -9.7570  -10.5850 C.ar      1 VX6351      0.0000 
      9 C9        -31.9390   -9.6900   -9.5800 C.ar      1 VX6351      0.0000 
     10 C10       -31.5570   -9.8070   -8.2360 C.ar      1 VX6351      0.0000 
     11 N11       -30.2570   -9.9800   -7.9470 N.ar      1 VX6351      0.0000 
     12 C12       -29.3410  -10.0380   -8.9290 C.ar      1 VX6351      0.0000 
     13 N13       -29.6900   -9.9290  -10.2220 N.ar      1 VX6351      0.0000 
     14 N14       -32.5020   -9.7340   -7.2890 N.pl3     1 VX6351      0.0000 
     15 C15       -32.3900   -9.8650   -5.9520 C.2       1 VX6351      0.0000 
     16 C17       -31.3160  -10.1340   -5.1750 C.2       1 VX6351      0.0000 
     17 C18       -31.8230  -10.1420   -3.9400 C.2       1 VX6351      0.0000 
     18 N19       -33.1240   -9.8830   -3.9940 N.2       1 VX6351      0.0000 
     19 N20       -33.4480   -9.7080   -5.1670 N.pl3     1 VX6351      0.0000 
     20 C21       -31.0840  -10.3970   -2.6180 C.3       1 VX6351      0.0000 
     21 S23       -27.6470  -10.2770   -8.5870 S.3       1 VX6351      0.0000 
     22 C24       -27.4980   -9.9830   -6.8400 C.ar      1 VX6351      0.0000 
     23 C25       -27.4550   -8.6800   -6.3420 C.ar      1 VX6351      0.0000 
     24 C26       -27.3360   -8.4440   -4.9640 C.ar      1 VX6351      0.0000 
     25 C27       -27.2350   -9.5170   -4.0760 C.ar      1 VX6351      0.0000 
     26 C28       -27.2500  -10.8220   -4.5880 C.ar      1 VX6351      0.0000 
     27 C29       -27.3850  -11.0570   -5.9610 C.ar      1 VX6351      0.0000 
     28 N30       -27.0940   -9.2430   -2.7640 N.am      1 VX6351      0.0000 
     29 C31       -27.1420  -10.0870   -1.7350 C.2       1 VX6351      0.0000 
     30 O32       -27.3650  -11.3040   -1.7980 O.2       1 VX6351      0.0000 
     31 C33       -26.9200   -9.4060   -0.3990 C.3       1 VX6351      0.0000 
     32 C34       -27.8110   -9.9280    0.7480 C.3       1 VX6351      0.0000 
     33 C35       -26.3100  -10.2760    0.7060 C.3       1 VX6351      0.0000 
     34 H         -32.0719   -9.3858  -14.9811 H         1 VX6351      0.0000 
     35 H         -29.9799   -7.6903  -13.6095 H         1 VX6351      0.0000 
     36 H         -29.7008   -8.8701  -14.9018 H         1 VX6351      0.0000 
     37 H         -29.2201   -9.6513  -12.5293 H         1 VX6351      0.0000 
     38 H         -30.2607  -10.7027  -13.5048 H         1 VX6351      0.0000 
     39 H         -33.3057   -9.1050  -11.5480 H         1 VX6351      0.0000 
     40 H         -33.0976  -10.2204  -12.9090 H         1 VX6351      0.0000 
     41 H         -33.6871   -8.0215  -13.7459 H         1 VX6351      0.0000 
     42 H         -32.3550   -7.2853  -12.8384 H         1 VX6351      0.0000 
     43 H         -32.9239   -9.5562   -9.8227 H         1 VX6351      0.0000 
     44 H         -33.5306   -9.5364   -7.6569 H         1 VX6351      0.0000 
     45 H         -30.4323  -10.2784   -5.4489 H         1 VX6351      0.0000 
     46 H         -34.3538   -9.4805   -5.5314 H         1 VX6351      0.0000 
     47 H         -27.5110   -7.8812   -6.9899 H         1 VX6351      0.0000 
     48 H         -27.3235   -7.4808   -4.6113 H         1 VX6351      0.0000 
     49 H         -27.1600  -11.6215   -3.9412 H         1 VX6351      0.0000 
     50 H         -27.4003  -12.0190   -6.3157 H         1 VX6351      0.0000 
     51 H         -26.9165   -8.1835   -2.5171 H         1 VX6351      0.0000 
     52 H         -26.7166   -8.5164   -0.2120 H         1 VX6351      0.0000 
     53 H         -28.2781  -10.6753    0.4164 H         1 VX6351      0.0000 
     54 H         -27.9144   -9.2207    1.3608 H         1 VX6351      0.0000 
     55 H         -25.8736   -9.6993    1.3121 H         1 VX6351      0.0000 
     56 H         -26.2373  -11.1539    0.3677 H         1 VX6351      0.0000 
     57 H         -31.5082   -6.5129  -15.0367 H         1 VX6351      0.0000 
     58 H         -31.2466   -7.5410  -16.2453 H         1 VX6351      0.0000 
     59 H         -32.7501   -7.2228  -15.7716 H         1 VX6351      0.0000 
     60 H         -30.6570  -11.3011   -2.5996 H         1 VX6351      0.0000 
     61 H         -30.3582   -9.7268   -2.4630 H         1 VX6351      0.0000 
     62 H         -31.7007  -10.3481   -1.8323 H         1 VX6351      0.0000 
@<TRIPOS>BOND
     1    2    1 1    
     2    6    1 1    
     3    7    1 1    
     4   34    1 1    
     5    3    2 1    
     6   35    2 1    
     7   36    2 1    
     8    4    3 1    
     9   37    3 1    
    10   38    3 1    
    11    5    4 1    
    12    8    4 1    
    13    6    5 1    
    14   39    5 1    
    15   40    5 1    
    16   41    6 1    
    17   42    6 1    
    18   57    7 1    
    19   58    7 1    
    20   59    7 1    
    21    9    8 ar   
    22   13    8 ar   
    23   10    9 ar   
    24   43    9 1    
    25   11   10 ar   
    26   14   10 1    
    27   12   11 ar   
    28   13   12 ar   
    29   21   12 1    
    30   15   14 1    
    31   44   14 1    
    32   16   15 2    
    33   19   15 1    
    34   17   16 1    
    35   45   16 1    
    36   18   17 2    
    37   20   17 1    
    38   19   18 1    
    39   46   19 1    
    40   60   20 1    
    41   61   20 1    
    42   62   20 1    
    43   22   21 1    
    44   23   22 ar   
    45   27   22 ar   
    46   24   23 ar   
    47   47   23 1    
    48   25   24 ar   
    49   48   24 1    
    50   26   25 ar   
    51   28   25 1    
    52   27   26 ar   
    53   49   26 1    
    54   50   27 1    
    55   29   28 am   
    56   51   28 1    
    57   30   29 2    
    58   31   29 1    
    59   32   31 1    
    60   33   31 1    
    61   52   31 1    
    62   33   32 1    
    63   53   32 1    
    64   54   32 1    
    65   55   33 1    
    66   56   33 1    
@<TRIPOS>SUBSTRUCTURE
     1 VX6351      1 GROUP   
@<TRIPOS>SET

