#    Name: 3qx2_X63_1_INTS_M
#    Modification time : Tue Mar 25 10:20:08 2014

@<TRIPOS>MOLECULE
3qx2_X63_1_INTS_M
   51     0     9     0     0
SMALL
NO_CHARGES


@<TRIPOS>ATOM
      1 O          76.5520   30.7295   65.2130 O.2       1 ALC1        0.0000 
      2 O          77.3910   29.9470   64.2970 O.2       7 ALL1        0.0000 
      3 O          75.7130   31.5120   66.1290 O.2       4 ALP1        0.0000 
      4 O          80.5130   34.0120   64.8625 O.2       1 ALC1        0.0000 
      5 O          80.5380   32.6440   64.2860 O.2       7 ALL1        0.0000 
      6 O          80.4880   35.3800   65.4390 O.2       4 ALP1        0.0000 
      7 N          75.5055   24.7455   64.1745 N.am      2 SEC2        0.0000 
      8 N          75.7650   25.6170   65.3740 N.am      8 SEL2        0.0000 
      9 N          75.2460   23.8740   62.9750 N.am      5 SEP2        0.0000 
     10 CA         80.0115   29.3030   65.9220 C.3       3 GLC5        0.0000 
     11 CA         79.7370   30.4040   64.0270 C.3       9 GLL5        0.0000 
     12 CA         80.2860   28.2020   67.8170 C.3       6 GLP5        0.0000 
     13 CA         77.8105   29.4015   61.9295 C.3       3 GLC5        0.0000 
     14 CA         78.7440   28.2780   63.2120 C.3       9 GLL5        0.0000 
     15 CA         76.8770   30.5250   60.6470 C.3       6 GLP5        0.0000 
     16 CA         75.4765   28.4390   62.1185 C.3       3 GLC5        0.0000 
     17 CA         76.0970   29.2060   64.1160 C.3       9 GLL5        0.0000 
     18 CA         74.8560   27.6720   60.1210 C.3       6 GLP5        0.0000 
     19 CA         76.4870   29.8655   62.3815 C.3       3 GLC5        0.0000 
     20 CA         75.0190   24.8420   64.0685 C.3       3 GLC5        0.0000 
     21 CA         75.8010   26.7230   64.5780 C.3       9 GLL5        0.0000 
     22 CA         74.2370   22.9610   63.5590 C.3       6 GLP5        0.0000 
     23 CA         77.8445   25.8795   66.2485 C.3       3 GLC5        0.0000 
     24 CA         75.9850   25.8300   66.7060 C.3       9 GLL5        0.0000 
     25 CA         79.7040   25.9290   65.7910 C.3       6 GLP5        0.0000 
     26 CA         74.7050   29.5955   66.7640 C.3       3 GLC5        0.0000 
     27 CA         76.2490   28.1110   66.4290 C.3       9 GLL5        0.0000 
     28 CA         73.1610   31.0800   67.0990 C.3       6 GLP5        0.0000 
     29 CA         79.0965   25.4025   63.7420 C.3       3 GLC5        0.0000 
     30 CA         78.4890   24.8760   61.6930 C.3       9 GLL5        0.0000 
     31 N          77.8215   32.9080   65.8685 N.am      2 SEC2        0.0000 
     32 N          78.8180   31.9130   65.4810 N.am      8 SEL2        0.0000 
     33 N          76.8250   33.9030   66.2560 N.am      5 SEP2        0.0000 
     34 N          84.0935   29.9765   62.4575 N.am      2 SEC2        0.0000 
     35 N          83.4010   28.9350   62.8380 N.am      8 SEL2        0.0000 
     36 N          84.7860   31.0180   62.0770 N.am      5 SEP2        0.0000 
     37 CA         82.5428   28.5900   64.5248 C.3       3 GLC5        0.0000 
     38 CA         81.1570   28.6690   62.8970 C.3       9 GLL5        0.0000 
     39 CA         84.0010   27.8710   65.8300 C.3       6 GLP5        0.0000 
     40 CA         81.4038   30.9898   65.3073 C.3       3 GLC5        0.0000 
     41 CA         81.0120   29.9490   63.5420 C.3       9 GLL5        0.0000 
     42 CA         82.4330   31.8030   66.8300 C.3       6 GLP5        0.0000 
     43 CA         79.1820   27.4220   64.6637 C.3       3 GLC5        0.0000 
     44 CA         78.5760   29.5520   63.8610 C.3       9 GLL5        0.0000 
     45 CA         78.8226   31.1556   62.7129 C.3       3 GLC5        0.0000 
     46 CA         78.1700   32.4470   61.6030 C.3       6 GLP5        0.0000 
     47 CA         80.1418   27.0902   64.3037 C.3       3 GLC5        0.0000 
     48 CA         74.1606   28.4348   64.2460 C.3       3 GLC5        0.0000 
     49 CA         72.3860   29.2030   63.9120 C.3       6 GLP5        0.0000 
     50 CA         77.8946   26.8344   65.7060 C.3       3 GLC5        0.0000 
     51 CA         76.0420   28.0140   65.0480 C.3       9 GLL5        0.0000 
@<TRIPOS>BOND
@<TRIPOS>SUBSTRUCTURE
     1 ALC1        1 GROUP        1 X    ALC  0     ROOT ALC X 1
     2 SEC2        7 GROUP        1 X    SEC  0     **** SEC X 2
     3 GLC5       10 GROUP        1 X    GLC  0     **** GLC X 6
     4 ALP1        3 GROUP        1 Y    ALP  0     ROOT ALP Y 8
     5 SEP2        9 GROUP        1 Y    SEP  0     **** SEP Y 9
     6 GLP5       12 GROUP        1 Y    GLP  0     **** GLP Y 13
     7 ALL1        2 GROUP        1 Z    ALL  0     ROOT ALL Z 15
     8 SEL2        8 GROUP        1 Z    SEL  0     **** SEL Z 16
     9 GLL5       11 GROUP        1 Z    GLL  0     **** GLL Z 20
@<TRIPOS>SET

