#    Name: 3qx2_X63_1_ligand
#    Modification time : Tue Mar 25 10:20:08 2014

@<TRIPOS>MOLECULE
3qx2_X63_1_ligand
   42    43     1     0     0
SMALL
NO_CHARGES


@<TRIPOS>ATOM
      1 N01        77.3910   29.9470   64.2970 N.pl3     1 X63300      0.0000 
      2 N02        80.5380   32.6440   64.2860 N.am      1 X63300      0.0000 
      3 N03        75.7650   25.6170   65.3740 N.ar      1 X63300      0.0000 
      4 N04        76.2240   27.0380   67.2720 N.ar      1 X63300      0.0000 
      5 N05        80.1010   26.6700   62.1580 N.pl3     1 X63300      0.0000 
      6 N06        75.9660   24.8090   67.4810 N.pl3     1 X63300      0.0000 
      7 N07        82.3120   28.2910   62.4750 N.pl3     1 X63300      0.0000 
      8 C08        81.0120   29.9490   63.5420 C.ar      1 X63300      0.0000 
      9 C09        79.7370   30.4040   64.0270 C.ar      1 X63300      0.0000 
     10 C10        78.5760   29.5520   63.8610 C.ar      1 X63300      0.0000 
     11 C11        78.7440   28.2780   63.2120 C.ar      1 X63300      0.0000 
     12 C12        80.0020   27.8340   62.7360 C.ar      1 X63300      0.0000 
     13 C13        81.1570   28.6690   62.8970 C.ar      1 X63300      0.0000 
     14 C14        79.6600   31.6590   64.6360 C.2       1 X63300      0.0000 
     15 C15        76.0970   29.2060   64.1160 C.3       1 X63300      0.0000 
     16 C16        76.0420   28.0140   65.0480 C.ar      1 X63300      0.0000 
     17 C17        75.8010   26.7230   64.5780 C.ar      1 X63300      0.0000 
     18 C18        75.9850   25.8300   66.7060 C.ar      1 X63300      0.0000 
     19 C19        76.2490   28.1110   66.4290 C.ar      1 X63300      0.0000 
     20 C20        79.0820   26.1850   61.1910 C.3       1 X63300      0.0000 
     21 C21        78.4890   24.8760   61.6930 C.3       1 X63300      0.0000 
     22 O22        78.8180   31.9130   65.4810 O.2       1 X63300      0.0000 
     23 O23        79.5180   23.9300   61.8410 O.3       1 X63300      0.0000 
     24 O24        82.4410   27.2560   61.6720 O.2       1 X63300      0.0000 
     25 O25        83.4010   28.9350   62.8380 O.2       1 X63300      0.0000 
     26 H          77.2715   30.8612   64.8311 H         1 X63300      0.0000 
     27 H          81.2325   32.3949   63.6110 H         1 X63300      0.0000 
     28 H          80.4095   33.5281   64.7354 H         1 X63300      0.0000 
     29 H          80.8862   26.0041   62.3263 H         1 X63300      0.0000 
     30 H          76.0862   24.9946   68.4563 H         1 X63300      0.0000 
     31 H          75.8328   23.9226   67.0378 H         1 X63300      0.0000 
     32 H          81.8340   30.5459   63.6569 H         1 X63300      0.0000 
     33 H          77.9149   27.6756   63.0944 H         1 X63300      0.0000 
     34 H          76.0119   28.8604   63.0852 H         1 X63300      0.0000 
     35 H          75.2593   29.8700   64.3320 H         1 X63300      0.0000 
     36 H          75.6375   26.6086   63.5369 H         1 X63300      0.0000 
     37 H          76.4332   29.0720   66.8258 H         1 X63300      0.0000 
     38 H          79.5364   26.0147   60.2168 H         1 X63300      0.0000 
     39 H          78.2826   26.9160   61.0860 H         1 X63300      0.0000 
     40 H          77.7305   24.5560   60.9676 H         1 X63300      0.0000 
     41 H          77.9770   25.0859   62.6405 H         1 X63300      0.0000 
     42 H          80.0954   24.5074   62.4184 H         1 X63300      0.0000 
@<TRIPOS>BOND
     1   10    1 1    
     2   15    1 1    
     3   26    1 1    
     4   14    2 am   
     5   27    2 1    
     6   28    2 1    
     7   17    3 ar   
     8   18    3 ar   
     9   18    4 ar   
    10   19    4 ar   
    11   12    5 1    
    12   20    5 1    
    13   29    5 1    
    14   18    6 1    
    15   30    6 1    
    16   31    6 1    
    17   13    7 1    
    18   24    7 2    
    19   25    7 2    
    20    9    8 ar   
    21   13    8 ar   
    22   32    8 1    
    23   10    9 ar   
    24   14    9 1    
    25   11   10 ar   
    26   12   11 ar   
    27   33   11 1    
    28   13   12 ar   
    29   22   14 2    
    30   16   15 1    
    31   34   15 1    
    32   35   15 1    
    33   17   16 ar   
    34   19   16 ar   
    35   36   17 1    
    36   37   19 1    
    37   21   20 1    
    38   38   20 1    
    39   39   20 1    
    40   23   21 1    
    41   40   21 1    
    42   41   21 1    
    43   42   23 1    
@<TRIPOS>SUBSTRUCTURE
     1 X63300      1 GROUP   
@<TRIPOS>SET

