#    Name: 4j1c_1HO_1_INTS_M
#    Modification time : Tue Mar 25 05:01:12 2014

@<TRIPOS>MOLECULE
4j1c_1HO_1_INTS_M
   64     0     9     0     0
SMALL
NO_CHARGES


@<TRIPOS>ATOM
      1 CA        -19.1680  -44.6890    0.9780 C.3       3 GLC5        0.0000 
      2 CA        -20.5830  -44.0330   -0.2690 C.3       9 GLL5        0.0000 
      3 CA        -17.7530  -45.3450    2.2250 C.3       6 GLP5        0.0000 
      4 CA        -20.9125  -45.6485   -2.1230 C.3       3 GLC5        0.0000 
      5 CA        -22.0030  -43.6840   -2.2270 C.3       9 GLL5        0.0000 
      6 CA        -19.8220  -47.6130   -2.0190 C.3       6 GLP5        0.0000 
      7 O         -18.9970  -41.4635   -5.2005 O.2       1 ALC1        0.0000 
      8 O         -20.2600  -40.8590   -5.5540 O.2       7 ALL1        0.0000 
      9 O         -17.7340  -42.0680   -4.8470 O.2       4 ALP1        0.0000 
     10 CA        -16.0400  -40.5090   -5.3075 C.3       3 GLC5        0.0000 
     11 CA        -15.3870  -40.4380   -7.3950 C.3       9 GLL5        0.0000 
     12 CA        -16.6930  -40.5800   -3.2200 C.3       6 GLP5        0.0000 
     13 CA        -16.9825  -37.3480  -11.0530 C.3       3 GLC5        0.0000 
     14 CA        -16.8330  -37.8580   -9.3290 C.3       9 GLL5        0.0000 
     15 CA        -17.1320  -36.8380  -12.7770 C.3       6 GLP5        0.0000 
     16 O         -15.8505  -38.2755   -6.9375 O.2       1 ALC1        0.0000 
     17 O         -16.0250  -39.3270   -7.6950 O.2       7 ALL1        0.0000 
     18 O         -15.6760  -37.2240   -6.1800 O.2       4 ALP1        0.0000 
     19 O         -14.6640  -39.3905   -5.4320 O.2       1 ALC1        0.0000 
     20 O         -14.5860  -40.4690   -6.3070 O.2       7 ALL1        0.0000 
     21 O         -14.7420  -38.3120   -4.5570 O.2       4 ALP1        0.0000 
     22 O         -15.1310  -38.8465   -6.2435 O.2       1 ALC1        0.0000 
     23 O         -13.7760  -41.4465   -5.7630 O.2       1 ALC1        0.0000 
     24 O         -12.9660  -42.4240   -5.2190 O.2       4 ALP1        0.0000 
     25 CA        -15.6700  -37.5480  -11.2635 C.3       3 GLC5        0.0000 
     26 CA        -15.4500  -37.6410   -9.5670 C.3       9 GLL5        0.0000 
     27 CA        -15.8900  -37.4550  -12.9600 C.3       6 GLP5        0.0000 
     28 CA        -17.2915  -39.9640  -12.4265 C.3       3 GLC5        0.0000 
     29 CA        -17.5010  -40.6190  -10.7730 C.3       9 GLL5        0.0000 
     30 CA        -17.0820  -39.3090  -14.0800 C.3       6 GLP5        0.0000 
     31 CA        -17.7005  -40.3095   -5.1900 C.3       3 GLC5        0.0000 
     32 CA        -18.7080  -40.0390   -7.1600 C.3       9 GLL5        0.0000 
     33 CA        -18.7565  -37.9095  -11.7895 C.3       3 GLC5        0.0000 
     34 CA        -19.1930  -38.3960  -10.3510 C.3       9 GLL5        0.0000 
     35 CA        -18.3200  -37.4230  -13.2280 C.3       6 GLP5        0.0000 
     36 CA        -20.1610  -37.1415  -10.6205 C.3       3 GLC5        0.0000 
     37 CA        -21.1290  -35.8870  -10.8900 C.3       6 GLP5        0.0000 
     38 CA        -18.2730  -41.5225   -2.6055 C.3       3 GLC5        0.0000 
     39 CA        -19.8530  -42.4650   -1.9910 C.3       9 GLL5        0.0000 
     40 CA        -18.2280  -43.4545   -2.8515 C.3       3 GLC5        0.0000 
     41 CA        -16.6030  -44.4440   -3.7120 C.3       6 GLP5        0.0000 
     42 N         -20.6115  -45.5805   -0.7060 N.am      2 SEC2        0.0000 
     43 N         -20.4210  -44.5580    0.7010 N.am      8 SEL2        0.0000 
     44 N         -20.8020  -46.6030   -2.1130 N.am      5 SEP2        0.0000 
     45 CA        -23.9695  -42.8970   -2.2138 C.3       3 GLC5        0.0000 
     46 CA        -25.8290  -42.4540   -1.6110 C.3       6 GLP5        0.0000 
     47 CA        -19.5965  -45.3167   -1.2535 C.3       3 GLC5        0.0000 
     48 CA        -20.7990  -43.3760   -1.4970 C.3       9 GLL5        0.0000 
     49 CA        -18.5020  -46.9290   -1.6240 C.3       6 GLP5        0.0000 
     50 CA        -15.9538  -39.5252  -11.8650 C.3       3 GLC5        0.0000 
     51 CA        -16.5960  -40.4400   -9.7840 C.3       9 GLL5        0.0000 
     52 CA        -15.8840  -38.7090  -13.5920 C.3       6 GLP5        0.0000 
     53 CA        -14.6797  -36.7392   -8.8155 C.3       3 GLC5        0.0000 
     54 CA        -13.2180  -35.7290   -8.1830 C.3       6 GLP5        0.0000 
     55 CA        -17.1429  -36.8191   -8.2198 C.3       3 GLC5        0.0000 
     56 CA        -18.1140  -35.5340   -7.1230 C.3       6 GLP5        0.0000 
     57 CA        -20.0040  -38.7821   -5.6623 C.3       3 GLC5        0.0000 
     58 CA        -20.3670  -37.5670   -4.1730 C.3       6 GLP5        0.0000 
     59 CA        -18.5903  -37.1716   -8.3371 C.3       3 GLC5        0.0000 
     60 CA        -18.4010  -39.4620   -8.3450 C.3       9 GLL5        0.0000 
     61 CA        -22.1887  -41.7680   -1.7414 C.3       3 GLC5        0.0000 
     62 CA        -21.2870  -42.0620   -3.8150 C.3       9 GLL5        0.0000 
     63 CA        -22.6790  -40.8350   -0.1670 C.3       6 GLP5        0.0000 
     64 CA        -21.4755  -41.9599   -0.8020 C.3       3 GLC5        0.0000 
@<TRIPOS>BOND
@<TRIPOS>SUBSTRUCTURE
     1 ALC1        7 GROUP        1 X    ALC  0     ROOT ALC X 1
     2 SEC2       42 GROUP        1 X    SEC  0     **** SEC X 2
     3 GLC5        1 GROUP        1 X    GLC  0     **** GLC X 6
     4 ALP1        9 GROUP        1 Y    ALP  0     ROOT ALP Y 8
     5 SEP2       44 GROUP        1 Y    SEP  0     **** SEP Y 9
     6 GLP5        3 GROUP        1 Y    GLP  0     **** GLP Y 13
     7 ALL1        8 GROUP        1 Z    ALL  0     ROOT ALL Z 15
     8 SEL2       43 GROUP        1 Z    SEL  0     **** SEL Z 16
     9 GLL5        2 GROUP        1 Z    GLL  0     **** GLL Z 20
@<TRIPOS>SET

