#    Name: 4j1c_1HO_1_ligand
#    Modification time : Tue Mar 25 05:01:12 2014

@<TRIPOS>MOLECULE
4j1c_1HO_1_ligand
   43    45     1     0     0
SMALL
NO_CHARGES


@<TRIPOS>ATOM
      1 C27       -22.2170  -42.9960   -3.4060 C.ar      1 1HO504      0.0000 
      2 C28       -20.5830  -44.0330   -0.2690 C.1       1 1HO504      0.0000 
      3 C26       -22.0030  -43.6840   -2.2270 C.ar      1 1HO504      0.0000 
      4 O22       -22.4970  -41.3190   -5.7270 O.2       1 1HO504      0.0000 
      5 C20       -21.4300  -41.3810   -5.0970 C.2       1 1HO504      0.0000 
      6 N19       -20.2600  -40.8590   -5.5540 N.am      1 1HO504      0.0000 
      7 C15       -21.0950  -39.7170   -7.5310 C.ar      1 1HO504      0.0000 
      8 C16       -20.8020  -39.1100   -8.7470 C.ar      1 1HO504      0.0000 
      9 C17       -19.4790  -38.9830   -9.1580 C.ar      1 1HO504      0.0000 
     10 C1        -15.3870  -40.4380   -7.3950 C.2       1 1HO504      0.0000 
     11 C3        -16.9540  -39.2770   -8.8030 C.3       1 1HO504      0.0000 
     12 C8        -18.4010  -39.4620   -8.3450 C.ar      1 1HO504      0.0000 
     13 C4        -16.5960  -40.4400   -9.7840 C.3       1 1HO504      0.0000 
     14 C5        -16.4590  -41.7710   -9.0750 C.3       1 1HO504      0.0000 
     15 C9        -16.8330  -37.8580   -9.3290 C.3       1 1HO504      0.0000 
     16 N2        -16.0250  -39.3270   -7.6950 N.pl3     1 1HO504      0.0000 
     17 O6        -15.4100  -41.5630   -8.1170 O.3       1 1HO504      0.0000 
     18 N7        -14.5860  -40.4690   -6.3070 N.pl3     1 1HO504      0.0000 
     19 F10       -15.4500  -37.6410   -9.5670 F         1 1HO504      0.0000 
     20 F11       -17.5010  -40.6190  -10.7730 F         1 1HO504      0.0000 
     21 F12       -15.4510  -40.2430  -10.4920 F         1 1HO504      0.0000 
     22 C13       -18.7080  -40.0390   -7.1600 C.ar      1 1HO504      0.0000 
     23 C14       -20.0530  -40.1940   -6.7550 C.ar      1 1HO504      0.0000 
     24 F18       -19.1930  -38.3960  -10.3510 F         1 1HO504      0.0000 
     25 C21       -21.2870  -42.0620   -3.8150 C.ar      1 1HO504      0.0000 
     26 N23       -20.1570  -41.8240   -3.1200 N.ar      1 1HO504      0.0000 
     27 C24       -19.8530  -42.4650   -1.9910 C.ar      1 1HO504      0.0000 
     28 C25       -20.7990  -43.3760   -1.4970 C.ar      1 1HO504      0.0000 
     29 N29       -20.4210  -44.5580    0.7010 N.1       1 1HO504      0.0000 
     30 H         -23.0546  -43.1772   -3.9681 H         1 1HO504      0.0000 
     31 H         -22.6385  -44.3709   -1.8717 H         1 1HO504      0.0000 
     32 H         -19.3886  -40.9686   -4.9194 H         1 1HO504      0.0000 
     33 H         -22.0630  -39.8079   -7.2184 H         1 1HO504      0.0000 
     34 H         -21.5614  -38.7555   -9.3417 H         1 1HO504      0.0000 
     35 H         -16.1973  -42.5218   -9.7996 H         1 1HO504      0.0000 
     36 H         -17.3952  -42.0061   -8.6000 H         1 1HO504      0.0000 
     37 H         -17.2301  -37.1841   -8.5788 H         1 1HO504      0.0000 
     38 H         -17.4215  -37.7821  -10.2359 H         1 1HO504      0.0000 
     39 H         -15.8993  -38.4421   -7.1633 H         1 1HO504      0.0000 
     40 H         -14.1463  -41.3451   -6.1092 H         1 1HO504      0.0000 
     41 H         -14.5041  -39.6131   -5.7963 H         1 1HO504      0.0000 
     42 H         -17.9650  -40.3807   -6.5218 H         1 1HO504      0.0000 
     43 H         -18.9826  -42.3233   -1.4849 H         1 1HO504      0.0000 
@<TRIPOS>BOND
     1    3    1 ar   
     2   25    1 ar   
     3   30    1 1    
     4   28    2 1    
     5   29    2 3    
     6   28    3 ar   
     7   31    3 1    
     8    5    4 2    
     9    6    5 am   
    10   25    5 1    
    11   23    6 1    
    12   32    6 1    
    13    8    7 ar   
    14   23    7 ar   
    15   33    7 1    
    16    9    8 ar   
    17   34    8 1    
    18   12    9 ar   
    19   24    9 1    
    20   16   10 1    
    21   17   10 1    
    22   18   10 2    
    23   12   11 1    
    24   13   11 1    
    25   15   11 1    
    26   16   11 1    
    27   22   12 ar   
    28   14   13 1    
    29   20   13 1    
    30   21   13 1    
    31   17   14 1    
    32   35   14 1    
    33   36   14 1    
    34   19   15 1    
    35   37   15 1    
    36   38   15 1    
    37   39   16 1    
    38   40   18 1    
    39   41   18 1    
    40   23   22 ar   
    41   42   22 1    
    42   26   25 ar   
    43   27   26 ar   
    44   28   27 ar   
    45   43   27 1    
@<TRIPOS>SUBSTRUCTURE
     1 1HO504      1 GROUP   
@<TRIPOS>SET

