#    Name: 3gc8_B45_1_INTS_M
#    Modification time : Tue Mar 25 07:27:52 2014

@<TRIPOS>MOLECULE
3gc8_B45_1_INTS_M
   93     0     6     0     0
SMALL
NO_CHARGES


@<TRIPOS>ATOM
      1 CA         28.4785   -9.4215   31.2800 C.3       2 GLC5        0.0000 
      2 CA         26.3440   -9.2850   31.9340 C.3       6 GLL5        0.0000 
      3 CA         30.6130   -9.5580   30.6260 C.3       4 GLP5        0.0000 
      4 CA         27.2760   -7.5065   32.6915 C.3       2 GLC5        0.0000 
      5 CA         28.2080   -5.7280   33.4490 C.3       4 GLP5        0.0000 
      6 CA         28.0085   -8.9425   29.8030 C.3       2 GLC5        0.0000 
      7 CA         26.3270   -9.9260   30.7160 C.3       6 GLL5        0.0000 
      8 CA         29.6900   -7.9590   28.8900 C.3       4 GLP5        0.0000 
      9 CA         29.9080   -9.9965   33.3925 C.3       2 GLC5        0.0000 
     10 CA         28.3980  -10.3470   34.8950 C.3       6 GLL5        0.0000 
     11 CA         31.4180   -9.6460   31.8900 C.3       4 GLP5        0.0000 
     12 CA         28.9875   -8.3505   34.1805 C.3       2 GLC5        0.0000 
     13 CA         29.5770   -6.3540   33.4660 C.3       4 GLP5        0.0000 
     14 CA         23.8755   -4.3815   37.6275 C.3       2 GLC5        0.0000 
     15 CA         23.6480   -4.2440   35.8670 C.3       6 GLL5        0.0000 
     16 CA         24.1030   -4.5190   39.3880 C.3       4 GLP5        0.0000 
     17 CA         23.2460   -1.2070   36.3670 C.3       2 GLC5        0.0000 
     18 CA         21.8250   -2.2200   34.9800 C.3       6 GLL5        0.0000 
     19 CA         24.6670   -0.1940   37.7540 C.3       4 GLP5        0.0000 
     20 CA         19.0365   -3.6695   38.0100 C.3       2 GLC5        0.0000 
     21 CA         20.7780   -3.2820   36.9540 C.3       6 GLL5        0.0000 
     22 CA         17.2950   -4.0570   39.0660 C.3       4 GLP5        0.0000 
     23 CA         21.8540   -3.6085   38.4170 C.3       2 GLC5        0.0000 
     24 CA         22.9300   -3.9350   39.8800 C.3       4 GLP5        0.0000 
     25 N          31.7695  -10.3440   37.7385 N.am      1 SEC2        0.0000 
     26 N          30.4470  -10.0690   37.6730 N.am      5 SEL2        0.0000 
     27 N          33.0920  -10.6190   37.8040 N.am      3 SEP2        0.0000 
     28 N          31.3600   -9.6295   38.8370 N.am      1 SEC2        0.0000 
     29 N          32.2730   -9.1900   40.0010 N.am      3 SEP2        0.0000 
     30 CA         26.1590  -11.4305   27.5615 C.3       2 GLC5        0.0000 
     31 CA         26.1340  -11.9130   29.5060 C.3       6 GLL5        0.0000 
     32 CA         26.1840  -10.9480   25.6170 C.3       4 GLP5        0.0000 
     33 CA         26.8555  -13.2900   28.2060 C.3       2 GLC5        0.0000 
     34 CA         27.5770  -14.6670   26.9060 C.3       4 GLP5        0.0000 
     35 CA         25.7745  -11.3220   38.3075 C.3       2 GLC5        0.0000 
     36 CA         27.4300  -11.0800   39.0790 C.3       6 GLL5        0.0000 
     37 CA         24.1190  -11.5640   37.5360 C.3       4 GLP5        0.0000 
     38 CA         27.9080  -12.2470   37.7405 C.3       2 GLC5        0.0000 
     39 CA         28.3860  -13.4140   36.4020 C.3       4 GLP5        0.0000 
     40 CA         29.1820   -4.2060   38.5945 C.3       2 GLC5        0.0000 
     41 CA         29.1700   -6.2610   37.9900 C.3       6 GLL5        0.0000 
     42 CA         29.1940   -2.1510   39.1990 C.3       4 GLP5        0.0000 
     43 CA         30.4665   -5.7785   36.8555 C.3       2 GLC5        0.0000 
     44 CA         31.7630   -5.2960   35.7210 C.3       4 GLP5        0.0000 
     45 CA         28.5455   -5.6240   36.3840 C.3       2 GLC5        0.0000 
     46 CA         27.9210   -4.9870   34.7780 C.3       4 GLP5        0.0000 
     47 CA         24.9395  -11.9370   35.9985 C.3       2 GLC5        0.0000 
     48 CA         25.7600  -12.3100   34.4610 C.3       6 GLL5        0.0000 
     49 CA         27.0730  -12.8620   35.4315 C.3       2 GLC5        0.0000 
     50 CA         25.4025  -14.2970   34.7790 C.3       2 GLC5        0.0000 
     51 CA         25.0450  -16.2840   35.0970 C.3       4 GLP5        0.0000 
     52 CA         26.1125   -8.8053   41.7692 C.3       2 GLC5        0.0000 
     53 CA         27.6840   -9.1560   40.9310 C.3       6 GLL5        0.0000 
     54 CA         24.3860   -9.0880   42.3840 C.3       4 GLP5        0.0000 
     55 CA         29.8975   -6.3925   41.2965 C.3       2 GLC5        0.0000 
     56 CA         27.9940   -7.8890   41.3780 C.3       6 GLL5        0.0000 
     57 CA         31.5700   -5.3600   41.6660 C.3       4 GLP5        0.0000 
     58 CA         30.1982   -8.1525   40.6167 C.3       2 GLC5        0.0000 
     59 CA         28.5950   -7.3410   39.1570 C.3       6 GLL5        0.0000 
     60 CA         31.8710   -9.1540   41.4170 C.3       4 GLP5        0.0000 
     61 CA         23.7538   -9.2527   35.7555 C.3       2 GLC5        0.0000 
     62 CA         25.3040   -7.6180   35.8610 C.3       6 GLL5        0.0000 
     63 CA         22.2240  -10.5260   36.2360 C.3       4 GLP5        0.0000 
     64 CA         25.4918   -9.9030   37.0558 C.3       2 GLC5        0.0000 
     65 CA         27.3700   -8.6890   36.4220 C.3       6 GLL5        0.0000 
     66 CA         24.3305  -12.3155   32.0378 C.3       2 GLC5        0.0000 
     67 CA         25.9750  -11.9990   31.8380 C.3       6 GLL5        0.0000 
     68 CA         22.6020  -12.9900   32.8160 C.3       4 GLP5        0.0000 
     69 CA         25.4492  -10.4413   36.1650 C.3       2 GLC5        0.0000 
     70 CA         26.2490   -9.2400   34.3550 C.3       6 GLL5        0.0000 
     71 CA         28.1200  -11.6430   35.7330 C.3       2 GLC5        0.0000 
     72 CA         27.3100   -9.3970   35.2330 C.3       6 GLL5        0.0000 
     73 CA         27.3705   -7.4109   34.1632 C.3       2 GLC5        0.0000 
     74 CA         27.2609   -6.5924   35.5682 C.3       2 GLC5        0.0000 
     75 CA         26.1400  -10.8380   40.4243 C.3       2 GLC5        0.0000 
     76 CA         27.8280   -9.5020   39.6020 C.3       6 GLL5        0.0000 
     77 CA         24.6510  -11.3850   41.5080 C.3       4 GLP5        0.0000 
     78 CA         29.0965  -11.6185   39.7208 C.3       2 GLC5        0.0000 
     79 CA         30.5640  -12.9460   40.1010 C.3       4 GLP5        0.0000 
     80 CA         29.8522   -9.0831   40.8976 C.3       2 GLC5        0.0000 
     81 CA         30.2263   -6.0805   40.1197 C.3       2 GLC5        0.0000 
     82 CA         24.2377  -12.4088   33.2853 C.3       2 GLC5        0.0000 
     83 CA         24.3257   -5.9510   37.6232 C.3       2 GLC5        0.0000 
     84 CA         24.2130   -6.6480   36.1730 C.3       6 GLL5        0.0000 
     85 CA         24.2490   -5.9000   39.4190 C.3       4 GLP5        0.0000 
     86 CA         23.2960   -6.2097   37.5915 C.3       2 GLC5        0.0000 
     87 CA         22.8630   -7.0580   35.6220 C.3       6 GLL5        0.0000 
     88 CA         22.8810   -8.6895   36.0667 C.3       2 GLC5        0.0000 
     89 CA         26.0437   -5.3555   35.3509 C.3       2 GLC5        0.0000 
     90 CA         25.2123  -13.2730   29.7249 C.3       2 GLC5        0.0000 
     91 CA         24.3280  -14.7690   29.0670 C.3       4 GLP5        0.0000 
     92 CA         27.6842  -12.2852   30.3371 C.3       2 GLC5        0.0000 
     93 CA         29.2490  -12.9630   30.2870 C.3       4 GLP5        0.0000 
@<TRIPOS>BOND
@<TRIPOS>SUBSTRUCTURE
     1 SEC2       25 GROUP        1 X    SEC  0     ROOT SEC X 2
     2 GLC5        1 GROUP        1 X    GLC  0     **** GLC X 6
     3 SEP2       27 GROUP        1 Y    SEP  0     ROOT SEP Y 9
     4 GLP5        3 GROUP        1 Y    GLP  0     **** GLP Y 13
     5 SEL2       26 GROUP        1 Z    SEL  0     ROOT SEL Z 16
     6 GLL5        2 GROUP        1 Z    GLL  0     **** GLL Z 20
@<TRIPOS>SET

