#    Name: 3gc8_B45_1_ligand
#    Modification time : Tue Mar 25 07:27:52 2014

@<TRIPOS>MOLECULE
3gc8_B45_1_ligand
   64    68     1     0     0
SMALL
NO_CHARGES


@<TRIPOS>ATOM
      1 C6         27.9940   -7.8890   41.3780 C.ar      1 B45365      0.0000 
      2 C21        26.3440   -9.2850   31.9340 C.ar      1 B45365      0.0000 
      3 C22        26.3270   -9.9260   30.7160 C.ar      1 B45365      0.0000 
      4 C1         27.6840   -9.1560   40.9310 C.ar      1 B45365      0.0000 
      5 C5         28.4560   -6.9610   40.4760 C.ar      1 B45365      0.0000 
      6 C17        25.2630   -8.3410   34.6890 C.ar      1 B45365      0.0000 
      7 C19        26.3590   -7.7950   36.7290 C.ar      1 B45365      0.0000 
      8 C24        25.9750  -11.9990   31.8380 C.ar      1 B45365      0.0000 
      9 C20        26.1720   -9.9800   33.1140 C.ar      1 B45365      0.0000 
     10 C16        26.2490   -9.2400   34.3550 C.ar      1 B45365      0.0000 
     11 C18        25.3040   -7.6180   35.8610 C.ar      1 B45365      0.0000 
     12 C13        27.3100   -9.3970   35.2330 C.ar      1 B45365      0.0000 
     13 C14        27.3700   -8.6890   36.4220 C.ar      1 B45365      0.0000 
     14 C3         28.2900   -8.5920   38.6840 C.ar      1 B45365      0.0000 
     15 C23        26.1430  -11.2830   30.6810 C.ar      1 B45365      0.0000 
     16 C2         27.8280   -9.5020   39.6020 C.ar      1 B45365      0.0000 
     17 C4         28.5950   -7.3410   39.1570 C.ar      1 B45365      0.0000 
     18 C25        25.9870  -11.3450   33.0480 C.ar      1 B45365      0.0000 
     19 C10        29.5640   -9.6770   36.9240 C.2       1 B45365      0.0000 
     20 C12        28.3980  -10.3470   34.8950 C.3       1 B45365      0.0000 
     21 C29        24.5920   -5.3560   35.4820 C.3       1 B45365      0.0000 
     22 C33        22.8630   -7.0580   35.6220 C.3       1 B45365      0.0000 
     23 C30        23.6480   -4.2440   35.8670 C.3       1 B45365      0.0000 
     24 C32        21.8230   -5.9810   35.9060 C.3       1 B45365      0.0000 
     25 C28        24.2130   -6.6480   36.1730 C.3       1 B45365      0.0000 
     26 C35        21.8250   -2.2200   34.9800 C.3       1 B45365      0.0000 
     27 C36        20.7780   -3.2820   36.9540 C.3       1 B45365      0.0000 
     28 C34        21.2570   -3.5170   35.5310 C.3       1 B45365      0.0000 
     29 N11        29.5900   -9.9920   35.5940 N.am      1 B45365      0.0000 
     30 N9         28.4770   -8.8920   37.3020 N.am      1 B45365      0.0000 
     31 N31        22.2740   -4.6230   35.4520 N.4       1 B45365      0.0000 
     32 O15        30.4470  -10.0690   37.6730 O.2       1 B45365      0.0000 
     33 F27        26.1340  -11.9130   29.5060 F         1 B45365      0.0000 
     34 CL8        27.4300  -11.0800   39.0790 Cl        1 B45365      0.0000 
     35 CL7        29.1700   -6.2610   37.9900 Cl        1 B45365      0.0000 
     36 CL26       25.7600  -12.3100   34.4610 Cl        1 B45365      0.0000 
     37 H          27.8809   -7.6454   42.3676 H         1 B45365      0.0000 
     38 H          26.4896   -8.2539   31.9676 H         1 B45365      0.0000 
     39 H          26.4508   -9.3916   29.8472 H         1 B45365      0.0000 
     40 H          27.3348   -9.8656   41.6073 H         1 B45365      0.0000 
     41 H          28.6916   -6.0120   40.7723 H         1 B45365      0.0000 
     42 H          24.4585   -8.2016   34.0350 H         1 B45365      0.0000 
     43 H          26.3983   -7.2606   37.6118 H         1 B45365      0.0000 
     44 H          25.8405  -13.0205   31.8036 H         1 B45365      0.0000 
     45 H          28.5580  -10.3299   33.8051 H         1 B45365      0.0000 
     46 H          28.0733  -11.3664   35.1581 H         1 B45365      0.0000 
     47 H          25.6117   -5.0821   35.7628 H         1 B45365      0.0000 
     48 H          24.5604   -5.5026   34.3998 H         1 B45365      0.0000 
     49 H          22.9387   -7.2076   34.5460 H         1 B45365      0.0000 
     50 H          22.5479   -7.9912   36.0865 H         1 B45365      0.0000 
     51 H          23.9516   -3.3276   35.3682 H         1 B45365      0.0000 
     52 H          23.6881   -4.0965   36.9428 H         1 B45365      0.0000 
     53 H          21.6196   -5.9616   36.9849 H         1 B45365      0.0000 
     54 H          20.8879   -6.2495   35.3969 H         1 B45365      0.0000 
     55 H          24.1503   -6.4668   37.2135 H         1 B45365      0.0000 
     56 H          20.3922   -3.7852   34.9235 H         1 B45365      0.0000 
     57 H          30.4775   -9.9803   35.0615 H         1 B45365      0.0000 
     58 H          22.3950   -4.7755   34.2617 H         1 B45365      0.0000 
     59 H          22.5935   -1.8889   35.5275 H         1 B45365      0.0000 
     60 H          22.1578   -2.3286   34.0433 H         1 B45365      0.0000 
     61 H          21.1402   -1.4914   34.9651 H         1 B45365      0.0000 
     62 H          21.5210   -2.9788   37.5507 H         1 B45365      0.0000 
     63 H          20.0650   -2.5821   36.9950 H         1 B45365      0.0000 
     64 H          20.3968   -4.1128   37.3595 H         1 B45365      0.0000 
@<TRIPOS>BOND
     1    4    1 ar   
     2    5    1 ar   
     3   37    1 1    
     4    3    2 ar   
     5    9    2 ar   
     6   38    2 1    
     7   15    3 ar   
     8   39    3 1    
     9   16    4 ar   
    10   40    4 1    
    11   17    5 ar   
    12   41    5 1    
    13   10    6 ar   
    14   11    6 ar   
    15   42    6 1    
    16   11    7 ar   
    17   13    7 ar   
    18   43    7 1    
    19   15    8 ar   
    20   18    8 ar   
    21   44    8 1    
    22   10    9 1    
    23   18    9 ar   
    24   12   10 ar   
    25   25   11 1    
    26   13   12 ar   
    27   20   12 1    
    28   30   13 1    
    29   16   14 ar   
    30   17   14 ar   
    31   30   14 1    
    32   33   15 1    
    33   34   16 1    
    34   35   17 1    
    35   36   18 1    
    36   29   19 am   
    37   30   19 am   
    38   32   19 2    
    39   29   20 1    
    40   45   20 1    
    41   46   20 1    
    42   23   21 1    
    43   25   21 1    
    44   47   21 1    
    45   48   21 1    
    46   24   22 1    
    47   25   22 1    
    48   49   22 1    
    49   50   22 1    
    50   31   23 1    
    51   51   23 1    
    52   52   23 1    
    53   31   24 1    
    54   53   24 1    
    55   54   24 1    
    56   55   25 1    
    57   28   26 1    
    58   59   26 1    
    59   60   26 1    
    60   61   26 1    
    61   28   27 1    
    62   62   27 1    
    63   63   27 1    
    64   64   27 1    
    65   31   28 1    
    66   56   28 1    
    67   57   29 1    
    68   58   31 1    
@<TRIPOS>SUBSTRUCTURE
     1 B45365      1 GROUP   
@<TRIPOS>SET

