#    Name: 3wix_LC3_2_INTS_M
#    Modification time : Tue Mar 25 02:36:56 2014

@<TRIPOS>MOLECULE
3wix_LC3_2_INTS_M
   76     0     9     0     0
SMALL
NO_CHARGES


@<TRIPOS>ATOM
      1 CA        -21.5950  -12.3055  -29.6385 C.3       3 GLC5        0.0000 
      2 CA        -22.6090  -11.3560  -31.3260 C.3       9 GLL5        0.0000 
      3 CA        -20.5810  -13.2550  -27.9510 C.3       6 GLP5        0.0000 
      4 CA        -22.4560  -11.6470  -26.4925 C.3       3 GLC5        0.0000 
      5 CA        -22.7310   -9.7730  -27.2690 C.3       9 GLL5        0.0000 
      6 CA        -22.1810  -13.5210  -25.7160 C.3       6 GLP5        0.0000 
      7 CA        -17.8575   -5.0690  -27.1890 C.3       3 GLC5        0.0000 
      8 CA        -19.6050   -6.3670  -27.0760 C.3       9 GLL5        0.0000 
      9 CA        -16.1100   -3.7710  -27.3020 C.3       6 GLP5        0.0000 
     10 CA        -20.2790   -5.0975  -25.9350 C.3       3 GLC5        0.0000 
     11 CA        -20.9530   -3.8280  -24.7940 C.3       6 GLP5        0.0000 
     12 CA        -16.7555   -9.0280  -24.6510 C.3       3 GLC5        0.0000 
     13 CA        -18.2690   -8.2110  -25.9680 C.3       9 GLL5        0.0000 
     14 CA        -15.2420   -9.8450  -23.3340 C.3       6 GLP5        0.0000 
     15 NZ        -18.4410   -4.7655  -31.7570 N.4       2 LYC4        0.0000 
     16 NZ        -19.5360   -5.5910  -31.3290 N.4       8 LYL4        0.0000 
     17 NZ        -16.1910   -4.5760  -32.3390 N.4       5 LYP4        0.0000 
     18 N         -18.4410   -4.7655  -31.7570 N.am      1 SEC2        0.0000 
     19 N         -19.5360   -5.5910  -31.3290 N.am      7 SEL2        0.0000 
     20 N         -17.3460   -3.9400  -32.1850 N.am      4 SEP2        0.0000 
     21 NZ        -16.9885   -5.7450  -30.7220 N.4       2 LYC4        0.0000 
     22 NZ        -17.9990   -5.7640  -29.7040 N.4       8 LYL4        0.0000 
     23 N         -17.6725   -4.8520  -30.9445 N.am      1 SEC2        0.0000 
     24 N         -17.9990   -5.7640  -29.7040 N.am      7 SEL2        0.0000 
     25 N         -16.9885   -5.7450  -30.7220 N.am      1 SEC2        0.0000 
     26 N         -15.9780   -5.7260  -31.7400 N.am      4 SEP2        0.0000 
     27 CA        -19.7960  -12.7980  -24.9595 C.3       3 GLC5        0.0000 
     28 CA        -18.9670  -11.4500  -23.5110 C.3       9 GLL5        0.0000 
     29 CA        -20.6250  -14.1460  -26.4080 C.3       6 GLP5        0.0000 
     30 CA        -20.1030  -11.1415  -19.1505 C.3       3 GLC5        0.0000 
     31 CA        -20.5670   -9.7610  -20.6740 C.3       9 GLL5        0.0000 
     32 CA        -19.6390  -12.5220  -17.6270 C.3       6 GLP5        0.0000 
     33 CA        -21.1080   -8.7145  -18.3015 C.3       3 GLC5        0.0000 
     34 CA        -20.9400   -8.4870  -20.3010 C.3       9 GLL5        0.0000 
     35 CA        -21.2760   -8.9420  -16.3020 C.3       6 GLP5        0.0000 
     36 CA        -24.7403  -11.4867  -32.4032 C.3       3 GLC5        0.0000 
     37 CA        -22.9480  -11.7700  -32.5970 C.3       9 GLL5        0.0000 
     38 CA        -26.3030  -11.6580  -31.7460 C.3       6 GLP5        0.0000 
     39 CA        -24.8293  -10.4915  -32.1527 C.3       3 GLC5        0.0000 
     40 CA        -23.5250   -9.5290  -33.1930 C.3       9 GLL5        0.0000 
     41 CA        -24.4873  -11.1745  -31.4518 C.3       3 GLC5        0.0000 
     42 CA        -22.7340  -10.0260  -30.9890 C.3       9 GLL5        0.0000 
     43 CA        -23.2533   -8.4045  -25.7115 C.3       3 GLC5        0.0000 
     44 CA        -24.2170   -7.5240  -24.2840 C.3       6 GLP5        0.0000 
     45 CA        -21.6490  -11.5703  -28.5368 C.3       3 GLC5        0.0000 
     46 CA        -23.0290  -10.1890  -28.6120 C.3       9 GLL5        0.0000 
     47 CA        -19.0832   -8.7398  -28.6650 C.3       3 GLC5        0.0000 
     48 CA        -21.1890   -8.1530  -28.0800 C.3       9 GLL5        0.0000 
     49 CA        -17.4470   -9.8320  -29.2100 C.3       6 GLP5        0.0000 
     50 CA        -22.2188   -6.7510  -28.2873 C.3       3 GLC5        0.0000 
     51 CA        -22.9190   -5.0270  -29.0300 C.3       6 GLP5        0.0000 
     52 CA        -21.4232   -5.8908  -28.3240 C.3       3 GLC5        0.0000 
     53 CA        -20.2500   -7.1420  -28.1600 C.3       9 GLL5        0.0000 
     54 CA        -17.8510   -8.6917  -27.7720 C.3       3 GLC5        0.0000 
     55 CA        -18.2410   -6.8920  -26.7000 C.3       9 GLL5        0.0000 
     56 CA        -16.4445   -6.6383  -26.4980 C.3       3 GLC5        0.0000 
     57 CA        -14.6340   -5.7250  -26.6620 C.3       6 GLP5        0.0000 
     58 CA        -18.1230   -6.1478  -24.8985 C.3       3 GLC5        0.0000 
     59 CA        -17.9910   -4.7440  -23.4630 C.3       6 GLP5        0.0000 
     60 CA        -17.0523  -10.3808  -23.6337 C.3       3 GLC5        0.0000 
     61 CA        -18.7580  -10.3830  -24.3560 C.3       9 GLL5        0.0000 
     62 CA        -20.6219  -12.3665  -21.9305 C.3       3 GLC5        0.0000 
     63 CA        -21.6340  -14.0830  -21.4630 C.3       6 GLP5        0.0000 
     64 CA        -18.5828   -9.1480  -20.3875 C.3       3 GLC5        0.0000 
     65 CA        -19.9540   -9.9610  -21.8960 C.3       9 GLL5        0.0000 
     66 CA        -16.9050   -8.4350  -19.4900 C.3       6 GLP5        0.0000 
     67 CA        -18.8680   -8.1928  -20.1043 C.3       3 GLC5        0.0000 
     68 CA        -22.4405   -6.9347  -20.3128 C.3       3 GLC5        0.0000 
     69 CA        -24.0500   -5.9190  -19.9070 C.3       6 GLP5        0.0000 
     70 CA        -20.8300   -6.5697  -19.4703 C.3       3 GLC5        0.0000 
     71 CA        -20.7220   -7.4140  -21.1360 C.3       9 GLL5        0.0000 
     72 CA        -20.8290   -5.1890  -18.2220 C.3       6 GLP5        0.0000 
     73 CA        -19.2082   -6.1318  -22.6058 C.3       3 GLC5        0.0000 
     74 CA        -18.0141   -8.0958  -22.4899 C.3       3 GLC5        0.0000 
     75 CA        -20.1290   -7.6250  -22.3610 C.3       9 GLL5        0.0000 
     76 CA        -16.2450   -7.8760  -22.1250 C.3       6 GLP5        0.0000 
@<TRIPOS>BOND
@<TRIPOS>SUBSTRUCTURE
     1 SEC2       18 GROUP        1 X    SEC  0     ROOT SEC X 2
     2 LYC4       15 GROUP        1 X    LYC  0     **** LYC X 4
     3 GLC5        1 GROUP        1 X    GLC  0     **** GLC X 6
     4 SEP2       20 GROUP        1 Y    SEP  0     ROOT SEP Y 9
     5 LYP4       17 GROUP        1 Y    LYP  0     **** LYP Y 11
     6 GLP5        3 GROUP        1 Y    GLP  0     **** GLP Y 13
     7 SEL2       19 GROUP        1 Z    SEL  0     ROOT SEL Z 16
     8 LYL4       16 GROUP        1 Z    LYL  0     **** LYL Z 18
     9 GLL5        2 GROUP        1 Z    GLL  0     **** GLL Z 20
@<TRIPOS>SET

