#    Name: 3wix_LC3_2_ligand
#    Modification time : Tue Mar 25 02:36:56 2014

@<TRIPOS>MOLECULE
3wix_LC3_2_ligand
   55    59     1     0     0
SMALL
NO_CHARGES


@<TRIPOS>ATOM
      1 C1        -23.4070  -10.8610  -33.5240 C.ar      1 LC3501      0.0000 
      2 C2        -22.9480  -11.7700  -32.5970 C.ar      1 LC3501      0.0000 
      3 C3        -23.5250   -9.5290  -33.1930 C.ar      1 LC3501      0.0000 
      4 C4        -23.7770  -11.3140  -34.8810 C.2       1 LC3501      0.0000 
      5 C5        -22.6090  -11.3560  -31.3260 C.ar      1 LC3501      0.0000 
      6 C6        -23.1860   -9.1210  -31.9260 C.ar      1 LC3501      0.0000 
      7 O7        -22.9690  -12.1010  -35.4530 O.co2     1 LC3501      0.0000 
      8 O8        -24.8720  -10.8750  -35.3400 O.co2     1 LC3501      0.0000 
      9 C9        -22.7340  -10.0260  -30.9890 C.ar      1 LC3501      0.0000 
     10 C10       -22.7310   -9.7730  -27.2690 C.2       1 LC3501      0.0000 
     11 C11       -23.0290  -10.1890  -28.6120 C.2       1 LC3501      0.0000 
     12 C12       -22.4050   -9.5820  -29.6330 C.2       1 LC3501      0.0000 
     13 N13       -21.4990   -8.5700  -29.3590 N.pl3     1 LC3501      0.0000 
     14 C14       -21.1890   -8.1530  -28.0800 C.2       1 LC3501      0.0000 
     15 C15       -21.8480   -8.7970  -27.0090 C.2       1 LC3501      0.0000 
     16 N16       -20.7990   -7.8660  -30.2700 N.2       1 LC3501      0.0000 
     17 C17       -20.0510   -7.0150  -29.5560 C.2       1 LC3501      0.0000 
     18 C18       -20.2500   -7.1420  -28.1600 C.2       1 LC3501      0.0000 
     19 C19       -19.1040   -6.0330  -30.2470 C.2       1 LC3501      0.0000 
     20 C20       -19.6050   -6.3670  -27.0760 C.3       1 LC3501      0.0000 
     21 C21       -18.2410   -6.8920  -26.7000 C.3       1 LC3501      0.0000 
     22 C22       -18.2690   -8.2110  -25.9680 C.3       1 LC3501      0.0000 
     23 O23       -18.9700   -7.9880  -24.7590 O.3       1 LC3501      0.0000 
     24 O24       -19.5360   -5.5910  -31.3290 O.co2     1 LC3501      0.0000 
     25 O25       -17.9990   -5.7640  -29.7040 O.co2     1 LC3501      0.0000 
     26 C26       -19.1410   -9.1160  -23.9630 C.ar      1 LC3501      0.0000 
     27 C27       -18.7580  -10.3830  -24.3560 C.ar      1 LC3501      0.0000 
     28 C28       -18.9670  -11.4500  -23.5110 C.ar      1 LC3501      0.0000 
     29 C29       -19.5640  -11.2280  -22.2890 C.ar      1 LC3501      0.0000 
     30 C30       -19.9540   -9.9610  -21.8960 C.ar      1 LC3501      0.0000 
     31 C31       -19.7340   -8.8960  -22.7340 C.ar      1 LC3501      0.0000 
     32 C32       -20.5670   -9.7610  -20.6740 C.ar      1 LC3501      0.0000 
     33 C33       -20.9400   -8.4870  -20.3010 C.ar      1 LC3501      0.0000 
     34 C34       -20.7220   -7.4140  -21.1360 C.ar      1 LC3501      0.0000 
     35 C35       -20.1290   -7.6250  -22.3610 C.ar      1 LC3501      0.0000 
     36 H         -22.8568  -12.7677  -32.8542 H         1 LC3501      0.0000 
     37 H         -23.8627   -8.8503  -33.8868 H         1 LC3501      0.0000 
     38 H         -22.2651  -12.0362  -30.6345 H         1 LC3501      0.0000 
     39 H         -23.2704   -8.1181  -31.6680 H         1 LC3501      0.0000 
     40 H         -23.2366  -10.2687  -26.5035 H         1 LC3501      0.0000 
     41 H         -23.7115  -10.9387  -28.7414 H         1 LC3501      0.0000 
     42 H         -21.6301   -8.4964  -26.0488 H         1 LC3501      0.0000 
     43 H         -20.2480   -6.3747  -26.1758 H         1 LC3501      0.0000 
     44 H         -19.5054   -5.3080  -27.3802 H         1 LC3501      0.0000 
     45 H         -17.7259   -6.1407  -26.0709 H         1 LC3501      0.0000 
     46 H         -17.6308   -7.0009  -27.6172 H         1 LC3501      0.0000 
     47 H         -17.2435   -8.5271  -25.7944 H         1 LC3501      0.0000 
     48 H         -18.7659   -8.9421  -26.6006 H         1 LC3501      0.0000 
     49 H         -18.3188  -10.5274  -25.2759 H         1 LC3501      0.0000 
     50 H         -18.6827  -12.3963  -23.7867 H         1 LC3501      0.0000 
     51 H         -19.7260  -12.0313  -21.6456 H         1 LC3501      0.0000 
     52 H         -20.7433  -10.5576  -20.0478 H         1 LC3501      0.0000 
     53 H         -21.3913   -8.3356  -19.3779 H         1 LC3501      0.0000 
     54 H         -20.9984   -6.4671  -20.8487 H         1 LC3501      0.0000 
     55 H         -19.9778   -6.8312  -23.0056 H         1 LC3501      0.0000 
@<TRIPOS>BOND
     1    2    1 ar   
     2    3    1 ar   
     3    4    1 1    
     4    5    2 ar   
     5   36    2 1    
     6    6    3 ar   
     7   37    3 1    
     8    7    4 ar   
     9    8    4 ar   
    10    9    5 ar   
    11   38    5 1    
    12    9    6 ar   
    13   39    6 1    
    14   12    9 1    
    15   11   10 1    
    16   15   10 2    
    17   40   10 1    
    18   12   11 2    
    19   41   11 1    
    20   13   12 1    
    21   14   13 1    
    22   16   13 1    
    23   15   14 1    
    24   18   14 2    
    25   42   15 1    
    26   17   16 2    
    27   18   17 1    
    28   19   17 1    
    29   20   18 1    
    30   24   19 ar   
    31   25   19 ar   
    32   21   20 1    
    33   43   20 1    
    34   44   20 1    
    35   22   21 1    
    36   45   21 1    
    37   46   21 1    
    38   23   22 1    
    39   47   22 1    
    40   48   22 1    
    41   26   23 1    
    42   27   26 ar   
    43   31   26 ar   
    44   28   27 ar   
    45   49   27 1    
    46   29   28 ar   
    47   50   28 1    
    48   30   29 ar   
    49   51   29 1    
    50   31   30 ar   
    51   32   30 ar   
    52   35   31 ar   
    53   33   32 ar   
    54   52   32 1    
    55   34   33 ar   
    56   53   33 1    
    57   35   34 ar   
    58   54   34 1    
    59   55   35 1    
@<TRIPOS>SUBSTRUCTURE
     1 LC3501      1 GROUP   
@<TRIPOS>SET

