#    Name: 3zc6_VFC_1_INTS_M
#    Modification time : Tue Mar 25 02:41:59 2014

@<TRIPOS>MOLECULE
3zc6_VFC_1_INTS_M
   77     0     9     0     0
SMALL
NO_CHARGES


@<TRIPOS>ATOM
      1 CA         12.4915   -2.7040   40.8060 C.3       3 GLC5        0.0000 
      2 CA         10.3960   -2.1720   40.9120 C.3       9 GLL5        0.0000 
      3 CA         14.5870   -3.2360   40.7000 C.3       6 GLP5        0.0000 
      4 CA          8.9780   -1.1735   43.4995 C.3       3 GLC5        0.0000 
      5 CA         10.2370   -2.3750   42.2770 C.3       9 GLL5        0.0000 
      6 CA          7.7190    0.0280   44.7220 C.3       6 GLP5        0.0000 
      7 CA          9.6670   -7.2045   43.1410 C.3       3 GLC5        0.0000 
      8 CA          8.0310   -6.6930   41.9270 C.3       9 GLL5        0.0000 
      9 CA         11.3030   -7.7160   44.3550 C.3       6 GLP5        0.0000 
     10 CA          6.7560   -5.4160   42.5515 C.3       3 GLC5        0.0000 
     11 CA          5.4810   -4.1390   43.1760 C.3       6 GLP5        0.0000 
     12 CA          8.6465   -1.7165   45.0060 C.3       3 GLC5        0.0000 
     13 CA          9.5740   -3.4610   45.2900 C.3       9 GLL5        0.0000 
     14 CA          7.3260   -4.2850   47.7320 C.3       3 GLC5        0.0000 
     15 CA          8.9730   -4.0490   46.4100 C.3       9 GLL5        0.0000 
     16 CA          5.6790   -4.5210   49.0540 C.3       6 GLP5        0.0000 
     17 N           8.0985   -4.0555   48.6455 N.am      2 SEC2        0.0000 
     18 N           9.1520   -3.5380   47.7060 N.am      8 SEL2        0.0000 
     19 N           7.0450   -4.5730   49.5850 N.am      5 SEP2        0.0000 
     20 CA          9.3975   -3.8810   49.4365 C.3       3 GLC5        0.0000 
     21 CA          9.9680   -2.4380   47.8500 C.3       9 GLL5        0.0000 
     22 CA          8.8270   -5.3240   51.0230 C.3       6 GLP5        0.0000 
     23 O           9.9815   -2.2375   50.2135 O.2       1 ALC1        0.0000 
     24 O          10.3160   -1.7760   48.9600 O.2       7 ALL1        0.0000 
     25 O           9.6470   -2.6990   51.4670 O.2       4 ALP1        0.0000 
     26 CA         10.1010    0.3965   49.7675 C.3       3 GLC5        0.0000 
     27 CA         11.1220   -0.7580   48.6140 C.3       9 GLL5        0.0000 
     28 CA          9.0800    1.5510   50.9210 C.3       6 GLP5        0.0000 
     29 CA         14.3170    0.0370   44.9515 C.3       3 GLC5        0.0000 
     30 CA         12.7210    1.0080   44.1700 C.3       9 GLL5        0.0000 
     31 CA         15.9130   -0.9340   45.7330 C.3       6 GLP5        0.0000 
     32 CA         10.3445    3.2085   42.5195 C.3       3 GLC5        0.0000 
     33 CA         11.6540    1.6410   43.2920 C.3       9 GLL5        0.0000 
     34 CA          9.0350    4.7760   41.7470 C.3       6 GLP5        0.0000 
     35 CA          9.6865    0.8345   44.0070 C.3       3 GLC5        0.0000 
     36 CA         10.6110    2.6890   44.9845 C.3       3 GLC5        0.0000 
     37 CA          9.5680    3.7370   46.6770 C.3       6 GLP5        0.0000 
     38 CA         12.4075    3.6205   43.7385 C.3       3 GLC5        0.0000 
     39 CA         13.1610    5.6000   44.1850 C.3       6 GLP5        0.0000 
     40 CA         14.2945    3.9025   43.7885 C.3       3 GLC5        0.0000 
     41 CA         15.4280    2.2050   43.3920 C.3       9 GLL5        0.0000 
     42 CA         15.2720   -1.2855   41.3820 C.3       3 GLC5        0.0000 
     43 CA         15.9570    0.6650   42.0640 C.3       9 GLL5        0.0000 
     44 CA         16.7895   -0.4460   40.6455 C.3       3 GLC5        0.0000 
     45 CA         17.6220   -1.5570   39.2270 C.3       6 GLP5        0.0000 
     46 CA         19.9985    1.0930   43.0775 C.3       3 GLC5        0.0000 
     47 CA         17.8460    1.6380   43.3670 C.3       9 GLL5        0.0000 
     48 CA         22.1510    0.5480   42.7880 C.3       6 GLP5        0.0000 
     49 CA         18.7490   -0.3015   43.2155 C.3       3 GLC5        0.0000 
     50 CA         19.6520   -2.2410   43.0640 C.3       6 GLP5        0.0000 
     51 CA         16.8795    0.3520   44.5500 C.3       3 GLC5        0.0000 
     52 CA         18.4090    1.9510   45.2680 C.3       3 GLC5        0.0000 
     53 CA         18.9720    2.2640   47.1690 C.3       6 GLP5        0.0000 
     54 CA          8.5777   -1.3207   41.0828 C.3       3 GLC5        0.0000 
     55 CA          6.8390   -0.3680   40.5710 C.3       6 GLP5        0.0000 
     56 CA          7.4417   -4.0740   42.7168 C.3       3 GLC5        0.0000 
     57 CA          9.6220   -3.5440   42.7090 C.3       9 GLL5        0.0000 
     58 CA          8.3403   -2.2165   39.3826 C.3       3 GLC5        0.0000 
     59 CA          9.3270   -4.2970   40.4360 C.3       9 GLL5        0.0000 
     60 CA          7.0040   -0.7790   38.8700 C.3       6 GLP5        0.0000 
     61 CA         11.1501   -4.7114   42.9977 C.3       3 GLC5        0.0000 
     62 CA          9.1830   -4.4740   41.8060 C.3       9 GLL5        0.0000 
     63 CA         12.7440   -5.7060   43.8460 C.3       6 GLP5        0.0000 
     64 CA         10.6943   -4.9865   46.0440 C.3       3 GLC5        0.0000 
     65 CA         12.1150   -6.2180   46.2380 C.3       6 GLP5        0.0000 
     66 CA         13.0225   -0.2575   48.8815 C.3       3 GLC5        0.0000 
     67 CA         14.8270    0.2600   49.8330 C.3       6 GLP5        0.0000 
     68 CA         12.7430   -2.1262   46.6968 C.3       3 GLC5        0.0000 
     69 CA         11.3140   -0.7920   47.2460 C.3       9 GLL5        0.0000 
     70 CA         14.5500   -2.9320   46.3840 C.3       6 GLP5        0.0000 
     71 CA         15.9564    0.2134   44.1277 C.3       3 GLC5        0.0000 
     72 CA         17.9833    1.7411   41.1885 C.3       3 GLC5        0.0000 
     73 CA         18.8900    2.0200   39.5350 C.3       6 GLP5        0.0000 
     74 CA         11.6537   -2.8091   48.5304 C.3       3 GLC5        0.0000 
     75 CA         12.5670   -4.1590   49.4400 C.3       6 GLP5        0.0000 
     76 CA          9.3997   -0.5551   47.4004 C.3       3 GLC5        0.0000 
     77 CA          8.0590    0.3490   47.1800 C.3       6 GLP5        0.0000 
@<TRIPOS>BOND
@<TRIPOS>SUBSTRUCTURE
     1 ALC1       23 GROUP        1 X    ALC  0     ROOT ALC X 1
     2 SEC2       17 GROUP        1 X    SEC  0     **** SEC X 2
     3 GLC5        1 GROUP        1 X    GLC  0     **** GLC X 6
     4 ALP1       25 GROUP        1 Y    ALP  0     ROOT ALP Y 8
     5 SEP2       19 GROUP        1 Y    SEP  0     **** SEP Y 9
     6 GLP5        3 GROUP        1 Y    GLP  0     **** GLP Y 13
     7 ALL1       24 GROUP        1 Z    ALL  0     ROOT ALL Z 15
     8 SEL2       18 GROUP        1 Z    SEL  0     **** SEL Z 16
     9 GLL5        2 GROUP        1 Z    GLL  0     **** GLL Z 20
@<TRIPOS>SET

