#    Name: 3zc6_VFC_1_ligand
#    Modification time : Tue Mar 25 02:41:59 2014

@<TRIPOS>MOLECULE
3zc6_VFC_1_ligand
   52    56     1     0     0
SMALL
NO_CHARGES


@<TRIPOS>ATOM
      1 F32        10.1120   -2.8960   38.7100 F         1 VFC2103     0.0000 
      2 C29         9.9400   -3.1260   39.9990 C.ar      1 VFC2103     0.0000 
      3 C28        10.3960   -2.1720   40.9120 C.ar      1 VFC2103     0.0000 
      4 C26        10.2370   -2.3750   42.2770 C.ar      1 VFC2103     0.0000 
      5 C24         9.6220   -3.5440   42.7090 C.ar      1 VFC2103     0.0000 
      6 C27         9.3270   -4.2970   40.4360 C.ar      1 VFC2103     0.0000 
      7 C25         9.1830   -4.4740   41.8060 C.ar      1 VFC2103     0.0000 
      8 N30         8.6340   -5.4760   42.5040 N.pl3     1 VFC2103     0.0000 
      9 C33         8.0310   -6.6930   41.9270 C.3       1 VFC2103     0.0000 
     10 N31         8.7170   -5.2270   43.7440 N.2       1 VFC2103     0.0000 
     11 C23         9.3180   -4.0410   43.9530 C.2       1 VFC2103     0.0000 
     12 C5          9.5740   -3.4610   45.2900 C.ar      1 VFC2103     0.0000 
     13 N3         10.3890   -2.3340   45.4780 N.ar      1 VFC2103     0.0000 
     14 C6          8.9730   -4.0490   46.4100 C.ar      1 VFC2103     0.0000 
     15 N4          9.1520   -3.5380   47.7060 N.ar      1 VFC2103     0.0000 
     16 C2          9.9680   -2.4380   47.8500 C.ar      1 VFC2103     0.0000 
     17 N7         10.3160   -1.7760   48.9600 N.pl3     1 VFC2103     0.0000 
     18 C8         11.1220   -0.7580   48.6140 C.2       1 VFC2103     0.0000 
     19 C9         11.3140   -0.7920   47.2460 C.2       1 VFC2103     0.0000 
     20 C1         10.5580   -1.8490   46.7730 C.ar      1 VFC2103     0.0000 
     21 C10        12.0850    0.1870   46.4600 C.2       1 VFC2103     0.0000 
     22 O11        12.6500    1.1250   46.9850 O.2       1 VFC2103     0.0000 
     23 N12        12.0670    0.0810   45.0960 N.am      1 VFC2103     0.0000 
     24 C13        12.7210    1.0080   44.1700 C.3       1 VFC2103     0.0000 
     25 C22        11.6540    1.6410   43.2920 C.3       1 VFC2103     0.0000 
     26 C14        13.6300    0.3140   43.2160 C.2       1 VFC2103     0.0000 
     27 O21        13.2830   -0.7500   42.7130 O.2       1 VFC2103     0.0000 
     28 N15        14.8190    0.9600   42.9240 N.am      1 VFC2103     0.0000 
     29 C17        15.4280    2.2050   43.3920 C.3       1 VFC2103     0.0000 
     30 C18        16.6570    1.9080   42.5700 C.3       1 VFC2103     0.0000 
     31 C16        15.9570    0.6650   42.0640 C.3       1 VFC2103     0.0000 
     32 C19        17.8460    1.6380   43.3670 C.1       1 VFC2103     0.0000 
     33 N20        18.7730    1.4050   44.0330 N.1       1 VFC2103     0.0000 
     34 H          10.8519   -1.3151   40.5679 H         1 VFC2103     0.0000 
     35 H          10.5644   -1.6813   42.9479 H         1 VFC2103     0.0000 
     36 H           8.9991   -4.9922   39.7789 H         1 VFC2103     0.0000 
     37 H           8.3760   -4.8891   46.2801 H         1 VFC2103     0.0000 
     38 H          10.0356   -1.9920   49.8625 H         1 VFC2103     0.0000 
     39 H          11.5111   -0.1040   49.2027 H         1 VFC2103     0.0000 
     40 H          11.5504   -0.7201   44.6380 H         1 VFC2103     0.0000 
     41 H          13.2374    1.7815   44.6736 H         1 VFC2103     0.0000 
     42 H          15.6593    2.1605   44.3869 H         1 VFC2103     0.0000 
     43 H          14.9489    3.0246   43.0126 H         1 VFC2103     0.0000 
     44 H          16.7129    2.5820   41.8102 H         1 VFC2103     0.0000 
     45 H          15.7271    0.7821   41.0744 H         1 VFC2103     0.0000 
     46 H          16.4663   -0.1646   42.3773 H         1 VFC2103     0.0000 
     47 H           8.6911   -7.2137   41.3855 H         1 VFC2103     0.0000 
     48 H           7.6837   -7.3072   42.6356 H         1 VFC2103     0.0000 
     49 H           7.2629   -6.4770   41.3242 H         1 VFC2103     0.0000 
     50 H          12.0470    2.2857   42.6363 H         1 VFC2103     0.0000 
     51 H          11.1524    0.9554   42.7643 H         1 VFC2103     0.0000 
     52 H          10.9804    2.1459   43.8317 H         1 VFC2103     0.0000 
@<TRIPOS>BOND
     1    2    1 1    
     2    3    2 ar   
     3    6    2 ar   
     4    4    3 ar   
     5   34    3 1    
     6    5    4 ar   
     7   35    4 1    
     8    7    5 ar   
     9   11    5 1    
    10    7    6 ar   
    11   36    6 1    
    12    8    7 1    
    13    9    8 1    
    14   10    8 1    
    15   47    9 1    
    16   48    9 1    
    17   49    9 1    
    18   11   10 2    
    19   12   11 1    
    20   13   12 ar   
    21   14   12 ar   
    22   20   13 ar   
    23   15   14 ar   
    24   37   14 1    
    25   16   15 ar   
    26   17   16 1    
    27   20   16 ar   
    28   18   17 1    
    29   38   17 1    
    30   19   18 2    
    31   39   18 1    
    32   20   19 1    
    33   21   19 1    
    34   22   21 2    
    35   23   21 am   
    36   24   23 1    
    37   40   23 1    
    38   25   24 1    
    39   26   24 1    
    40   41   24 1    
    41   50   25 1    
    42   51   25 1    
    43   52   25 1    
    44   27   26 2    
    45   28   26 am   
    46   29   28 1    
    47   31   28 1    
    48   30   29 1    
    49   42   29 1    
    50   43   29 1    
    51   31   30 1    
    52   32   30 1    
    53   44   30 1    
    54   45   31 1    
    55   46   31 1    
    56   33   32 3    
@<TRIPOS>SUBSTRUCTURE
     1 VFC2103     1 GROUP   
@<TRIPOS>SET

