#    Name: 3E5H_1_CAVITY_N1_6.mol2
#    Modification time : Mon Mar 10 12:19:51 2014

@<TRIPOS>MOLECULE
3E5H_1_CAVITY_N1_6.mol2
  105     0     7     0     0
SMALL
NO_CHARGES


@<TRIPOS>ATOM
      1 N           2.1600   -6.5313   -8.8182 N.2       2 ALA2        0.0000 
      2 OD1         3.7649   -7.2224  -11.6812 O.3       3 ASP3        0.0000 
      3 N           2.4654   -4.9196   -5.8925 N.2       2 ALA2        0.0000 
      4 N           3.5894   -4.6865   -7.6763 N.2       2 ALA2        0.0000 
      5 N           2.9461   -5.8439   -6.9716 N.2       2 ALA2        0.0000 
      6 DU          4.7135   -4.4533   -9.4602 H         7 CUB7        0.0000 
      7 DU          4.0702   -5.6108   -8.7555 H         7 CUB7        0.0000 
      8 N           3.4269   -6.7682   -8.0508 N.2       2 ALA2        0.0000 
      9 DU          5.1943   -5.3776  -10.5393 H         7 CUB7        0.0000 
     10 DU          4.5510   -6.5350   -9.8347 H         7 CUB7        0.0000 
     11 CZ          3.9077   -7.6924   -9.1300 C.ar      5 PHE5        0.0000 
     12 OD1         5.6751   -6.3019  -11.6185 O.3       3 ASP3        0.0000 
     13 CZ          3.4139   -2.1506   -3.6715 C.ar      5 PHE5        0.0000 
     14 CA          3.8947   -3.0749   -4.7507 C.3       6 GLY6        0.0000 
     15 CA          3.2515   -4.2323   -4.0460 C.3       6 GLY6        0.0000 
     16 CA          2.6082   -5.3897   -3.3413 C.3       6 GLY6        0.0000 
     17 N           0.6784   -8.8620   -1.2272 N.2       2 ALA2        0.0000 
     18 CA          0.0351  -10.0194   -0.5225 C.3       6 GLY6        0.0000 
     19 OD1         4.3755   -3.9992   -5.8298 O.3       3 ASP3        0.0000 
     20 N           3.7323   -5.1566   -5.1251 N.2       2 ALA2        0.0000 
     21 N           3.0890   -6.3140   -4.4204 N.2       2 ALA2        0.0000 
     22 N           2.4457   -7.4714   -3.7157 N.2       2 ALA2        0.0000 
     23 N           1.8024   -8.6288   -3.0111 N.2       2 ALA2        0.0000 
     24 N           1.1592   -9.7862   -2.3064 N.2       2 ALA2        0.0000 
     25 OD1         5.4996   -3.7660   -7.6137 O.3       3 ASP3        0.0000 
     26 OD1         4.8563   -4.9234   -6.9090 O.3       3 ASP3        0.0000 
     27 N           4.2130   -6.0808   -6.2043 N.2       2 ALA2        0.0000 
     28 N           3.5698   -7.2382   -5.4996 N.2       2 ALA2        0.0000 
     29 OD1         6.6237   -3.5329   -9.3975 O.3       3 ASP3        0.0000 
     30 OD1         5.9804   -4.6903   -8.6928 O.3       3 ASP3        0.0000 
     31 DU          5.3371   -5.8477   -7.9881 H         7 CUB7        0.0000 
     32 CZ          4.6938   -7.0051   -7.2834 C.ar      5 PHE5        0.0000 
     33 CA          7.1044   -4.4571  -10.4767 C.3       6 GLY6        0.0000 
     34 CA          6.4612   -5.6145   -9.7720 C.3       6 GLY6        0.0000 
     35 CZ          5.8179   -6.7719   -9.0673 C.ar      5 PHE5        0.0000 
     36 NZ          6.9420   -6.5388  -10.8512 N.2       4 LYS4        0.0000 
     37 CA          6.2987   -7.6962  -10.1465 C.3       6 GLY6        0.0000 
     38 CA          5.3241   -1.2301   -3.6089 C.3       6 GLY6        0.0000 
     39 N           4.6808   -2.3875   -2.9042 N.2       2 ALA2        0.0000 
     40 N           2.1078   -7.0172   -0.0854 N.2       2 ALA2        0.0000 
     41 N           1.4645   -8.1746    0.6193 N.2       2 ALA2        0.0000 
     42 CA          0.8212   -9.3320    1.3240 C.3       6 GLY6        0.0000 
     43 OD1         5.8049   -2.1544   -4.6880 O.3       3 ASP3        0.0000 
     44 N           5.1616   -3.3118   -3.9833 N.2       2 ALA2        0.0000 
     45 CZ          4.5184   -4.4692   -3.2786 C.ar      5 PHE5        0.0000 
     46 CZ          3.8751   -5.6266   -2.5739 C.ar      5 PHE5        0.0000 
     47 CZ          3.2318   -6.7841   -1.8692 C.ar      5 PHE5        0.0000 
     48 O           2.5886   -7.9415   -1.1645 O.2       2 ALA2        0.0000 
     49 O           1.9453   -9.0989   -0.4598 O.2       2 ALA2        0.0000 
     50 DU          1.3020  -10.2563    0.2448 H         7 CUB7        0.0000 
     51 OD1         5.6424   -4.2361   -5.0625 O.3       3 ASP3        0.0000 
     52 DU          4.9992   -5.3935   -4.3578 H         7 CUB7        0.0000 
     53 OG          4.3559   -6.5509   -3.6531 O.2       1 SER1        0.0000 
     54 OG          3.7126   -7.7083   -2.9484 O.2       1 SER1        0.0000 
     55 OG          3.0693   -8.8657   -2.2437 O.2       1 SER1        0.0000 
     56 N           2.4261  -10.0231   -1.5390 N.2       2 ALA2        0.0000 
     57 DU          1.7828  -11.1806   -0.8343 H         7 CUB7        0.0000 
     58 OD1         6.1232   -5.1603   -6.1416 O.3       3 ASP3        0.0000 
     59 OG          5.4800   -6.3178   -5.4369 O.2       1 SER1        0.0000 
     60 OG          4.8367   -7.4752   -4.7322 O.2       1 SER1        0.0000 
     61 CA          7.2473   -4.9272   -7.9255 C.3       6 GLY6        0.0000 
     62 CA          6.6040   -6.0846   -7.2208 C.3       6 GLY6        0.0000 
     63 CZ          5.9607   -7.2420   -6.5161 C.ar      5 PHE5        0.0000 
     64 CA          7.7281   -5.8515   -9.0046 C.3       6 GLY6        0.0000 
     65 CZ          7.0848   -7.0089   -8.3000 C.ar      5 PHE5        0.0000 
     66 NZ          8.2089   -6.7757  -10.0838 N.2       4 LYS4        0.0000 
     67 CA          7.5656   -7.9331   -9.3791 C.3       6 GLY6        0.0000 
     68 N           1.6073   -8.6447    3.1705 N.2       2 ALA2        0.0000 
     69 N           5.3045   -3.7819   -1.4321 N.2       2 ALA2        0.0000 
     70 CZ          4.6612   -4.9393   -0.7274 C.ar      5 PHE5        0.0000 
     71 CZ          4.0179   -6.0967   -0.0227 C.ar      5 PHE5        0.0000 
     72 N           3.3747   -7.2541    0.6820 N.2       2 ALA2        0.0000 
     73 N           2.7314   -8.4115    1.3867 N.2       2 ALA2        0.0000 
     74 CA          2.0881   -9.5689    2.0914 C.3       6 GLY6        0.0000 
     75 N           6.4285   -3.5487   -3.2160 N.2       2 ALA2        0.0000 
     76 CA          5.7853   -4.7061   -2.5113 C.3       6 GLY6        0.0000 
     77 OG          5.1420   -5.8636   -1.8066 O.2       1 SER1        0.0000 
     78 OG          4.4987   -7.0210   -1.1019 O.2       1 SER1        0.0000 
     79 CA          3.8555   -8.1784   -0.3972 C.3       6 GLY6        0.0000 
     80 CA          3.2122   -9.3358    0.3075 C.3       6 GLY6        0.0000 
     81 CA          2.5689  -10.4932    1.0122 C.3       6 GLY6        0.0000 
     82 OD1         6.9093   -4.4730   -4.2951 O.3       3 ASP3        0.0000 
     83 CA          6.2661   -5.6304   -3.5904 C.3       6 GLY6        0.0000 
     84 OG          3.6930  -10.2601   -0.7717 O.2       1 SER1        0.0000 
     85 CA          3.0497  -11.4175   -0.0670 C.3       6 GLY6        0.0000 
     86 CA          7.3901   -5.3973   -5.3743 C.3       6 GLY6        0.0000 
     87 OG          6.7469   -6.5547   -4.6696 O.2       1 SER1        0.0000 
     88 OG          4.1738  -11.1843   -1.8508 O.2       1 SER1        0.0000 
     89 OG          3.5305  -12.3417   -1.1461 O.2       1 SER1        0.0000 
     90 CA          7.8709   -6.3215   -6.4534 C.3       6 GLY6        0.0000 
     91 CZ          7.2276   -7.4789   -5.7487 C.ar      5 PHE5        0.0000 
     92 CA          8.3517   -7.2458   -7.5326 C.3       6 GLY6        0.0000 
     93 CZ          7.7084   -8.4032   -6.8279 C.ar      5 PHE5        0.0000 
     94 CA          8.8325   -8.1700   -8.6118 C.3       6 GLY6        0.0000 
     95 OD1         5.4473   -4.2519    1.1191 O.3       3 ASP3        0.0000 
     96 OG          2.8742   -8.8816    3.9379 O.2       1 SER1        0.0000 
     97 N           6.5714   -4.0188   -0.6648 N.2       2 ALA2        0.0000 
     98 OD1         5.9281   -5.1762    0.0399 O.3       3 ASP3        0.0000 
     99 OD1         5.2848   -6.3336    0.7446 O.3       3 ASP3        0.0000 
    100 CA          6.4089   -6.1005   -1.0392 C.3       6 GLY6        0.0000 
    101 CA          5.7656   -7.2579   -0.3345 C.3       6 GLY6        0.0000 
    102 O           9.1378   -6.5584   -5.6861 O.2       2 ALA2        0.0000 
    103 O           8.4945   -7.7159   -4.9814 O.2       2 ALA2        0.0000 
    104 O           9.6186   -7.4827   -6.7653 O.2       2 ALA2        0.0000 
    105 CA          8.9753   -8.6401   -6.0606 C.3       6 GLY6        0.0000 
@<TRIPOS>BOND
@<TRIPOS>SUBSTRUCTURE
     1 SER1       53 GROUP   
     2 ALA2        1 GROUP   
     3 ASP3        2 GROUP   
     4 LYS4       36 GROUP   
     5 PHE5       11 GROUP   
     6 GLY6       14 GROUP   
     7 CUB7        6 GROUP   
@<TRIPOS>SET

