#    Name: 3e5h_GNP_1_INTS_M
#    Modification time : Tue Mar 25 00:55:36 2014

@<TRIPOS>MOLECULE
3e5h_GNP_1_INTS_M
   81     0    15     0     0
SMALL
NO_CHARGES


@<TRIPOS>ATOM
      1 N           3.6230   -1.3195    2.0795 N.am      2 SEC2        0.0000 
      2 N           4.3790   -1.8140    2.9260 N.am     12 SEL2        0.0000 
      3 N           2.8670   -0.8250    1.2330 N.am      7 SEP2        0.0000 
      4 Zn          5.1405   -5.1180    3.5420 Zn        4 ZIC7        0.0000 
      5 Zn          4.8240   -4.1620    3.6370 Zn       14 ZIL7        0.0000 
      6 Zn          5.4570   -6.0740    3.4470 Zn        9 ZIP7        0.0000 
      7 N           3.6135   -4.3570    4.3165 N.am      2 SEC2        0.0000 
      8 N           4.8240   -4.1620    3.6370 N.am     12 SEL2        0.0000 
      9 N           2.4030   -4.5520    4.9960 N.am      7 SEP2        0.0000 
     10 NZ          7.9200   -2.5495    3.3830 N.4       3 LYC4        0.0000 
     11 NZ          6.6230   -2.4240    3.7210 N.4      13 LYL4        0.0000 
     12 NZ          9.2170   -2.6750    3.0450 N.4       8 LYP4        0.0000 
     13 N           7.9200   -2.5495    3.3830 N.am      2 SEC2        0.0000 
     14 N           6.6230   -2.4240    3.7210 N.am     12 SEL2        0.0000 
     15 N           9.2170   -2.6750    3.0450 N.am      7 SEP2        0.0000 
     16 N           6.9090   -1.7860    4.9055 N.am      2 SEC2        0.0000 
     17 N           7.1950   -1.1480    6.0900 N.am      7 SEP2        0.0000 
     18 NZ          8.7230   -3.3260    1.9115 N.4       3 LYC4        0.0000 
     19 NZ          8.2290   -3.9770    0.7780 N.4      13 LYL4        0.0000 
     20 N           8.7985   -4.1380   -0.5735 N.am      2 SEC2        0.0000 
     21 N           8.2290   -3.9770    0.7780 N.am     12 SEL2        0.0000 
     22 N           9.3680   -4.2990   -1.9250 N.am      7 SEP2        0.0000 
     23 N           9.0055   -5.0920    0.4345 N.am      2 SEC2        0.0000 
     24 N           9.7820   -6.2070    0.0910 N.am      7 SEP2        0.0000 
     25 N           8.7230   -3.3260    1.9115 N.am      2 SEC2        0.0000 
     26 Zn          6.0470   -5.8640    2.6085 Zn        4 ZIC7        0.0000 
     27 Zn          6.6370   -5.6540    1.7700 Zn       14 ZIL7        0.0000 
     28 N           7.4215   -6.8960    1.6695 N.am      2 SEC2        0.0000 
     29 N           6.6370   -5.6540    1.7700 N.am     12 SEL2        0.0000 
     30 N           8.2060   -8.1380    1.5690 N.am      7 SEP2        0.0000 
     31 N           6.8580   -8.4970   -0.7970 N.am      2 SEC2        0.0000 
     32 N           6.3130   -7.2450   -1.0740 N.am     12 SEL2        0.0000 
     33 N           7.4030   -9.7490   -0.5200 N.am      7 SEP2        0.0000 
     34 N           6.1490   -8.1990   -2.0310 N.am      2 SEC2        0.0000 
     35 N           5.9850   -9.1530   -2.9880 N.am      7 SEP2        0.0000 
     36 CA          7.0470   -5.0055   -2.5960 C.3       5 GLC5        0.0000 
     37 CA          5.0280   -4.3070   -3.0180 C.3      15 GLL5        0.0000 
     38 CA          9.0660   -5.7040   -2.1740 C.3      10 GLP5        0.0000 
     39 N           6.7660   -3.5810   -5.9725 N.am      2 SEC2        0.0000 
     40 N           5.6730   -4.5960   -5.3400 N.am     12 SEL2        0.0000 
     41 N           7.8590   -2.5660   -6.6050 N.am      7 SEP2        0.0000 
     42 CA          1.9460   -4.5280   -3.8560 C.3       5 GLC5        0.0000 
     43 CA          3.4920   -5.3670   -4.7650 C.3      15 GLL5        0.0000 
     44 CA          0.4000   -3.6890   -2.9470 C.3      10 GLP5        0.0000 
     45 O           1.5340   -5.7645   -6.2325 O.2       1 ALC1        0.0000 
     46 O           2.5500   -4.8650   -5.7070 O.2      11 ALL1        0.0000 
     47 O           0.5180   -6.6640   -6.7580 O.2       6 ALP1        0.0000 
     48 O           2.9810   -8.5405   -5.8290 O.2       1 ALC1        0.0000 
     49 O           3.6090   -7.3460   -6.2370 O.2      11 ALL1        0.0000 
     50 O           2.3530   -9.7350   -5.4210 O.2       6 ALP1        0.0000 
     51 CA          7.1615   -4.6760   -6.3310 C.3       5 GLC5        0.0000 
     52 CA          5.3950   -5.7500   -6.1130 C.3      15 GLL5        0.0000 
     53 CA          8.9280   -3.6020   -6.5490 C.3      10 GLP5        0.0000 
     54 N           9.9690   -7.2135   -5.1975 N.am      2 SEC2        0.0000 
     55 N           8.4900   -7.6230   -5.6810 N.am     12 SEL2        0.0000 
     56 N          11.4480   -6.8040   -4.7140 N.am      7 SEP2        0.0000 
     57 CA          9.6900   -5.9910   -7.3955 C.3       5 GLC5        0.0000 
     58 CA          8.4430   -7.4440   -7.0650 C.3      15 GLL5        0.0000 
     59 CA         10.9370   -4.5380   -7.7260 C.3      10 GLP5        0.0000 
     60 CA          9.2940   -9.1310   -5.9960 C.3       5 GLC5        0.0000 
     61 CA         10.1450  -10.8180   -4.9270 C.3      10 GLP5        0.0000 
     62 CA          8.2495   -9.1130   -8.4775 C.3       5 GLC5        0.0000 
     63 CA          8.0560  -10.7820   -9.8900 C.3      10 GLP5        0.0000 
     64 N           9.9405  -10.0000   -7.9815 N.am      2 SEC2        0.0000 
     65 N          10.4120   -8.4920   -7.9370 N.am     12 SEL2        0.0000 
     66 N           9.4690  -11.5080   -8.0260 N.am      7 SEP2        0.0000 
     67 O           9.9195   -7.8175  -10.3250 O.2       1 ALC1        0.0000 
     68 O           8.9400   -7.4700   -9.3460 O.2      11 ALL1        0.0000 
     69 O          10.8990   -8.1650  -11.3040 O.2       6 ALP1        0.0000 
     70 O           9.1010   -7.6425  -11.0410 O.2       1 ALC1        0.0000 
     71 O           9.2620   -7.8150  -12.7360 O.2       6 ALP1        0.0000 
     72 O           8.3985   -7.1510  -11.8255 O.2       1 ALC1        0.0000 
     73 O           7.5350   -6.4870  -10.9150 O.2      11 ALL1        0.0000 
     74 CA          8.1215   -5.1730   -6.9910 C.3       5 GLC5        0.0000 
     75 CA          7.3150   -6.7440   -7.4330 C.3      15 GLL5        0.0000 
     76 CA          3.3915   -3.9348   -2.3680 C.3       5 GLC5        0.0000 
     77 CA          4.5560   -4.3180   -4.4540 C.3      15 GLL5        0.0000 
     78 CA          1.9910   -3.5570   -1.0000 C.3      10 GLP5        0.0000 
     79 CA          5.0857   -8.0368   -6.6500 C.3       5 GLC5        0.0000 
     80 CA          4.3240   -6.5090   -5.3510 C.3      15 GLL5        0.0000 
     81 CA          5.3120   -9.9440   -7.5680 C.3      10 GLP5        0.0000 
@<TRIPOS>BOND
@<TRIPOS>SUBSTRUCTURE
     1 ALC1       45 GROUP        1 X    ALC  0     ROOT ALC X 1
     2 SEC2        1 GROUP        1 X    SEC  0     **** SEC X 2
     3 LYC4       10 GROUP        1 X    LYC  0     **** LYC X 4
     4 ZIC7        4 GROUP        1 X    ZIC  0     **** ZIC X 5
     5 GLC5       36 GROUP        1 X    GLC  0     **** GLC X 6
     6 ALP1       47 GROUP        1 Y    ALP  0     ROOT ALP Y 8
     7 SEP2        3 GROUP        1 Y    SEP  0     **** SEP Y 9
     8 LYP4       12 GROUP        1 Y    LYP  0     **** LYP Y 11
     9 ZIP7        6 GROUP        1 Y    ZIP  0     **** ZIP Y 12
    10 GLP5       38 GROUP        1 Y    GLP  0     **** GLP Y 13
    11 ALL1       46 GROUP        1 Z    ALL  0     ROOT ALL Z 15
    12 SEL2        2 GROUP        1 Z    SEL  0     **** SEL Z 16
    13 LYL4       11 GROUP        1 Z    LYL  0     **** LYL Z 18
    14 ZIL7        5 GROUP        1 Z    ZIL  0     **** ZIL Z 19
    15 GLL5       37 GROUP        1 Z    GLL  0     **** GLL Z 20
@<TRIPOS>SET

