#    Name: 3e5h_GNP_1_ligand
#    Modification time : Tue Mar 25 00:55:36 2014

@<TRIPOS>MOLECULE
3e5h_GNP_1_ligand
   44    46     1     0     0
SMALL
NO_CHARGES


@<TRIPOS>ATOM
      1 PG          5.4010   -2.9260    3.0030 P.3       1 GNP201      0.0000 
      2 O1G         4.3790   -1.8140    2.9260 O.co2     1 GNP201      0.0000 
      3 O2G         4.8240   -4.1620    3.6370 O.co2     1 GNP201      0.0000 
      4 O3G         6.6230   -2.4240    3.7210 O.co2     1 GNP201      0.0000 
      5 N3B         5.8470   -3.2950    1.4790 N.4       1 GNP201      0.0000 
      6 PB          6.8310   -4.4590    0.9190 P.3       1 GNP201      0.0000 
      7 O1B         8.2290   -3.9770    0.7780 O.co2     1 GNP201      0.0000 
      8 O2B         6.6370   -5.6540    1.7700 O.co2     1 GNP201      0.0000 
      9 O3A         6.4090   -4.8110   -0.5340 O.3       1 GNP201      0.0000 
     10 PA          5.5440   -5.9740   -1.1180 P.3       1 GNP201      0.0000 
     11 O1A         6.3130   -7.2450   -1.0740 O.co2     1 GNP201      0.0000 
     12 O2A         4.1930   -5.9500   -0.5120 O.co2     1 GNP201      0.0000 
     13 O5'         5.4330   -5.6230   -2.6460 O.3       1 GNP201      0.0000 
     14 C5'         5.0280   -4.3070   -3.0180 C.3       1 GNP201      0.0000 
     15 C4'         4.5560   -4.3180   -4.4540 C.3       1 GNP201      0.0000 
     16 O4'         5.6730   -4.5960   -5.3400 O.3       1 GNP201      0.0000 
     17 C3'         3.4920   -5.3670   -4.7650 C.3       1 GNP201      0.0000 
     18 O3'         2.5500   -4.8650   -5.7070 O.3       1 GNP201      0.0000 
     19 C2'         4.3240   -6.5090   -5.3510 C.3       1 GNP201      0.0000 
     20 O2'         3.6090   -7.3460   -6.2370 O.3       1 GNP201      0.0000 
     21 C1'         5.3950   -5.7500   -6.1130 C.3       1 GNP201      0.0000 
     22 N9          6.6460   -6.4800   -6.2580 N.pl3     1 GNP201      0.0000 
     23 C8          7.4000   -7.0400   -5.2460 C.2       1 GNP201      0.0000 
     24 N7          8.4900   -7.6230   -5.6810 N.2       1 GNP201      0.0000 
     25 C5          8.4430   -7.4440   -7.0650 C.2       1 GNP201      0.0000 
     26 C6          9.3470   -7.8690   -8.0720 C.2       1 GNP201      0.0000 
     27 O6         10.4120   -8.4920   -7.9370 O.2       1 GNP201      0.0000 
     28 N1          8.9400   -7.4700   -9.3460 N.am      1 GNP201      0.0000 
     29 C2          7.7780   -6.7720   -9.6200 C.2       1 GNP201      0.0000 
     30 N2          7.5350   -6.4870  -10.9150 N.pl3     1 GNP201      0.0000 
     31 N3          6.9180   -6.3800   -8.6850 N.2       1 GNP201      0.0000 
     32 C4          7.3150   -6.7440   -7.4330 C.2       1 GNP201      0.0000 
     33 H           5.8542   -3.5917   -2.9353 H         1 GNP201      0.0000 
     34 H           4.2054   -3.9452   -2.3907 H         1 GNP201      0.0000 
     35 H           4.1445   -3.3425   -4.7038 H         1 GNP201      0.0000 
     36 H           3.0729   -5.6932   -3.8543 H         1 GNP201      0.0000 
     37 H           4.8014   -7.0164   -4.5497 H         1 GNP201      0.0000 
     38 H           5.0003   -5.4673   -7.0688 H         1 GNP201      0.0000 
     39 H           7.1124   -6.9863   -4.2924 H         1 GNP201      0.0000 
     40 H           9.5724   -7.7233  -10.1613 H         1 GNP201      0.0000 
     41 H           6.6970   -5.9748  -11.1031 H         1 GNP201      0.0000 
     42 H           8.2144   -6.8132  -11.5723 H         1 GNP201      0.0000 
     43 H           2.1976   -5.6744   -6.1769 H         1 GNP201      0.0000 
     44 H           3.2652   -8.0923   -5.6671 H         1 GNP201      0.0000 
@<TRIPOS>BOND
     1    2    1 ar   
     2    3    1 ar   
     3    4    1 ar   
     4    5    1 1    
     5    6    5 1    
     6    7    6 ar   
     7    8    6 ar   
     8    9    6 1    
     9   10    9 1    
    10   11   10 ar   
    11   12   10 ar   
    12   13   10 1    
    13   14   13 1    
    14   15   14 1    
    15   33   14 1    
    16   34   14 1    
    17   16   15 1    
    18   17   15 1    
    19   35   15 1    
    20   21   16 1    
    21   18   17 1    
    22   19   17 1    
    23   36   17 1    
    24   43   18 1    
    25   20   19 1    
    26   21   19 1    
    27   37   19 1    
    28   44   20 1    
    29   22   21 1    
    30   38   21 1    
    31   23   22 1    
    32   32   22 1    
    33   24   23 2    
    34   39   23 1    
    35   25   24 1    
    36   26   25 1    
    37   32   25 2    
    38   27   26 2    
    39   28   26 am   
    40   29   28 1    
    41   40   28 1    
    42   30   29 1    
    43   31   29 2    
    44   41   30 1    
    45   42   30 1    
    46   32   31 1    
@<TRIPOS>SUBSTRUCTURE
     1 GNP201      1 GROUP   
@<TRIPOS>SET

