#    Name: 1C0K_1_CAVITY_N1_6.mol2
#    Modification time : Mon Mar 10 15:41:21 2014

@<TRIPOS>MOLECULE
1C0K_1_CAVITY_N1_6.mol2
   70     0     5     0     0
SMALL
NO_CHARGES


@<TRIPOS>ATOM
      1 CA         35.7446  131.1848   26.9851 C.3       5 GLY6        0.0000 
      2 CA         34.6354  132.1502   26.6886 C.3       5 GLY6        0.0000 
      3 CA         36.3178  131.4242   25.6197 C.3       5 GLY6        0.0000 
      4 N          36.8911  131.6635   24.2544 N.2       2 ALA2        0.0000 
      5 CA         33.7667  129.5833   29.1698 C.3       5 GLY6        0.0000 
      6 CA         32.6576  130.5486   28.8733 C.3       5 GLY6        0.0000 
      7 CA         34.3400  129.8226   27.8045 C.3       5 GLY6        0.0000 
      8 N          33.2308  130.7880   27.5080 N.2       2 ALA2        0.0000 
      9 CA         34.9132  130.0620   26.4391 C.3       5 GLY6        0.0000 
     10 O          33.8041  131.0273   26.1427 O.2       2 ALA2        0.0000 
     11 OD1        36.5956  129.3360   25.3703 O.3       3 ASP3        0.0000 
     12 N          35.4865  130.3013   25.0738 N.2       2 ALA2        0.0000 
     13 N          34.3773  131.2667   24.7774 N.2       2 ALA2        0.0000 
     14 N          36.0597  130.5407   23.7085 N.2       2 ALA2        0.0000 
     15 CZ         30.1438  130.1518   29.3963 C.ar      4 PHE5        0.0000 
     16 N          32.9353  128.4604   28.6239 N.2       2 ALA2        0.0000 
     17 N          31.8262  129.4258   28.3274 N.2       2 ALA2        0.0000 
     18 CZ         30.7170  130.3911   28.0310 C.ar      4 PHE5        0.0000 
     19 CA         33.5086  128.6998   27.2585 C.3       5 GLY6        0.0000 
     20 CA         32.3994  129.6651   26.9621 C.3       5 GLY6        0.0000 
     21 CA         34.0818  128.9391   25.8932 C.3       5 GLY6        0.0000 
     22 CA         32.9727  129.9045   25.5968 C.3       5 GLY6        0.0000 
     23 O          34.6551  129.1785   24.5279 O.2       2 ALA2        0.0000 
     24 CA         33.5459  130.1438   24.2315 C.3       5 GLY6        0.0000 
     25 OG         35.2283  129.4178   23.1626 O.2       1 SER1        0.0000 
     26 N          34.1192  130.3832   22.8661 N.2       2 ALA2        0.0000 
     27 O          30.4216  128.0635   29.1468 O.2       2 ALA2        0.0000 
     28 CZ         29.3124  129.0289   28.8504 C.ar      4 PHE5        0.0000 
     29 N          30.9948  128.3029   27.7815 N.2       2 ALA2        0.0000 
     30 CZ         29.8857  129.2683   27.4850 C.ar      4 PHE5        0.0000 
     31 CA         32.6772  127.5769   26.7126 C.3       5 GLY6        0.0000 
     32 CA         31.5681  128.5423   26.4162 C.3       5 GLY6        0.0000 
     33 O          33.2505  127.8163   25.3473 O.2       2 ALA2        0.0000 
     34 CA         32.1413  128.7816   25.0509 C.3       5 GLY6        0.0000 
     35 O          34.9329  127.0903   24.2784 O.2       2 ALA2        0.0000 
     36 O          33.8237  128.0556   23.9820 O.2       2 ALA2        0.0000 
     37 CA         32.7146  129.0210   23.6855 C.3       5 GLY6        0.0000 
     38 OG         34.3970  128.2950   22.6167 O.2       1 SER1        0.0000 
     39 O          33.2878  129.2604   22.3202 O.2       2 ALA2        0.0000 
     40 O          30.1634  127.1801   27.2356 O.2       2 ALA2        0.0000 
     41 N          30.7367  127.4194   25.8703 N.2       2 ALA2        0.0000 
     42 CZ         29.6275  128.3848   25.5738 C.ar      4 PHE5        0.0000 
     43 N          33.5282  125.7281   25.0978 N.2       2 ALA2        0.0000 
     44 N          32.4191  126.6934   24.8014 N.2       2 ALA2        0.0000 
     45 CA         31.3099  127.6588   24.5049 C.3       5 GLY6        0.0000 
     46 O          34.1015  125.9674   23.7325 O.2       2 ALA2        0.0000 
     47 N          32.9923  126.9328   23.4361 N.2       2 ALA2        0.0000 
     48 O          31.8832  127.8981   23.1396 O.2       2 ALA2        0.0000 
     49 OG         34.6747  126.2068   22.3672 O.2       1 SER1        0.0000 
     50 OG         33.5656  127.1721   22.0708 O.2       1 SER1        0.0000 
     51 O          32.4564  128.1375   21.7743 O.2       2 ALA2        0.0000 
     52 N          29.9053  126.2966   25.3243 N.2       2 ALA2        0.0000 
     53 CA         28.7962  127.2619   25.0279 C.3       5 GLY6        0.0000 
     54 N          30.4786  126.5359   23.9590 N.2       2 ALA2        0.0000 
     55 CA         29.3694  127.5013   23.6626 C.3       5 GLY6        0.0000 
     56 N          33.2701  124.8446   23.1866 N.2       2 ALA2        0.0000 
     57 N          32.1610  125.8099   22.8902 N.2       2 ALA2        0.0000 
     58 O          31.0518  126.7753   22.5937 O.2       2 ALA2        0.0000 
     59 CA         29.9427  127.7406   22.2973 C.3       5 GLY6        0.0000 
     60 OG         33.8433  125.0839   21.8213 O.2       1 SER1        0.0000 
     61 CA         32.7342  126.0493   21.5248 C.3       5 GLY6        0.0000 
     62 CA         31.6251  127.0147   21.2284 C.3       5 GLY6        0.0000 
     63 N          30.7563  124.4477   23.7096 N.2       2 ALA2        0.0000 
     64 N          29.6472  125.4131   23.4131 N.2       2 ALA2        0.0000 
     65 CZ         32.4387  123.7217   22.6407 C.ar      4 PHE5        0.0000 
     66 O          31.3296  124.6871   22.3442 O.2       2 ALA2        0.0000 
     67 O          30.2204  125.6524   22.0478 O.2       2 ALA2        0.0000 
     68 CA         33.0120  123.9611   21.2754 C.3       5 GLY6        0.0000 
     69 O          31.9028  124.9264   20.9789 O.2       2 ALA2        0.0000 
     70 CA         35.1713  130.9455   28.3504 C.3       5 GLY6        0.0000 
@<TRIPOS>BOND
@<TRIPOS>SUBSTRUCTURE
     1 SER1       25 GROUP   
     2 ALA2        4 GROUP   
     3 ASP3       11 GROUP   
     4 PHE5       15 GROUP   
     5 GLY6        1 GROUP   
@<TRIPOS>SET

