#    Name: 1c0k_FAD_1_INTS_M
#    Modification time : Mon Mar 24 20:04:48 2014

@<TRIPOS>MOLECULE
1c0k_FAD_1_INTS_M
  143     0     9     0     0
SMALL
NO_CHARGES


@<TRIPOS>ATOM
      1 N          32.7290  133.9685   32.6045 N.am      2 SEC2        0.0000 
      2 N          32.1630  133.4030   33.8200 N.am      8 SEL2        0.0000 
      3 N          33.2950  134.5340   31.3890 N.am      5 SEP2        0.0000 
      4 N          31.7210  134.1365   31.8310 N.am      2 SEC2        0.0000 
      5 N          30.1470  133.7390   32.2730 N.am      8 SEL2        0.0000 
      6 N          30.6485  133.9955   30.9620 N.am      2 SEC2        0.0000 
      7 N          31.1500  134.2520   29.6510 N.am      5 SEP2        0.0000 
      8 N          29.2940  133.5755   31.3555 N.am      2 SEC2        0.0000 
      9 N          28.4410  133.4120   30.4380 N.am      5 SEP2        0.0000 
     10 CA         31.4315  135.5735   34.6545 C.3       3 GLC5        0.0000 
     11 CA         30.4080  134.3790   36.0550 C.3       9 GLL5        0.0000 
     12 CA         32.4550  136.7680   33.2540 C.3       6 GLP5        0.0000 
     13 CA         31.3885  132.6130   36.7850 C.3       3 GLC5        0.0000 
     14 CA         32.3690  130.8470   37.5150 C.3       6 GLP5        0.0000 
     15 CA         30.0325  137.1730   34.1590 C.3       3 GLC5        0.0000 
     16 CA         29.8720  137.0580   36.0060 C.3       9 GLL5        0.0000 
     17 CA         30.1930  137.2880   32.3120 C.3       6 GLP5        0.0000 
     18 N          27.3380  137.2915   36.3500 N.am      2 SEC2        0.0000 
     19 N          28.6120  137.7850   36.0960 N.am      8 SEL2        0.0000 
     20 N          26.0640  136.7980   36.6040 N.am      5 SEP2        0.0000 
     21 O          28.3110  139.0215   35.5195 O.2       1 ALC1        0.0000 
     22 O          28.6120  137.7850   36.0960 O.2       7 ALL1        0.0000 
     23 O          28.0100  140.2580   34.9430 O.2       4 ALP1        0.0000 
     24 CA         31.6720  137.0450   35.0670 C.3       3 GLC5        0.0000 
     25 CA         30.8890  137.3220   36.8800 C.3       9 GLL5        0.0000 
     26 N          30.6215  140.1630   36.6410 N.am      2 SEC2        0.0000 
     27 N          31.1650  138.6480   36.9780 N.am      8 SEL2        0.0000 
     28 N          30.0780  141.6780   36.3040 N.am      5 SEP2        0.0000 
     29 O          32.0455  139.3380   36.1890 O.2       1 ALC1        0.0000 
     30 O          31.1650  138.6480   36.9780 O.2       7 ALL1        0.0000 
     31 O          32.9260  140.0280   35.4000 O.2       4 ALP1        0.0000 
     32 CA         28.4865  136.5325   38.5370 C.3       3 GLC5        0.0000 
     33 CA         30.3300  137.0430   38.2560 C.3       9 GLL5        0.0000 
     34 CA         26.6430  136.0220   38.8180 C.3       6 GLP5        0.0000 
     35 CA         30.2925  135.0440   39.0185 C.3       3 GLC5        0.0000 
     36 CA         30.2550  133.0450   39.7810 C.3       6 GLP5        0.0000 
     37 CA         31.5555  135.5320   41.1885 C.3       3 GLC5        0.0000 
     38 CA         32.2780  137.4730   41.2860 C.3       9 GLL5        0.0000 
     39 CA         30.8330  133.5910   41.0910 C.3       6 GLP5        0.0000 
     40 CA         33.3360  140.0350   42.7385 C.3       3 GLC5        0.0000 
     41 CA         32.3180  138.1590   42.4560 C.3       9 GLL5        0.0000 
     42 CA         34.3540  141.9110   43.0210 C.3       6 GLP5        0.0000 
     43 CA         32.2525  136.4845   43.7355 C.3       3 GLC5        0.0000 
     44 CA         32.1870  134.8100   45.0150 C.3       6 GLP5        0.0000 
     45 O          33.4360  138.4220   44.6625 O.2       1 ALC1        0.0000 
     46 O          33.3220  137.9480   43.3400 O.2       7 ALL1        0.0000 
     47 O          33.5500  138.8960   45.9850 O.2       4 ALP1        0.0000 
     48 N          31.5010  139.8980   43.9995 N.am      2 SEC2        0.0000 
     49 N          31.3620  139.0320   42.8660 N.am      8 SEL2        0.0000 
     50 N          31.6400  140.7640   45.1330 N.am      5 SEP2        0.0000 
     51 CA         28.8520  138.4055   42.9680 C.3       3 GLC5        0.0000 
     52 CA         30.2990  139.2230   41.9820 C.3       9 GLL5        0.0000 
     53 CA         27.4050  137.5880   43.9540 C.3       6 GLP5        0.0000 
     54 CA         28.8095  139.8830   40.7870 C.3       3 GLC5        0.0000 
     55 CA         27.3200  140.5430   39.5920 C.3       6 GLP5        0.0000 
     56 CA         31.1190  140.4655   40.3880 C.3       3 GLC5        0.0000 
     57 CA         31.9390  141.7080   38.7940 C.3       6 GLP5        0.0000 
     58 CA         31.1220  140.8425   42.7205 C.3       3 GLC5        0.0000 
     59 CA         31.9450  142.4620   43.4590 C.3       6 GLP5        0.0000 
     60 N          29.8480  139.9515   39.8840 N.am      2 SEC2        0.0000 
     61 N          30.1560  138.6170   40.7320 N.am      8 SEL2        0.0000 
     62 N          29.5400  141.2860   39.0360 N.am      5 SEP2        0.0000 
     63 CA         31.5795  139.7285   39.6465 C.3       3 GLC5        0.0000 
     64 CA         31.2200  137.7490   40.4990 C.3       9 GLL5        0.0000 
     65 CA         30.4905  135.9460   41.2510 C.3       3 GLC5        0.0000 
     66 CA         29.7610  134.1430   42.0030 C.3       6 GLP5        0.0000 
     67 N          26.8675  125.3905   25.9920 N.am      2 SEC2        0.0000 
     68 N          28.1920  125.5680   25.7230 N.am      8 SEL2        0.0000 
     69 N          25.5430  125.2130   26.2610 N.am      5 SEP2        0.0000 
     70 O          28.2780  125.4715   22.9305 O.2       1 ALC1        0.0000 
     71 O          29.2830  126.1970   23.8730 O.2       7 ALL1        0.0000 
     72 O          27.2730  124.7460   21.9880 O.2       4 ALP1        0.0000 
     73 N          29.0865  126.8375   21.1220 N.am      2 SEC2        0.0000 
     74 N          30.3100  126.7170   21.7950 N.am      8 SEL2        0.0000 
     75 N          27.8630  126.9580   20.4490 N.am      5 SEP2        0.0000 
     76 N          31.6320  129.1750   22.3475 N.am      2 SEC2        0.0000 
     77 N          32.2750  128.0370   23.2040 N.am      8 SEL2        0.0000 
     78 N          30.9890  130.3130   21.4910 N.am      5 SEP2        0.0000 
     79 CA         38.4160  130.2595   24.1905 C.3       3 GLC5        0.0000 
     80 CA         36.5610  130.6550   23.4680 C.3       9 GLL5        0.0000 
     81 CA         40.2710  129.8640   24.9130 C.3       6 GLP5        0.0000 
     82 CA         37.0895  131.0595   21.8310 C.3       3 GLC5        0.0000 
     83 CA         37.6180  131.4640   20.1940 C.3       6 GLP5        0.0000 
     84 CA         37.2040  132.5675   26.7970 C.3       3 GLC5        0.0000 
     85 CA         36.0840  130.9870   26.2790 C.3       9 GLL5        0.0000 
     86 CA         38.3240  134.1480   27.3150 C.3       6 GLP5        0.0000 
     87 CA         31.8125  129.8630   24.9290 C.3       3 GLC5        0.0000 
     88 CA         33.2140  128.8100   25.3980 C.3       9 GLL5        0.0000 
     89 CA         30.4110  130.9160   24.4600 C.3       6 GLP5        0.0000 
     90 CA         34.1655  127.9820   27.8835 C.3       3 GLC5        0.0000 
     91 CA         31.9570  128.0110   27.4800 C.3       9 GLL5        0.0000 
     92 CA         36.3740  127.9530   28.2870 C.3       6 GLP5        0.0000 
     93 CA         32.7275  126.2625   27.5910 C.3       3 GLC5        0.0000 
     94 CA         33.4980  124.5140   27.7020 C.3       6 GLP5        0.0000 
     95 CA         29.3675  129.5815   27.3030 C.3       3 GLC5        0.0000 
     96 CA         31.0750  129.0490   28.1430 C.3       9 GLL5        0.0000 
     97 CA         27.6600  130.1140   26.4630 C.3       6 GLP5        0.0000 
     98 N          29.9835  126.6640   29.6570 N.am      2 SEC2        0.0000 
     99 N          31.0700  127.8350   30.1990 N.am      8 SEL2        0.0000 
    100 N          28.8970  125.4930   29.1150 N.am      5 SEP2        0.0000 
    101 O          32.1320  127.0475   30.0325 O.2       1 ALC1        0.0000 
    102 O          31.0700  127.8350   30.1990 O.2       7 ALL1        0.0000 
    103 O          33.1940  126.2600   29.8660 O.2       4 ALP1        0.0000 
    104 CA         28.8240  129.9470   28.3680 C.3       3 GLC5        0.0000 
    105 CA         29.9880  129.7800   30.2730 C.3       9 GLL5        0.0000 
    106 O          29.2455  132.2530   30.0915 O.2       1 ALC1        0.0000 
    107 O          30.0500  131.0940   29.7450 O.2       7 ALL1        0.0000 
    108 O          28.4410  133.4120   30.4380 O.2       4 ALP1        0.0000 
    109 CA         31.7735  129.9365   32.6870 C.3       3 GLC5        0.0000 
    110 CA         30.0570  129.7970   31.8010 C.3       9 GLL5        0.0000 
    111 CA         33.4900  130.0760   33.5730 C.3       6 GLP5        0.0000 
    112 N          29.0585  129.8415   36.0030 N.am      2 SEC2        0.0000 
    113 N          29.1800  129.8120   34.6110 N.am      8 SEL2        0.0000 
    114 N          28.9370  129.8710   37.3950 N.am      5 SEP2        0.0000 
    115 N          26.2935  131.4135   33.4980 N.am      2 SEC2        0.0000 
    116 N          27.7370  131.7470   33.9320 N.am      8 SEL2        0.0000 
    117 N          24.8500  131.0800   33.0640 N.am      5 SEP2        0.0000 
    118 CA         30.1193  134.0137   38.0452 C.3       3 GLC5        0.0000 
    119 CA         28.1792  136.1720   37.5515 C.3       3 GLC5        0.0000 
    120 CA         29.5590  135.5860   36.5640 C.3       9 GLL5        0.0000 
    121 CA         30.6617  138.8950   35.3310 C.3       3 GLC5        0.0000 
    122 CA         30.9430  140.6000   34.2190 C.3       6 GLP5        0.0000 
    123 CA         32.6380  130.2380   23.6702 C.3       3 GLC5        0.0000 
    124 CA         33.1710  128.6860   24.0830 C.3       9 GLL5        0.0000 
    125 CA         31.4780  131.4960   23.5370 C.3       6 GLP5        0.0000 
    126 CA         35.1240  132.5233   25.5622 C.3       3 GLC5        0.0000 
    127 CA         35.0300  130.1620   25.4880 C.3       9 GLL5        0.0000 
    128 CA         34.6910  134.4720   25.2410 C.3       6 GLP5        0.0000 
    129 CA         35.9655  129.2638   27.0853 C.3       3 GLC5        0.0000 
    130 CA         33.0289  130.6811   24.5290 C.3       3 GLC5        0.0000 
    131 CA         33.9480  129.6100   26.2230 C.3       9 GLL5        0.0000 
    132 CA         34.9775  128.5815   27.0487 C.3       3 GLC5        0.0000 
    133 CA         30.9635  129.7230   26.1358 C.3       3 GLC5        0.0000 
    134 CA         29.5502  127.6575   29.3855 C.3       3 GLC5        0.0000 
    135 CA         28.0100  126.3030   29.9100 C.3       6 GLP5        0.0000 
    136 CA         32.2240  129.3137   31.1605 C.3       3 GLC5        0.0000 
    137 CA         31.1060  128.9750   29.5790 C.3       9 GLL5        0.0000 
    138 CA         33.9010  129.2500   32.3950 C.3       6 GLP5        0.0000 
    139 CA         28.0328  130.1762   30.5550 C.3       3 GLC5        0.0000 
    140 CA         26.0430  130.5640   30.0730 C.3       6 GLP5        0.0000 
    141 CA         29.0162  128.0457   30.4735 C.3       3 GLC5        0.0000 
    142 CA         31.8875  130.9061   30.7402 C.3       3 GLC5        0.0000 
    143 CA         33.4730  132.2250   30.6170 C.3       6 GLP5        0.0000 
@<TRIPOS>BOND
@<TRIPOS>SUBSTRUCTURE
     1 ALC1       21 GROUP        1 X    ALC  0     ROOT ALC X 1
     2 SEC2        1 GROUP        1 X    SEC  0     **** SEC X 2
     3 GLC5       10 GROUP        1 X    GLC  0     **** GLC X 6
     4 ALP1       23 GROUP        1 Y    ALP  0     ROOT ALP Y 8
     5 SEP2        3 GROUP        1 Y    SEP  0     **** SEP Y 9
     6 GLP5       12 GROUP        1 Y    GLP  0     **** GLP Y 13
     7 ALL1       22 GROUP        1 Z    ALL  0     ROOT ALL Z 15
     8 SEL2        2 GROUP        1 Z    SEL  0     **** SEL Z 16
     9 GLL5       11 GROUP        1 Z    GLL  0     **** GLL Z 20
@<TRIPOS>SET

