#    Name: 1c0k_FAD_1_ligand
#    Modification time : Mon Mar 24 20:04:48 2014

@<TRIPOS>MOLECULE
1c0k_FAD_1_ligand
   84    89     1     0     0
SMALL
NO_CHARGES


@<TRIPOS>ATOM
      1 PA         30.6770  133.3810   33.6570 P.3       1 FAD1363     0.0000 
      2 O1A        32.1630  133.4030   33.8200 O.co2     1 FAD1363     0.0000 
      3 O2A        30.1470  133.7390   32.2730 O.co2     1 FAD1363     0.0000 
      4 O5B        29.9520  134.3630   34.6490 O.3       1 FAD1363     0.0000 
      5 C5B        30.4080  134.3790   36.0550 C.3       1 FAD1363     0.0000 
      6 C4B        29.5590  135.5860   36.5640 C.3       1 FAD1363     0.0000 
      7 O4B        29.8880  135.6950   37.9980 O.3       1 FAD1363     0.0000 
      8 C3B        29.8720  137.0580   36.0060 C.3       1 FAD1363     0.0000 
      9 O3B        28.6120  137.7850   36.0960 O.3       1 FAD1363     0.0000 
     10 C2B        30.8890  137.3220   36.8800 C.3       1 FAD1363     0.0000 
     11 O2B        31.1650  138.6480   36.9780 O.3       1 FAD1363     0.0000 
     12 C1B        30.3300  137.0430   38.2560 C.3       1 FAD1363     0.0000 
     13 N9A        31.2740  137.0230   39.3790 N.pl3     1 FAD1363     0.0000 
     14 C8A        32.5210  136.2400   39.3870 C.2       1 FAD1363     0.0000 
     15 N7A        33.0050  136.5450   40.6260 N.2       1 FAD1363     0.0000 
     16 C5A        32.2780  137.4730   41.2860 C.ar      1 FAD1363     0.0000 
     17 C6A        32.3180  138.1590   42.4560 C.ar      1 FAD1363     0.0000 
     18 N6A        33.3220  137.9480   43.3400 N.pl3     1 FAD1363     0.0000 
     19 N1A        31.3620  139.0320   42.8660 N.ar      1 FAD1363     0.0000 
     20 C2A        30.2990  139.2230   41.9820 C.ar      1 FAD1363     0.0000 
     21 N3A        30.1560  138.6170   40.7320 N.ar      1 FAD1363     0.0000 
     22 C4A        31.2200  137.7490   40.4990 C.ar      1 FAD1363     0.0000 
     23 N1         30.0780  126.9850   25.9300 N.2       1 FAD1363     0.0000 
     24 C2         29.1620  126.1860   25.2820 C.2       1 FAD1363     0.0000 
     25 O2         28.1920  125.5680   25.7230 O.2       1 FAD1363     0.0000 
     26 N3         29.2830  126.1970   23.8730 N.am      1 FAD1363     0.0000 
     27 C4         30.2790  126.8300   23.1410 C.2       1 FAD1363     0.0000 
     28 O4         30.3100  126.7170   21.7950 O.2       1 FAD1363     0.0000 
     29 C4X        31.2350  127.4890   23.8960 C.2       1 FAD1363     0.0000 
     30 N5         32.2750  128.0370   23.2040 N.2       1 FAD1363     0.0000 
     31 C5X        33.1710  128.6860   24.0830 C.ar      1 FAD1363     0.0000 
     32 C6         34.4250  129.2740   23.5240 C.ar      1 FAD1363     0.0000 
     33 C7         35.3930  130.0830   24.1500 C.ar      1 FAD1363     0.0000 
     34 C7M        36.5610  130.6550   23.4680 C.3       1 FAD1363     0.0000 
     35 C8         35.0300  130.1620   25.4880 C.ar      1 FAD1363     0.0000 
     36 C8M        36.0840  130.9870   26.2790 C.3       1 FAD1363     0.0000 
     37 C9         33.9480  129.6100   26.2230 C.ar      1 FAD1363     0.0000 
     38 C9A        33.2140  128.8100   25.3980 C.ar      1 FAD1363     0.0000 
     39 N10        32.0710  128.1550   26.1140 N.pl3     1 FAD1363     0.0000 
     40 C10        31.1750  127.5160   25.2890 C.2       1 FAD1363     0.0000 
     41 C1'        31.9570  128.0110   27.4800 C.3       1 FAD1363     0.0000 
     42 C2'        31.0750  129.0490   28.1430 C.3       1 FAD1363     0.0000 
     43 O2'        31.6070  130.4050   27.6950 O.3       1 FAD1363     0.0000 
     44 C3'        31.1060  128.9750   29.5790 C.3       1 FAD1363     0.0000 
     45 O3'        31.0700  127.8350   30.1990 O.3       1 FAD1363     0.0000 
     46 C4'        29.9880  129.7800   30.2730 C.3       1 FAD1363     0.0000 
     47 O4'        30.0500  131.0940   29.7450 O.3       1 FAD1363     0.0000 
     48 C5'        30.0570  129.7970   31.8010 C.3       1 FAD1363     0.0000 
     49 O5'        29.0050  130.6550   32.2590 O.3       1 FAD1363     0.0000 
     50 P          28.9570  130.9860   33.8060 P.3       1 FAD1363     0.0000 
     51 O1P        29.1800  129.8120   34.6110 O.co2     1 FAD1363     0.0000 
     52 O2P        27.7370  131.7470   33.9320 O.co2     1 FAD1363     0.0000 
     53 O3P        30.2730  131.8750   34.0640 O.3       1 FAD1363     0.0000 
     54 H          31.4181  134.6307   36.1326 H         1 FAD1363     0.0000 
     55 H          30.1061  133.5231   36.5707 H         1 FAD1363     0.0000 
     56 H          28.5274  135.3918   36.4631 H         1 FAD1363     0.0000 
     57 H          30.1900  136.8726   35.0157 H         1 FAD1363     0.0000 
     58 H          31.7399  136.7175   36.7673 H         1 FAD1363     0.0000 
     59 H          29.4874  137.6552   38.4151 H         1 FAD1363     0.0000 
     60 H          32.8180  135.7258   38.7237 H         1 FAD1363     0.0000 
     61 H          33.3038  138.5078   44.1684 H         1 FAD1363     0.0000 
     62 H          33.9927  137.2511   43.0860 H         1 FAD1363     0.0000 
     63 H          29.5254  139.8926   42.2887 H         1 FAD1363     0.0000 
     64 H          28.5322  125.6652   23.3290 H         1 FAD1363     0.0000 
     65 H          34.5868  129.0253   22.4853 H         1 FAD1363     0.0000 
     66 H          33.7876  129.7897   27.1453 H         1 FAD1363     0.0000 
     67 H          32.9536  128.0574   27.9949 H         1 FAD1363     0.0000 
     68 H          31.5453  127.0066   27.7666 H         1 FAD1363     0.0000 
     69 H          30.0777  128.9503   27.7544 H         1 FAD1363     0.0000 
     70 H          32.0431  129.5592   29.9346 H         1 FAD1363     0.0000 
     71 H          29.0363  129.3144   29.9780 H         1 FAD1363     0.0000 
     72 H          31.0354  130.1653   32.0888 H         1 FAD1363     0.0000 
     73 H          29.9334  128.7792   32.1540 H         1 FAD1363     0.0000 
     74 H          37.1262  131.1965   24.0904 H         1 FAD1363     0.0000 
     75 H          37.1492  129.9452   23.0804 H         1 FAD1363     0.0000 
     76 H          36.2938  131.2573   22.7158 H         1 FAD1363     0.0000 
     77 H          36.9935  130.5744   26.2275 H         1 FAD1363     0.0000 
     78 H          36.1651  131.9199   25.9280 H         1 FAD1363     0.0000 
     79 H          35.8488  131.0580   27.2484 H         1 FAD1363     0.0000 
     80 H          28.7504  138.6111   35.5498 H         1 FAD1363     0.0000 
     81 H          31.8564  138.8208   36.2765 H         1 FAD1363     0.0000 
     82 H          31.1988  131.0644   28.3263 H         1 FAD1363     0.0000 
     83 H          32.0271  127.6087   30.3801 H         1 FAD1363     0.0000 
     84 H          29.3156  131.5927   30.2053 H         1 FAD1363     0.0000 
@<TRIPOS>BOND
     1    2    1 ar   
     2    3    1 ar   
     3    4    1 1    
     4   53    1 1    
     5    5    4 1    
     6    6    5 1    
     7   54    5 1    
     8   55    5 1    
     9    7    6 1    
    10    8    6 1    
    11   56    6 1    
    12   12    7 1    
    13    9    8 1    
    14   10    8 1    
    15   57    8 1    
    16   80    9 1    
    17   11   10 1    
    18   12   10 1    
    19   58   10 1    
    20   81   11 1    
    21   13   12 1    
    22   59   12 1    
    23   14   13 1    
    24   22   13 1    
    25   15   14 2    
    26   60   14 1    
    27   16   15 1    
    28   17   16 ar   
    29   22   16 ar   
    30   18   17 1    
    31   19   17 ar   
    32   61   18 1    
    33   62   18 1    
    34   20   19 ar   
    35   21   20 ar   
    36   63   20 1    
    37   22   21 ar   
    38   24   23 1    
    39   40   23 2    
    40   25   24 2    
    41   26   24 am   
    42   27   26 am   
    43   64   26 1    
    44   28   27 2    
    45   29   27 1    
    46   30   29 2    
    47   40   29 1    
    48   31   30 1    
    49   32   31 ar   
    50   38   31 ar   
    51   33   32 ar   
    52   65   32 1    
    53   34   33 1    
    54   35   33 ar   
    55   74   34 1    
    56   75   34 1    
    57   76   34 1    
    58   36   35 1    
    59   37   35 ar   
    60   77   36 1    
    61   78   36 1    
    62   79   36 1    
    63   38   37 ar   
    64   66   37 1    
    65   39   38 1    
    66   40   39 1    
    67   41   39 1    
    68   42   41 1    
    69   67   41 1    
    70   68   41 1    
    71   43   42 1    
    72   44   42 1    
    73   69   42 1    
    74   82   43 1    
    75   45   44 1    
    76   46   44 1    
    77   70   44 1    
    78   83   45 1    
    79   47   46 1    
    80   48   46 1    
    81   71   46 1    
    82   84   47 1    
    83   49   48 1    
    84   72   48 1    
    85   73   48 1    
    86   50   49 1    
    87   51   50 ar   
    88   52   50 ar   
    89   53   50 1    
@<TRIPOS>SUBSTRUCTURE
     1 FAD1363     1 GROUP   
@<TRIPOS>SET

