#    Name: 4bwx_AGS_2_INTS_M
#    Modification time : Tue Mar 25 08:30:07 2014

@<TRIPOS>MOLECULE
4bwx_AGS_2_INTS_M
   71     0    15     0     0
SMALL
NO_CHARGES


@<TRIPOS>ATOM
      1 Zn        -53.4650   21.4495   34.6700 Zn        4 ZIC7        0.0000 
      2 Zn        -54.3490   20.7790   34.6420 Zn       14 ZIL7        0.0000 
      3 Zn        -52.5810   22.1200   34.6980 Zn        9 ZIP7        0.0000 
      4 NZ        -52.0695   18.4810   33.4555 N.4       3 LYC4        0.0000 
      5 NZ        -53.3860   18.2780   34.3740 N.4      13 LYL4        0.0000 
      6 NZ        -50.7530   18.6840   32.5370 N.4       8 LYP4        0.0000 
      7 N         -52.1255   19.3160   32.3940 N.am      2 SEC2        0.0000 
      8 N         -53.4980   19.9480   32.2510 N.am     12 SEL2        0.0000 
      9 N         -50.7530   18.6840   32.5370 N.am      7 SEP2        0.0000 
     10 NZ        -49.5990   20.8510   32.9810 N.4       3 LYC4        0.0000 
     11 NZ        -50.2500   20.8380   31.8620 N.4      13 LYL4        0.0000 
     12 NZ        -47.6760   20.5200   33.9560 N.4       8 LYP4        0.0000 
     13 NZ        -50.5015   19.7610   32.1995 N.4       3 LYC4        0.0000 
     14 N         -49.5990   20.8510   32.9810 N.am      2 SEC2        0.0000 
     15 N         -50.2500   20.8380   31.8620 N.am     12 SEL2        0.0000 
     16 N         -48.9480   20.8640   34.1000 N.am      7 SEP2        0.0000 
     17 N         -48.7145   20.5825   32.3020 N.am      2 SEC2        0.0000 
     18 N         -47.1790   20.3270   32.7420 N.am      7 SEP2        0.0000 
     19 NZ        -51.1700   20.4370   32.5850 N.4       3 LYC4        0.0000 
     20 NZ        -51.5870   22.1900   32.6330 N.4      13 LYL4        0.0000 
     21 Zn        -52.0840   22.1550   33.6655 Zn        4 ZIC7        0.0000 
     22 Zn        -51.5870   22.1900   32.6330 Zn       14 ZIL7        0.0000 
     23 N         -50.2675   21.5270   33.3665 N.am      2 SEC2        0.0000 
     24 N         -51.5870   22.1900   32.6330 N.am     12 SEL2        0.0000 
     25 CA        -52.4855   26.0115   32.1905 C.3       5 GLC5        0.0000 
     26 CA        -51.2030   24.6430   31.3360 C.3      15 GLL5        0.0000 
     27 CA        -53.7680   27.3800   33.0450 C.3      10 GLP5        0.0000 
     28 CA        -50.2135   25.0230   32.9640 C.3       5 GLC5        0.0000 
     29 CA        -49.2240   25.4030   34.5920 C.3      10 GLP5        0.0000 
     30 CA        -49.9555   27.2045   31.4695 C.3       5 GLC5        0.0000 
     31 CA        -50.5440   25.5830   30.3650 C.3      15 GLL5        0.0000 
     32 CA        -49.3670   28.8260   32.5740 C.3      10 GLP5        0.0000 
     33 CA        -49.2355   25.4265   32.0900 C.3       5 GLC5        0.0000 
     34 CA        -47.9270   25.2700   33.8150 C.3      10 GLP5        0.0000 
     35 CA        -49.4805   25.1910   26.3615 C.3       5 GLC5        0.0000 
     36 CA        -49.1930   25.0090   28.5350 C.3      15 GLL5        0.0000 
     37 CA        -49.7680   25.3730   24.1880 C.3      10 GLP5        0.0000 
     38 CA        -47.6000   23.7670   27.7705 C.3       5 GLC5        0.0000 
     39 CA        -46.0070   22.5250   27.0060 C.3      10 GLP5        0.0000 
     40 CA        -48.9090   27.3070   31.0685 C.3       5 GLC5        0.0000 
     41 CA        -48.4510   25.7880   29.5630 C.3      15 GLL5        0.0000 
     42 CA        -48.1890   25.5290   31.6890 C.3       5 GLC5        0.0000 
     43 CA        -43.3595   24.2530   28.2180 C.3       5 GLC5        0.0000 
     44 CA        -43.6070   25.2390   30.0660 C.3      15 GLL5        0.0000 
     45 CA        -43.1120   23.2670   26.3700 C.3      10 GLP5        0.0000 
     46 O         -41.1650   25.0435   30.5850 O.2       1 ALC1        0.0000 
     47 O         -42.6010   24.3130   30.4990 O.2      11 ALL1        0.0000 
     48 O         -39.7290   25.7740   30.6710 O.2       6 ALP1        0.0000 
     49 N         -42.0885   27.2695   28.8530 N.am      2 SEC2        0.0000 
     50 N         -43.2490   26.4470   29.5980 N.am     12 SEL2        0.0000 
     51 N         -40.9280   28.0920   28.1080 N.am      7 SEP2        0.0000 
     52 CA        -45.5145   28.0765   30.8055 C.3       5 GLC5        0.0000 
     53 CA        -44.1700   27.3390   29.1810 C.3      15 GLL5        0.0000 
     54 CA        -46.8590   28.8140   32.4300 C.3      10 GLP5        0.0000 
     55 CA        -42.1140   27.9085   29.7570 C.3       5 GLC5        0.0000 
     56 CA        -40.0580   28.4780   30.3330 C.3      10 GLP5        0.0000 
     57 CA        -42.6035   27.8055   27.9240 C.3       5 GLC5        0.0000 
     58 CA        -41.0370   28.2720   26.6670 C.3      10 GLP5        0.0000 
     59 CA        -44.8685   26.9130   27.3110 C.3       5 GLC5        0.0000 
     60 CA        -45.5670   26.4870   25.4410 C.3      10 GLP5        0.0000 
     61 CA        -46.3860   27.3205   31.0620 C.3       5 GLC5        0.0000 
     62 CA        -45.9130   25.8270   29.6940 C.3      15 GLL5        0.0000 
     63 CA        -45.7400   26.1570   27.5675 C.3       5 GLC5        0.0000 
     64 CA        -50.4507   23.3605   28.0815 C.3       5 GLC5        0.0000 
     65 CA        -51.0060   21.6990   27.4040 C.3      10 GLP5        0.0000 
     66 CA        -43.3832   25.8167   31.6953 C.3       5 GLC5        0.0000 
     67 CA        -44.9520   24.8860   30.1310 C.3      15 GLL5        0.0000 
     68 CA        -42.4870   26.5710   33.2920 C.3      10 GLP5        0.0000 
     69 CA        -45.7197   23.9408   28.4593 C.3       5 GLC5        0.0000 
     70 CA        -45.2291   24.8314   31.8206 C.3       5 GLC5        0.0000 
     71 CA        -45.3620   24.2180   33.7450 C.3      10 GLP5        0.0000 
@<TRIPOS>BOND
@<TRIPOS>SUBSTRUCTURE
     1 ALC1       46 GROUP        1 X    ALC  0     ROOT ALC X 1
     2 SEC2        7 GROUP        1 X    SEC  0     **** SEC X 2
     3 LYC4        4 GROUP        1 X    LYC  0     **** LYC X 4
     4 ZIC7        1 GROUP        1 X    ZIC  0     **** ZIC X 5
     5 GLC5       25 GROUP        1 X    GLC  0     **** GLC X 6
     6 ALP1       48 GROUP        1 Y    ALP  0     ROOT ALP Y 8
     7 SEP2        9 GROUP        1 Y    SEP  0     **** SEP Y 9
     8 LYP4        6 GROUP        1 Y    LYP  0     **** LYP Y 11
     9 ZIP7        3 GROUP        1 Y    ZIP  0     **** ZIP Y 12
    10 GLP5       27 GROUP        1 Y    GLP  0     **** GLP Y 13
    11 ALL1       47 GROUP        1 Z    ALL  0     ROOT ALL Z 15
    12 SEL2        8 GROUP        1 Z    SEL  0     **** SEL Z 16
    13 LYL4        5 GROUP        1 Z    LYL  0     **** LYL Z 18
    14 ZIL7        2 GROUP        1 Z    ZIL  0     **** ZIL Z 19
    15 GLL5       26 GROUP        1 Z    GLL  0     **** GLL Z 20
@<TRIPOS>SET

