#    Name: 4bwx_AGS_2_ligand
#    Modification time : Tue Mar 25 08:30:07 2014

@<TRIPOS>MOLECULE
4bwx_AGS_2_ligand
   43    45     1     0     0
SMALL
NO_CHARGES


@<TRIPOS>ATOM
      1 PG        -53.5880   19.7110   33.7960 P.3       1 AGS1647     0.0000 
      2 S1G       -55.4510   18.9930   33.4350 S.3       1 AGS1647     0.0000 
      3 O2G       -54.3490   20.7790   34.6420 O.co2     1 AGS1647     0.0000 
      4 O3G       -53.3860   18.2780   34.3740 O.co2     1 AGS1647     0.0000 
      5 PB        -53.6200   21.4260   31.7020 P.3       1 AGS1647     0.0000 
      6 O1B       -54.1640   20.6750   30.4600 O.co2     1 AGS1647     0.0000 
      7 O2B       -55.0150   22.1190   31.6600 O.co2     1 AGS1647     0.0000 
      8 O3B       -53.4980   19.9480   32.2510 O.3       1 AGS1647     0.0000 
      9 PA        -50.9680   22.0710   31.2130 P.3       1 AGS1647     0.0000 
     10 O1A       -50.2500   20.8380   31.8620 O.co2     1 AGS1647     0.0000 
     11 O2A       -51.5870   22.1900   32.6330 O.co2     1 AGS1647     0.0000 
     12 O3A       -52.4750   21.9610   30.7250 O.3       1 AGS1647     0.0000 
     13 O5'       -50.3870   23.5180   31.5350 O.3       1 AGS1647     0.0000 
     14 C5'       -51.2030   24.6430   31.3360 C.3       1 AGS1647     0.0000 
     15 C4'       -50.5440   25.5830   30.3650 C.3       1 AGS1647     0.0000 
     16 O4'       -49.2150   25.7920   30.7290 O.3       1 AGS1647     0.0000 
     17 C3'       -50.5980   25.0350   28.9830 C.3       1 AGS1647     0.0000 
     18 O3'       -51.3730   25.8230   28.1650 O.3       1 AGS1647     0.0000 
     19 C2'       -49.1930   25.0090   28.5350 C.3       1 AGS1647     0.0000 
     20 O2'       -49.0840   25.5630   27.2740 O.3       1 AGS1647     0.0000 
     21 C1'       -48.4510   25.7880   29.5630 C.3       1 AGS1647     0.0000 
     22 N9        -47.1420   25.2240   29.8660 N.pl3     1 AGS1647     0.0000 
     23 C8        -46.9220   23.9960   30.3770 C.2       1 AGS1647     0.0000 
     24 N7        -45.6210   23.7970   30.5320 N.2       1 AGS1647     0.0000 
     25 C5        -44.9520   24.8860   30.1310 C.ar      1 AGS1647     0.0000 
     26 C6        -43.6070   25.2390   30.0660 C.ar      1 AGS1647     0.0000 
     27 N6        -42.6010   24.3130   30.4990 N.pl3     1 AGS1647     0.0000 
     28 N1        -43.2490   26.4470   29.5980 N.ar      1 AGS1647     0.0000 
     29 C2        -44.1700   27.3390   29.1810 C.ar      1 AGS1647     0.0000 
     30 N3        -45.4970   27.0290   29.2290 N.ar      1 AGS1647     0.0000 
     31 C4        -45.9130   25.8270   29.6940 C.ar      1 AGS1647     0.0000 
     32 H         -51.3817   25.1936   32.2733 H         1 AGS1647     0.0000 
     33 H         -52.1891   24.3700   30.9280 H         1 AGS1647     0.0000 
     34 H         -51.1034   26.5212   30.3790 H         1 AGS1647     0.0000 
     35 H         -50.9482   24.0138   29.0491 H         1 AGS1647     0.0000 
     36 H         -48.8495   23.9851   28.5793 H         1 AGS1647     0.0000 
     37 H         -48.3283   26.8070   29.1937 H         1 AGS1647     0.0000 
     38 H         -47.6295   23.3540   30.5972 H         1 AGS1647     0.0000 
     39 H         -41.6527   24.6133   30.3958 H         1 AGS1647     0.0000 
     40 H         -42.9320   23.4445   30.8679 H         1 AGS1647     0.0000 
     41 H         -43.8739   28.2698   28.8198 H         1 AGS1647     0.0000 
     42 H         -52.0779   25.2103   27.8077 H         1 AGS1647     0.0000 
     43 H         -49.9960   25.9176   27.0675 H         1 AGS1647     0.0000 
@<TRIPOS>BOND
     1    2    1 1    
     2    3    1 ar   
     3    4    1 ar   
     4    8    1 1    
     5    6    5 ar   
     6    7    5 ar   
     7    8    5 1    
     8   12    5 1    
     9   10    9 ar   
    10   11    9 ar   
    11   12    9 1    
    12   13    9 1    
    13   14   13 1    
    14   15   14 1    
    15   32   14 1    
    16   33   14 1    
    17   16   15 1    
    18   17   15 1    
    19   34   15 1    
    20   21   16 1    
    21   18   17 1    
    22   19   17 1    
    23   35   17 1    
    24   42   18 1    
    25   20   19 1    
    26   21   19 1    
    27   36   19 1    
    28   43   20 1    
    29   22   21 1    
    30   37   21 1    
    31   23   22 1    
    32   31   22 1    
    33   24   23 2    
    34   38   23 1    
    35   25   24 1    
    36   26   25 ar   
    37   31   25 ar   
    38   27   26 1    
    39   28   26 ar   
    40   39   27 1    
    41   40   27 1    
    42   29   28 ar   
    43   30   29 ar   
    44   41   29 1    
    45   31   30 ar   
@<TRIPOS>SUBSTRUCTURE
     1 AGS1647     1 GROUP   
@<TRIPOS>SET

