#    Name: 2qtc_TDK_1_INTS_M
#    Modification time : Mon Mar 24 22:45:54 2014

@<TRIPOS>MOLECULE
2qtc_TDK_1_INTS_M
  100     0    15     0     0
SMALL
NO_CHARGES


@<TRIPOS>ATOM
      1 NZ         15.4610  -67.7270    1.5305 N.4       3 LYC4        0.0000 
      2 NZ         14.5530  -66.5660    1.7640 N.4      13 LYL4        0.0000 
      3 NZ         16.3690  -68.8880    1.2970 N.4       8 LYP4        0.0000 
      4 Zn         14.0890  -66.2360    2.5915 Zn        4 ZIC7        0.0000 
      5 Zn         14.5530  -66.5660    1.7640 Zn       14 ZIL7        0.0000 
      6 Zn         13.6250  -65.9060    3.4190 Zn        9 ZIP7        0.0000 
      7 N          13.1295  -67.1705    1.5615 N.am      2 SEC2        0.0000 
      8 N          14.5530  -66.5660    1.7640 N.am     12 SEL2        0.0000 
      9 N          11.7060  -67.7750    1.3590 N.am      7 SEP2        0.0000 
     10 N          15.4610  -67.7270    1.5305 N.am      2 SEC2        0.0000 
     11 N          16.3690  -68.8880    1.2970 N.am      7 SEP2        0.0000 
     12 N          13.4730  -66.0980   -1.7820 N.am      2 SEC2        0.0000 
     13 N          13.3530  -65.5530   -0.2310 N.am     12 SEL2        0.0000 
     14 N          13.5930  -66.6430   -3.3330 N.am      7 SEP2        0.0000 
     15 N          13.6965  -64.1685   -0.9955 N.am      2 SEC2        0.0000 
     16 N          14.0400  -62.7840   -1.7600 N.am      7 SEP2        0.0000 
     17 N          12.5295  -66.6640    0.5640 N.am      2 SEC2        0.0000 
     18 N          12.9225  -65.1095    0.8555 N.am      2 SEC2        0.0000 
     19 N          12.4920  -64.6660    1.9420 N.am      7 SEP2        0.0000 
     20 NZ         16.0160  -67.7470    0.4145 N.4       3 LYC4        0.0000 
     21 NZ         15.6630  -66.6060   -0.4680 N.4      13 LYL4        0.0000 
     22 N          16.2815  -65.8140   -1.5315 N.am      2 SEC2        0.0000 
     23 N          15.6630  -66.6060   -0.4680 N.am     12 SEL2        0.0000 
     24 N          16.9000  -65.0220   -2.5950 N.am      7 SEP2        0.0000 
     25 N          16.0160  -67.7470    0.4145 N.am      2 SEC2        0.0000 
     26 Zn         14.4590  -65.2335    3.3240 Zn        4 ZIC7        0.0000 
     27 Zn         15.2930  -64.5610    3.2290 Zn       14 ZIL7        0.0000 
     28 N          15.1520  -63.5515    4.2725 N.am      2 SEC2        0.0000 
     29 N          15.2930  -64.5610    3.2290 N.am     12 SEL2        0.0000 
     30 N          15.0110  -62.5420    5.3160 N.am      7 SEP2        0.0000 
     31 N          16.5080  -61.5865    3.1490 N.am      2 SEC2        0.0000 
     32 N          16.2930  -62.5280    2.0740 N.am     12 SEL2        0.0000 
     33 N          16.7230  -60.6450    4.2240 N.am      7 SEP2        0.0000 
     34 CA         18.9760  -65.3330   -2.4600 C.3       5 GLC5        0.0000 
     35 CA         20.6720  -64.9490   -1.2070 C.3      15 GLL5        0.0000 
     36 CA         17.2800  -65.7170   -3.7130 C.3      10 GLP5        0.0000 
     37 CA         20.1735  -62.9045   -0.5060 C.3       5 GLC5        0.0000 
     38 CA         19.6750  -60.8600    0.1950 C.3      10 GLP5        0.0000 
     39 CA         22.8965  -64.3865    4.0625 C.3       5 GLC5        0.0000 
     40 CA         22.4770  -63.6600    2.0910 C.3      15 GLL5        0.0000 
     41 CA         23.3160  -65.1130    6.0340 C.3      10 GLP5        0.0000 
     42 CA         21.7620  -62.6010   -0.3620 C.3       5 GLC5        0.0000 
     43 CA         22.1870  -64.2500   -1.5360 C.3      15 GLL5        0.0000 
     44 CA         21.3370  -60.9520    0.8120 C.3      10 GLP5        0.0000 
     45 N          24.6895  -62.6585   -4.0270 N.am      2 SEC2        0.0000 
     46 N          23.7940  -63.3880   -3.1260 N.am     12 SEL2        0.0000 
     47 N          25.5850  -61.9290   -4.9280 N.am      7 SEP2        0.0000 
     48 CA         20.0730  -64.7210   -4.9560 C.3       5 GLC5        0.0000 
     49 CA         21.7720  -64.4460   -3.9720 C.3      15 GLL5        0.0000 
     50 CA         18.3740  -64.9960   -5.9400 C.3      10 GLP5        0.0000 
     51 CA         22.2265  -64.2505   -6.0245 C.3       5 GLC5        0.0000 
     52 CA         22.6810  -64.0550   -8.0770 C.3      10 GLP5        0.0000 
     53 CA         21.5845  -62.6415   -5.0790 C.3       5 GLC5        0.0000 
     54 CA         21.3970  -60.8370   -6.1860 C.3      10 GLP5        0.0000 
     55 N          25.8380  -66.3000   -1.2985 N.am      2 SEC2        0.0000 
     56 N          24.6480  -66.0600   -1.6640 N.am     12 SEL2        0.0000 
     57 N          27.0280  -66.5400   -0.9330 N.am      7 SEP2        0.0000 
     58 CA         26.5505  -65.1110   -2.6985 C.3       5 GLC5        0.0000 
     59 CA         25.8360  -66.0260   -4.3190 C.3      15 GLL5        0.0000 
     60 CA         27.2650  -64.1960   -1.0780 C.3      10 GLP5        0.0000 
     61 CA         26.8540  -65.7230   -5.9510 C.3       5 GLC5        0.0000 
     62 CA         27.8720  -65.4200   -7.5830 C.3      10 GLP5        0.0000 
     63 CA         26.3955  -64.0325   -4.6685 C.3       5 GLC5        0.0000 
     64 CA         26.9550  -62.0390   -5.0180 C.3      10 GLP5        0.0000 
     65 N          21.9550  -67.6015   -3.8180 N.am      2 SEC2        0.0000 
     66 N          22.6800  -67.1700   -2.8530 N.am     12 SEL2        0.0000 
     67 N          21.2300  -68.0330   -4.7830 N.am      7 SEP2        0.0000 
     68 CA         25.7015  -63.6990   -0.6930 C.3       5 GLC5        0.0000 
     69 CA         24.1380  -63.2020   -0.3080 C.3      15 GLL5        0.0000 
     70 CA         23.0660  -60.7605    2.4635 C.3       5 GLC5        0.0000 
     71 CA         24.7000  -61.2200    1.0840 C.3      15 GLL5        0.0000 
     72 CA         21.4320  -60.3010    3.8430 C.3      10 GLP5        0.0000 
     73 CA         22.8605  -59.9855    0.6060 C.3       5 GLC5        0.0000 
     74 CA         24.3840  -59.0190    0.4000 C.3      15 GLL5        0.0000 
     75 CA         23.7040  -57.0485   -1.2620 C.3       5 GLC5        0.0000 
     76 CA         24.5210  -57.5790    0.6780 C.3      15 GLL5        0.0000 
     77 CA         22.8870  -56.5180   -3.2020 C.3      10 GLP5        0.0000 
     78 CA         22.4035  -57.9040    0.5405 C.3       5 GLC5        0.0000 
     79 CA         20.2860  -58.2290    0.4030 C.3      10 GLP5        0.0000 
     80 CA         26.3515  -57.6150    0.1770 C.3       5 GLC5        0.0000 
     81 CA         28.1820  -57.6510   -0.3240 C.3      10 GLP5        0.0000 
     82 N          22.6555  -58.2635   -1.0440 N.am      2 SEC2        0.0000 
     83 N          23.8200  -59.3900   -0.7230 N.am     12 SEL2        0.0000 
     84 N          21.4910  -57.1370   -1.3650 N.am      7 SEP2        0.0000 
     85 O          22.5400  -60.0220   -2.8935 O.2       1 ALC1        0.0000 
     86 O          23.1440  -61.0580   -2.1130 O.2      11 ALL1        0.0000 
     87 O          21.9360  -58.9860   -3.6740 O.2       6 ALP1        0.0000 
     88 CA         19.3628  -62.8450    0.6815 C.3       5 GLC5        0.0000 
     89 CA         19.7130  -65.0900    1.3470 C.3      15 GLL5        0.0000 
     90 CA         19.3562  -63.7995    2.5750 C.3       5 GLC5        0.0000 
     91 CA         18.3880  -64.5700    0.9890 C.3      15 GLL5        0.0000 
     92 CA         19.6620  -62.7690    3.9820 C.3      10 GLP5        0.0000 
     93 CA         21.3502  -66.2534    1.7289 C.3       5 GLC5        0.0000 
     94 CA         21.5810  -68.0660    2.6360 C.3      10 GLP5        0.0000 
     95 CA         21.6354  -62.4734    1.0789 C.3       5 GLC5        0.0000 
     96 CA         20.7970  -64.6450    0.4620 C.3      15 GLL5        0.0000 
     97 CA         20.7979  -63.3819    2.6639 C.3       5 GLC5        0.0000 
     98 CA         21.9840  -64.0140    0.7390 C.3      15 GLL5        0.0000 
     99 CA         22.6981  -61.1164    0.2758 C.3       5 GLC5        0.0000 
    100 CA         23.6950  -60.7270   -0.9810 C.3      15 GLL5        0.0000 
@<TRIPOS>BOND
@<TRIPOS>SUBSTRUCTURE
     1 ALC1       85 GROUP        1 X    ALC  0     ROOT ALC X 1
     2 SEC2        7 GROUP        1 X    SEC  0     **** SEC X 2
     3 LYC4        1 GROUP        1 X    LYC  0     **** LYC X 4
     4 ZIC7        4 GROUP        1 X    ZIC  0     **** ZIC X 5
     5 GLC5       34 GROUP        1 X    GLC  0     **** GLC X 6
     6 ALP1       87 GROUP        1 Y    ALP  0     ROOT ALP Y 8
     7 SEP2        9 GROUP        1 Y    SEP  0     **** SEP Y 9
     8 LYP4        3 GROUP        1 Y    LYP  0     **** LYP Y 11
     9 ZIP7        6 GROUP        1 Y    ZIP  0     **** ZIP Y 12
    10 GLP5       36 GROUP        1 Y    GLP  0     **** GLP Y 13
    11 ALL1       86 GROUP        1 Z    ALL  0     ROOT ALL Z 15
    12 SEL2        8 GROUP        1 Z    SEL  0     **** SEL Z 16
    13 LYL4        2 GROUP        1 Z    LYL  0     **** LYL Z 18
    14 ZIL7        5 GROUP        1 Z    ZIL  0     **** ZIL Z 19
    15 GLL5       35 GROUP        1 Z    GLL  0     **** GLL Z 20
@<TRIPOS>SET

