#    Name: 2qtc_TDK_1_ligand
#    Modification time : Mon Mar 24 22:45:54 2014

@<TRIPOS>MOLECULE
2qtc_TDK_1_ligand
   56    57     1     0     0
SMALL
NO_CHARGES


@<TRIPOS>ATOM
      1 O2B        14.5530  -66.5660    1.7640 O.co2     1 TDK887      0.0000 
      2 PB         14.7120  -65.8500    0.3460 P.3       1 TDK887      0.0000 
      3 O3B        13.3530  -65.5530   -0.2310 O.co2     1 TDK887      0.0000 
      4 O1B        15.6630  -66.6060   -0.4680 O.co2     1 TDK887      0.0000 
      5 O3A        15.3970  -64.4010    0.6940 O.3       1 TDK887      0.0000 
      6 PA         16.0730  -64.0020    2.1200 P.3       1 TDK887      0.0000 
      7 O1A        15.2930  -64.5610    3.2290 O.co2     1 TDK887      0.0000 
      8 O2A        16.2930  -62.5280    2.0740 O.co2     1 TDK887      0.0000 
      9 O7         17.5130  -64.7340    2.1030 O.3       1 TDK887      0.0000 
     10 C7         18.3880  -64.5700    0.9890 C.3       1 TDK887      0.0000 
     11 C6         19.7130  -65.0900    1.3470 C.3       1 TDK887      0.0000 
     12 C5         20.7970  -64.6450    0.4620 C.2       1 TDK887      0.0000 
     13 S1         20.6720  -64.9490   -1.2070 S.3       1 TDK887      0.0000 
     14 C4         21.9840  -64.0140    0.7390 C.2       1 TDK887      0.0000 
     15 CM4        22.4770  -63.6600    2.0910 C.3       1 TDK887      0.0000 
     16 N3         22.7530  -63.7900   -0.3870 N.pl3     1 TDK887      0.0000 
     17 C2         22.1870  -64.2500   -1.5360 C.2       1 TDK887      0.0000 
     18 CMA        22.8300  -64.4290   -2.8950 C.3       1 TDK887      0.0000 
     19 OM1        23.7940  -63.3880   -3.1260 O.3       1 TDK887      0.0000 
     20 CMB        21.7720  -64.4460   -3.9720 C.3       1 TDK887      0.0000 
     21 PC         23.6880  -66.0660   -2.8110 P.3       1 TDK887      0.0000 
     22 OM3        24.6480  -66.0600   -1.6640 O.co2     1 TDK887      0.0000 
     23 OM2        24.4740  -66.0550   -4.1970 O.3       1 TDK887      0.0000 
     24 CMC        25.8360  -66.0260   -4.3190 C.3       1 TDK887      0.0000 
     25 OM4        22.6800  -67.1700   -2.8530 O.co2     1 TDK887      0.0000 
     26 C7'        24.1380  -63.2020   -0.3080 C.3       1 TDK887      0.0000 
     27 C5'        24.1550  -61.6970   -0.0200 C.ar      1 TDK887      0.0000 
     28 C6'        24.7000  -61.2200    1.0840 C.ar      1 TDK887      0.0000 
     29 N1'        24.8170  -59.8990    1.3120 N.ar      1 TDK887      0.0000 
     30 C2'        24.3840  -59.0190    0.4000 C.ar      1 TDK887      0.0000 
     31 CM2        24.5210  -57.5790    0.6780 C.3       1 TDK887      0.0000 
     32 N3'        23.8200  -59.3900   -0.7230 N.ar      1 TDK887      0.0000 
     33 C4'        23.6950  -60.7270   -0.9810 C.ar      1 TDK887      0.0000 
     34 N4'        23.1440  -61.0580   -2.1130 N.pl3     1 TDK887      0.0000 
     35 H          18.4769  -63.5106    0.7114 H         1 TDK887      0.0000 
     36 H          18.0113  -65.1111    0.1100 H         1 TDK887      0.0000 
     37 H          19.6808  -66.2065    1.3577 H         1 TDK887      0.0000 
     38 H          19.9523  -64.7982    2.3984 H         1 TDK887      0.0000 
     39 H          24.6696  -63.3825   -1.2579 H         1 TDK887      0.0000 
     40 H          24.7119  -63.7159    0.4819 H         1 TDK887      0.0000 
     41 H          25.0612  -61.8920    1.8229 H         1 TDK887      0.0000 
     42 H          22.8429  -60.3016   -2.6936 H         1 TDK887      0.0000 
     43 H          23.0726  -62.0382   -2.2976 H         1 TDK887      0.0000 
     44 H          23.3651  -63.2017    2.0543 H         1 TDK887      0.0000 
     45 H          21.8486  -63.0439    2.5659 H         1 TDK887      0.0000 
     46 H          22.5879  -64.4683    2.6693 H         1 TDK887      0.0000 
     47 H          22.1702  -64.5616   -4.8820 H         1 TDK887      0.0000 
     48 H          21.1200  -65.1927   -3.8404 H         1 TDK887      0.0000 
     49 H          21.2450  -63.5963   -3.9884 H         1 TDK887      0.0000 
     50 H          26.2294  -65.2091   -3.8972 H         1 TDK887      0.0000 
     51 H          26.2649  -66.8168   -3.8823 H         1 TDK887      0.0000 
     52 H          26.1232  -66.0285   -5.2769 H         1 TDK887      0.0000 
     53 H          25.4762  -57.3163    0.8145 H         1 TDK887      0.0000 
     54 H          24.1678  -57.0206   -0.0726 H         1 TDK887      0.0000 
     55 H          24.0226  -57.3109    1.5025 H         1 TDK887      0.0000 
     56 H          24.6579  -63.7541   -2.7801 H         1 TDK887      0.0000 
@<TRIPOS>BOND
     1    2    1 ar   
     2    3    2 ar   
     3    4    2 ar   
     4    5    2 1    
     5    6    5 1    
     6    7    6 ar   
     7    8    6 ar   
     8    9    6 1    
     9   10    9 1    
    10   11   10 1    
    11   35   10 1    
    12   36   10 1    
    13   12   11 1    
    14   37   11 1    
    15   38   11 1    
    16   13   12 1    
    17   14   12 2    
    18   17   13 1    
    19   15   14 1    
    20   16   14 1    
    21   44   15 1    
    22   45   15 1    
    23   46   15 1    
    24   17   16 2    
    25   26   16 1    
    26   18   17 1    
    27   19   18 1    
    28   20   18 1    
    29   21   18 1    
    30   56   19 1    
    31   47   20 1    
    32   48   20 1    
    33   49   20 1    
    34   22   21 ar   
    35   23   21 1    
    36   25   21 ar   
    37   24   23 1    
    38   50   24 1    
    39   51   24 1    
    40   52   24 1    
    41   27   26 1    
    42   39   26 1    
    43   40   26 1    
    44   28   27 ar   
    45   33   27 ar   
    46   29   28 ar   
    47   41   28 1    
    48   30   29 ar   
    49   31   30 1    
    50   32   30 ar   
    51   53   31 1    
    52   54   31 1    
    53   55   31 1    
    54   33   32 ar   
    55   34   33 1    
    56   42   34 1    
    57   43   34 1    
@<TRIPOS>SUBSTRUCTURE
     1 TDK887      1 GROUP   
@<TRIPOS>SET

