#    Name: 2y6p_CTP_1_INTS_M
#    Modification time : Tue Mar 25 07:43:33 2014

@<TRIPOS>MOLECULE
2y6p_CTP_1_INTS_M
   83     0    15     0     0
SMALL
NO_CHARGES


@<TRIPOS>ATOM
      1 N          67.6195   61.0805    3.0115 N.am      2 SEC2        0.0000 
      2 N          66.3470   60.8850    3.7850 N.am     12 SEL2        0.0000 
      3 N          68.8920   61.2760    2.2380 N.am      7 SEP2        0.0000 
      4 CA         65.0745   62.9645    3.4290 C.3       5 GLC5        0.0000 
      5 CA         64.0220   61.3960    4.0860 C.3      15 GLL5        0.0000 
      6 CA         66.1270   64.5330    2.7720 C.3      10 GLP5        0.0000 
      7 CA         65.5685   63.1405    4.7450 C.3       5 GLC5        0.0000 
      8 CA         64.2640   61.6260    5.4300 C.3      15 GLL5        0.0000 
      9 CA         66.8730   64.6550    4.0600 C.3      10 GLP5        0.0000 
     10 CA         65.2275   59.8800    6.2050 C.3       5 GLC5        0.0000 
     11 CA         66.1910   58.1340    6.9800 C.3      10 GLP5        0.0000 
     12 N          68.8570   60.9040    4.8660 N.am      2 SEC2        0.0000 
     13 N          67.7480   61.0300    5.5280 N.am     12 SEL2        0.0000 
     14 N          69.9660   60.7780    4.2040 N.am      7 SEP2        0.0000 
     15 N          68.3200   61.1530    3.8830 N.am      2 SEC2        0.0000 
     16 O          65.8235   60.1180    1.1335 O.2       1 ALC1        0.0000 
     17 O          64.8660   60.7580    1.9720 O.2      11 ALL1        0.0000 
     18 O          66.7810   59.4780    0.2950 O.2       6 ALP1        0.0000 
     19 CA         67.5415   60.7440    8.0410 C.3       5 GLC5        0.0000 
     20 CA         65.7790   61.8540    7.3670 C.3      15 GLL5        0.0000 
     21 CA         69.3040   59.6340    8.7150 C.3      10 GLP5        0.0000 
     22 CA         65.9850   59.9940    7.1735 C.3       5 GLC5        0.0000 
     23 N          67.8945   64.4460    6.7815 N.am      2 SEC2        0.0000 
     24 N          66.6030   64.1920    7.4570 N.am     12 SEL2        0.0000 
     25 N          69.1860   64.7000    6.1060 N.am      7 SEP2        0.0000 
     26 N          66.6680   63.3740   11.5165 N.am      2 SEC2        0.0000 
     27 N          66.0640   63.6130    9.9950 N.am     12 SEL2        0.0000 
     28 N          67.2720   63.1350   13.0380 N.am      7 SEP2        0.0000 
     29 O          67.3535   62.9670    9.9075 O.2       1 ALC1        0.0000 
     30 O          66.0640   63.6130    9.9950 O.2      11 ALL1        0.0000 
     31 O          68.6430   62.3210    9.8200 O.2       6 ALP1        0.0000 
     32 NZ         61.5770   65.6270    9.6170 N.4       3 LYC4        0.0000 
     33 NZ         61.2030   64.2040    9.6170 N.4      13 LYL4        0.0000 
     34 NZ         61.9510   67.0500    9.6170 N.4       8 LYP4        0.0000 
     35 Zn         60.7455   64.4240   10.5140 Zn        4 ZIC7        0.0000 
     36 Zn         61.2030   64.2040    9.6170 Zn       14 ZIL7        0.0000 
     37 Zn         60.2880   64.6440   11.4110 Zn        9 ZIP7        0.0000 
     38 N          61.5770   65.6270    9.6170 N.am      2 SEC2        0.0000 
     39 N          61.2030   64.2040    9.6170 N.am     12 SEL2        0.0000 
     40 N          61.9510   67.0500    9.6170 N.am      7 SEP2        0.0000 
     41 Zn         60.0570   63.4685    6.4470 Zn        4 ZIC7        0.0000 
     42 Zn         60.1650   63.5150    7.4580 Zn       14 ZIL7        0.0000 
     43 Zn         59.9490   63.4220    5.4360 Zn        9 ZIP7        0.0000 
     44 N          62.1670   65.9140    8.5535 N.am      2 SEC2        0.0000 
     45 N          62.3830   64.7780    7.4900 N.am     12 SEL2        0.0000 
     46 NZ         62.2045   64.3450    3.5745 N.4       3 LYC4        0.0000 
     47 NZ         61.9080   64.1880    5.0110 N.4      13 LYL4        0.0000 
     48 NZ         63.8130   64.4530    1.9170 N.4       8 LYP4        0.0000 
     49 Zn         60.9285   63.8050    5.2235 Zn        4 ZIC7        0.0000 
     50 Zn         61.9080   64.1880    5.0110 Zn       14 ZIL7        0.0000 
     51 N          63.2900   64.3820    3.9720 N.am      2 SEC2        0.0000 
     52 N          61.9080   64.1880    5.0110 N.am     12 SEL2        0.0000 
     53 N          64.6720   64.5760    2.9330 N.am      7 SEP2        0.0000 
     54 N          62.2045   64.3450    3.5745 N.am      2 SEC2        0.0000 
     55 N          62.5010   64.5020    2.1380 N.am      7 SEP2        0.0000 
     56 NZ         64.1825   65.2065    4.2525 N.4       3 LYC4        0.0000 
     57 NZ         63.6930   65.8370    5.5720 N.4      13 LYL4        0.0000 
     58 N          64.1825   65.2065    4.2525 N.am      2 SEC2        0.0000 
     59 N          63.6930   65.8370    5.5720 N.am     12 SEL2        0.0000 
     60 NZ         58.5005   65.2980    6.6225 N.4       3 LYC4        0.0000 
     61 NZ         59.2300   65.2920    5.3240 N.4      13 LYL4        0.0000 
     62 NZ         56.7260   66.0690    7.6100 N.4       8 LYP4        0.0000 
     63 Zn         59.5895   64.3570    5.3800 Zn        4 ZIC7        0.0000 
     64 Zn         59.2300   65.2920    5.3240 Zn       14 ZIL7        0.0000 
     65 N          58.5005   65.2980    6.6225 N.am      2 SEC2        0.0000 
     66 N          59.2300   65.2920    5.3240 N.am     12 SEL2        0.0000 
     67 N          57.7710   65.3040    7.9210 N.am      7 SEP2        0.0000 
     68 N          60.7020   67.8810    3.3115 N.am      2 SEC2        0.0000 
     69 N          60.3500   66.6180    3.5850 N.am     12 SEL2        0.0000 
     70 N          61.0540   69.1440    3.0380 N.am      7 SEP2        0.0000 
     71 N          59.4580   67.3290    2.8365 N.am      2 SEC2        0.0000 
     72 N          58.5660   68.0400    2.0880 N.am      7 SEP2        0.0000 
     73 NZ         58.0765   67.4575    6.0925 N.4       3 LYC4        0.0000 
     74 NZ         59.2980   67.8300    5.4270 N.4      13 LYL4        0.0000 
     75 N          60.1760   68.4870    4.2325 N.am      2 SEC2        0.0000 
     76 N          59.2980   67.8300    5.4270 N.am     12 SEL2        0.0000 
     77 N          59.0125   69.0570    4.7960 N.am      2 SEC2        0.0000 
     78 N          58.7270   70.2840    4.1650 N.am      7 SEP2        0.0000 
     79 N          58.0765   67.4575    6.0925 N.am      2 SEC2        0.0000 
     80 N          56.8550   67.0850    6.7580 N.am      7 SEP2        0.0000 
     81 CA         64.2695   59.5135    4.2250 C.3       5 GLC5        0.0000 
     82 CA         64.3960   57.5160    3.6920 C.3      10 GLP5        0.0000 
     83 CA         66.2550   63.6225    5.7867 C.3       5 GLC5        0.0000 
@<TRIPOS>BOND
@<TRIPOS>SUBSTRUCTURE
     1 ALC1       16 GROUP        1 X    ALC  0     ROOT ALC X 1
     2 SEC2        1 GROUP        1 X    SEC  0     **** SEC X 2
     3 LYC4       32 GROUP        1 X    LYC  0     **** LYC X 4
     4 ZIC7       35 GROUP        1 X    ZIC  0     **** ZIC X 5
     5 GLC5        4 GROUP        1 X    GLC  0     **** GLC X 6
     6 ALP1       18 GROUP        1 Y    ALP  0     ROOT ALP Y 8
     7 SEP2        3 GROUP        1 Y    SEP  0     **** SEP Y 9
     8 LYP4       34 GROUP        1 Y    LYP  0     **** LYP Y 11
     9 ZIP7       37 GROUP        1 Y    ZIP  0     **** ZIP Y 12
    10 GLP5        6 GROUP        1 Y    GLP  0     **** GLP Y 13
    11 ALL1       17 GROUP        1 Z    ALL  0     ROOT ALL Z 15
    12 SEL2        2 GROUP        1 Z    SEL  0     **** SEL Z 16
    13 LYL4       33 GROUP        1 Z    LYL  0     **** LYL Z 18
    14 ZIL7       36 GROUP        1 Z    ZIL  0     **** ZIL Z 19
    15 GLL5        5 GROUP        1 Z    GLL  0     **** GLL Z 20
@<TRIPOS>SET

