#    Name: 2y6p_CTP_1_ligand
#    Modification time : Tue Mar 25 07:43:33 2014

@<TRIPOS>MOLECULE
2y6p_CTP_1_ligand
   41    42     1     0     0
SMALL
NO_CHARGES


@<TRIPOS>ATOM
      1 N1         65.5340   61.5110    5.9510 N.am      1 CTP1233     0.0000 
      2 C2         66.5930   61.1470    5.1150 C.2       1 CTP1233     0.0000 
      3 N3         66.3470   60.8850    3.7850 N.2       1 CTP1233     0.0000 
      4 C4         65.0760   61.0110    3.2620 C.2       1 CTP1233     0.0000 
      5 C5         64.0220   61.3960    4.0860 C.2       1 CTP1233     0.0000 
      6 C6         64.2640   61.6260    5.4300 C.2       1 CTP1233     0.0000 
      7 O2         67.7480   61.0300    5.5280 O.2       1 CTP1233     0.0000 
      8 N4         64.8660   60.7580    1.9720 N.pl3     1 CTP1233     0.0000 
      9 C1'        65.7790   61.8540    7.3670 C.3       1 CTP1233     0.0000 
     10 C2'        65.4950   63.3260    7.6600 C.3       1 CTP1233     0.0000 
     11 O2'        66.6030   64.1920    7.4570 O.3       1 CTP1233     0.0000 
     12 C3'        65.0120   63.3040    9.1010 C.3       1 CTP1233     0.0000 
     13 C4'        64.5050   61.8730    9.3230 C.3       1 CTP1233     0.0000 
     14 O4'        64.9080   61.1060    8.2020 O.3       1 CTP1233     0.0000 
     15 O3'        66.0640   63.6130    9.9950 O.3       1 CTP1233     0.0000 
     16 C5'        62.9720   61.8010    9.4520 C.3       1 CTP1233     0.0000 
     17 O5'        62.3250   62.3100    8.3050 O.3       1 CTP1233     0.0000 
     18 PA         61.4600   63.6690    8.2300 P.3       1 CTP1233     0.0000 
     19 O1A        61.2030   64.2040    9.6170 O.co2     1 CTP1233     0.0000 
     20 O2A        60.1650   63.5150    7.4580 O.co2     1 CTP1233     0.0000 
     21 O3A        62.3830   64.7780    7.4900 O.3       1 CTP1233     0.0000 
     22 PB         62.3290   65.2890    5.9660 P.3       1 CTP1233     0.0000 
     23 O1B        61.9080   64.1880    5.0110 O.co2     1 CTP1233     0.0000 
     24 O2B        63.6930   65.8370    5.5720 O.co2     1 CTP1233     0.0000 
     25 O3B        61.2960   66.4930    5.9950 O.3       1 CTP1233     0.0000 
     26 PG         60.0240   66.5560    5.0600 P.3       1 CTP1233     0.0000 
     27 O1G        59.2300   65.2920    5.3240 O.co2     1 CTP1233     0.0000 
     28 O2G        60.3500   66.6180    3.5850 O.co2     1 CTP1233     0.0000 
     29 O3G        59.2980   67.8300    5.4270 O.co2     1 CTP1233     0.0000 
     30 H          63.0807   61.5068    3.6999 H         1 CTP1233     0.0000 
     31 H          63.4748   61.8887    6.0511 H         1 CTP1233     0.0000 
     32 H          65.6691   60.4905    1.4396 H         1 CTP1233     0.0000 
     33 H          63.9240   60.8583    1.6516 H         1 CTP1233     0.0000 
     34 H          66.8075   61.6611    7.6249 H         1 CTP1233     0.0000 
     35 H          64.6301   63.6000    7.0516 H         1 CTP1233     0.0000 
     36 H          64.1755   63.9616    9.1824 H         1 CTP1233     0.0000 
     37 H          64.9438   61.4949   10.2285 H         1 CTP1233     0.0000 
     38 H          62.6983   62.3592   10.3663 H         1 CTP1233     0.0000 
     39 H          62.7131   60.7427    9.6406 H         1 CTP1233     0.0000 
     40 H          66.8576   64.5051    8.3720 H         1 CTP1233     0.0000 
     41 H          66.6083   62.7762   10.0530 H         1 CTP1233     0.0000 
@<TRIPOS>BOND
     1    2    1 am   
     2    6    1 1    
     3    9    1 1    
     4    3    2 1    
     5    7    2 2    
     6    4    3 2    
     7    5    4 1    
     8    8    4 1    
     9    6    5 2    
    10   30    5 1    
    11   31    6 1    
    12   32    8 1    
    13   33    8 1    
    14   10    9 1    
    15   14    9 1    
    16   34    9 1    
    17   11   10 1    
    18   12   10 1    
    19   35   10 1    
    20   40   11 1    
    21   13   12 1    
    22   15   12 1    
    23   36   12 1    
    24   14   13 1    
    25   16   13 1    
    26   37   13 1    
    27   41   15 1    
    28   17   16 1    
    29   38   16 1    
    30   39   16 1    
    31   18   17 1    
    32   19   18 ar   
    33   20   18 ar   
    34   21   18 1    
    35   22   21 1    
    36   23   22 ar   
    37   24   22 ar   
    38   25   22 1    
    39   26   25 1    
    40   27   26 ar   
    41   28   26 ar   
    42   29   26 ar   
@<TRIPOS>SUBSTRUCTURE
     1 CTP1233     1 GROUP   
@<TRIPOS>SET

