#    Name: 2v0n_GAV_6_INTS_M
#    Modification time : Tue Mar 25 00:39:46 2014

@<TRIPOS>MOLECULE
2v0n_GAV_6_INTS_M
   51     0    15     0     0
SMALL
NO_CHARGES


@<TRIPOS>ATOM
      1 CA         77.3255   24.6385   81.7430 C.3       5 GLC5        0.0000 
      2 CA         76.2080   24.3310   83.3590 C.3      15 GLL5        0.0000 
      3 CA         78.4430   24.9460   80.1270 C.3      10 GLP5        0.0000 
      4 CA         74.2855   25.3775   83.1590 C.3       5 GLC5        0.0000 
      5 CA         72.3630   26.4240   82.9590 C.3      10 GLP5        0.0000 
      6 CA         77.1765   26.3025   83.4010 C.3       5 GLC5        0.0000 
      7 CA         78.1450   28.2740   83.4430 C.3      10 GLP5        0.0000 
      8 O          72.3640   21.9770   82.8915 O.2       1 ALC1        0.0000 
      9 O          73.1030   21.7780   84.0050 O.2      11 ALL1        0.0000 
     10 O          71.6250   22.1760   81.7780 O.2       6 ALP1        0.0000 
     11 O          72.9335   22.7015   82.1720 O.2       1 ALC1        0.0000 
     12 O          74.2420   23.2270   82.5660 O.2      11 ALL1        0.0000 
     13 CA         75.6360   24.5390   87.4405 C.3       5 GLC5        0.0000 
     14 CA         77.3550   23.6910   86.7270 C.3      15 GLL5        0.0000 
     15 CA         73.9170   25.3870   88.1540 C.3      10 GLP5        0.0000 
     16 CA         75.9525   24.8195   88.4590 C.3       5 GLC5        0.0000 
     17 CA         77.9880   24.2520   88.7640 C.3      15 GLL5        0.0000 
     18 CA         77.4950   24.1185   91.2595 C.3       5 GLC5        0.0000 
     19 CA         78.2980   25.4400   89.6460 C.3      15 GLL5        0.0000 
     20 CA         76.6920   22.7970   92.8730 C.3      10 GLP5        0.0000 
     21 CA         77.6925   27.3230   88.8725 C.3       5 GLC5        0.0000 
     22 CA         77.0870   29.2060   88.0990 C.3      10 GLP5        0.0000 
     23 N          75.5465   25.0710   92.9665 N.am      2 SEC2        0.0000 
     24 N          76.3300   26.0260   93.7880 N.am     12 SEL2        0.0000 
     25 N          74.7630   24.1160   92.1450 N.am      7 SEP2        0.0000 
     26 Zn         75.8215   29.0870   92.3875 Zn        4 ZIC7        0.0000 
     27 Zn         75.4970   28.0860   92.6680 Zn       14 ZIL7        0.0000 
     28 Zn         76.1460   30.0880   92.1070 Zn        9 ZIP7        0.0000 
     29 N          74.4175   27.2475   92.7190 N.am      2 SEC2        0.0000 
     30 N          75.4970   28.0860   92.6680 N.am     12 SEL2        0.0000 
     31 N          73.3380   26.4090   92.7700 N.am      7 SEP2        0.0000 
     32 NZ         75.9190   29.9475   97.5675 N.4       3 LYC4        0.0000 
     33 NZ         75.5870   29.0260   96.0140 N.4      13 LYL4        0.0000 
     34 NZ         76.2510   30.8690   99.1210 N.4       8 LYP4        0.0000 
     35 N          74.3825   28.6120   95.4675 N.am      2 SEC2        0.0000 
     36 N          75.5870   29.0260   96.0140 N.am     12 SEL2        0.0000 
     37 N          73.1780   28.1980   94.9210 N.am      7 SEP2        0.0000 
     38 NZ         75.8220   31.7850   94.2035 N.4       3 LYC4        0.0000 
     39 NZ         76.1420   30.5470   94.2240 N.4      13 LYL4        0.0000 
     40 NZ         75.5020   33.0230   94.1830 N.4       8 LYP4        0.0000 
     41 Zn         76.1440   30.3175   93.1655 Zn        4 ZIC7        0.0000 
     42 Zn         76.1420   30.5470   94.2240 Zn       14 ZIL7        0.0000 
     43 N          75.8220   31.7850   94.2035 N.am      2 SEC2        0.0000 
     44 N          76.1420   30.5470   94.2240 N.am     12 SEL2        0.0000 
     45 N          75.5020   33.0230   94.1830 N.am      7 SEP2        0.0000 
     46 NZ         77.0125   30.5400   97.5735 N.4       3 LYC4        0.0000 
     47 NZ         77.7740   30.2110   96.0260 N.4      13 LYL4        0.0000 
     48 CA         77.6080   22.9572   83.6015 C.3       5 GLC5        0.0000 
     49 CA         76.0680   23.7160   84.5830 C.3      15 GLL5        0.0000 
     50 CA         79.0780   21.8910   83.2320 C.3      10 GLP5        0.0000 
     51 CA         78.5712   22.6492   85.0078 C.3       5 GLC5        0.0000 
@<TRIPOS>BOND
@<TRIPOS>SUBSTRUCTURE
     1 ALC1        8 GROUP        1 X    ALC  0     ROOT ALC X 1
     2 SEC2       23 GROUP        1 X    SEC  0     **** SEC X 2
     3 LYC4       32 GROUP        1 X    LYC  0     **** LYC X 4
     4 ZIC7       26 GROUP        1 X    ZIC  0     **** ZIC X 5
     5 GLC5        1 GROUP        1 X    GLC  0     **** GLC X 6
     6 ALP1       10 GROUP        1 Y    ALP  0     ROOT ALP Y 8
     7 SEP2       25 GROUP        1 Y    SEP  0     **** SEP Y 9
     8 LYP4       34 GROUP        1 Y    LYP  0     **** LYP Y 11
     9 ZIP7       28 GROUP        1 Y    ZIP  0     **** ZIP Y 12
    10 GLP5        3 GROUP        1 Y    GLP  0     **** GLP Y 13
    11 ALL1        9 GROUP        1 Z    ALL  0     ROOT ALL Z 15
    12 SEL2       24 GROUP        1 Z    SEL  0     **** SEL Z 16
    13 LYL4       33 GROUP        1 Z    LYL  0     **** LYL Z 18
    14 ZIL7       27 GROUP        1 Z    ZIL  0     **** ZIL Z 19
    15 GLL5        2 GROUP        1 Z    GLL  0     **** GLL Z 20
@<TRIPOS>SET

