#    Name: 2v0n_GAV_6_ligand
#    Modification time : Tue Mar 25 00:39:46 2014

@<TRIPOS>MOLECULE
2v0n_GAV_6_ligand
   44    46     1     0     0
SMALL
NO_CHARGES


@<TRIPOS>ATOM
      1 O6         75.3990   24.6200   81.2730 O.2       1 GAV600      0.0000 
      2 C6         75.2920   24.0750   82.3590 C.2       1 GAV600      0.0000 
      3 C5         76.2080   24.3310   83.3590 C.2       1 GAV600      0.0000 
      4 C4         76.0680   23.7160   84.5830 C.2       1 GAV600      0.0000 
      5 N3         75.0410   22.8610   84.8090 N.2       1 GAV600      0.0000 
      6 C2         74.1170   22.6210   83.8000 C.2       1 GAV600      0.0000 
      7 N2         73.1030   21.7780   84.0050 N.pl3     1 GAV600      0.0000 
      8 N1         74.2420   23.2270   82.5660 N.am      1 GAV600      0.0000 
      9 N7         77.3030   25.1110   83.4130 N.2       1 GAV600      0.0000 
     10 C8         77.8680   25.0080   84.6320 C.2       1 GAV600      0.0000 
     11 N9         77.1060   24.1450   85.3620 N.pl3     1 GAV600      0.0000 
     12 C1'        77.3550   23.6910   86.7270 C.3       1 GAV600      0.0000 
     13 C2'        78.7740   23.1240   86.8400 C.3       1 GAV600      0.0000 
     14 O2'        78.8350   21.7190   86.7080 O.3       1 GAV600      0.0000 
     15 C3'        79.2220   23.5250   88.2220 C.3       1 GAV600      0.0000 
     16 O3'        79.6120   22.3810   88.9660 O.3       1 GAV600      0.0000 
     17 O4'        77.2710   24.7310   87.6520 O.3       1 GAV600      0.0000 
     18 C4'        77.9880   24.2520   88.7640 C.3       1 GAV600      0.0000 
     19 C5'        78.2980   25.4400   89.6460 C.3       1 GAV600      0.0000 
     20 O5'        78.4550   25.0090   90.9860 O.3       1 GAV600      0.0000 
     21 PA         78.9910   26.0660   92.0820 P.3       1 GAV600      0.0000 
     22 S1A        80.4280   26.7340   91.4500 S.3       1 GAV600      0.0000 
     23 O2A        79.2420   25.3960   93.4100 O.2       1 GAV600      0.0000 
     24 O3A        77.8540   27.2310   92.1160 O.3       1 GAV600      0.0000 
     25 PB         76.7120   27.3920   93.2510 P.3       1 GAV600      0.0000 
     26 O1B        76.3300   26.0260   93.7880 O.co2     1 GAV600      0.0000 
     27 O2B        75.4970   28.0860   92.6680 O.co2     1 GAV600      0.0000 
     28 O3B        77.4220   28.3010   94.3980 O.3       1 GAV600      0.0000 
     29 PG         76.7290   29.5390   95.1730 P.3       1 GAV600      0.0000 
     30 O1G        75.5870   29.0260   96.0140 O.co2     1 GAV600      0.0000 
     31 O3G        76.1420   30.5470   94.2240 O.co2     1 GAV600      0.0000 
     32 O2G        77.7740   30.2110   96.0260 O.co2     1 GAV600      0.0000 
     33 H          73.0654   21.3458   84.9060 H         1 GAV600      0.0000 
     34 H          72.4719   21.6543   83.2392 H         1 GAV600      0.0000 
     35 H          73.5585   23.0401   81.8266 H         1 GAV600      0.0000 
     36 H          78.6573   25.4539   84.9376 H         1 GAV600      0.0000 
     37 H          76.6802   22.8816   86.9807 H         1 GAV600      0.0000 
     38 H          79.3923   23.6460   86.1352 H         1 GAV600      0.0000 
     39 H          80.0017   24.2519   88.1053 H         1 GAV600      0.0000 
     40 H          77.3925   23.5447   89.3198 H         1 GAV600      0.0000 
     41 H          77.4765   26.1622   89.5429 H         1 GAV600      0.0000 
     42 H          79.2090   25.9189   89.2617 H         1 GAV600      0.0000 
     43 H          79.1043   21.3858   87.6116 H         1 GAV600      0.0000 
     44 H          80.5780   22.2460   88.7456 H         1 GAV600      0.0000 
@<TRIPOS>BOND
     1    2    1 2    
     2    3    2 1    
     3    8    2 am   
     4    4    3 2    
     5    9    3 1    
     6    5    4 1    
     7   11    4 1    
     8    6    5 2    
     9    7    6 1    
    10    8    6 1    
    11   33    7 1    
    12   34    7 1    
    13   35    8 1    
    14   10    9 2    
    15   11   10 1    
    16   36   10 1    
    17   12   11 1    
    18   13   12 1    
    19   17   12 1    
    20   37   12 1    
    21   14   13 1    
    22   15   13 1    
    23   38   13 1    
    24   43   14 1    
    25   16   15 1    
    26   18   15 1    
    27   39   15 1    
    28   44   16 1    
    29   18   17 1    
    30   19   18 1    
    31   40   18 1    
    32   20   19 1    
    33   41   19 1    
    34   42   19 1    
    35   21   20 1    
    36   22   21 1    
    37   23   21 2    
    38   24   21 1    
    39   25   24 1    
    40   26   25 ar   
    41   27   25 ar   
    42   28   25 1    
    43   29   28 1    
    44   30   29 ar   
    45   31   29 ar   
    46   32   29 ar   
@<TRIPOS>SUBSTRUCTURE
     1 GAV600      1 GROUP   
@<TRIPOS>SET

