#    Name: 1ipe_NDP_2_INTS_M
#    Modification time : Tue Mar 25 07:16:45 2014

@<TRIPOS>MOLECULE
1ipe_NDP_2_INTS_M
  106     0    12     0     0
SMALL
NO_CHARGES


@<TRIPOS>ATOM
      1 CA         37.9845   37.1740  168.5765 C.3       4 GLC5        0.0000 
      2 CA         36.0410   37.0530  168.8360 C.3      12 GLL5        0.0000 
      3 CA         39.9280   37.2950  168.3170 C.3       8 GLP5        0.0000 
      4 N          36.7005   39.7205  170.0270 N.am      2 SEC2        0.0000 
      5 N          36.3300   38.2840  169.5520 N.am     10 SEL2        0.0000 
      6 N          37.0710   41.1570  170.5020 N.am      6 SEP2        0.0000 
      7 N          36.9560   38.4155  170.5735 N.am      2 SEC2        0.0000 
      8 N          37.5820   38.5470  171.5950 N.am      6 SEP2        0.0000 
      9 N          37.7300   39.1960  169.2735 N.am      2 SEC2        0.0000 
     10 N          39.1300   40.1080  168.9950 N.am      6 SEP2        0.0000 
     11 N          36.8165   35.7160  170.7635 N.am      2 SEC2        0.0000 
     12 N          35.3750   36.2070  171.0260 N.am     10 SEL2        0.0000 
     13 N          38.2580   35.2250  170.5010 N.am      6 SEP2        0.0000 
     14 CA         28.8855   34.5600  173.2175 C.3       4 GLC5        0.0000 
     15 CA         29.9550   34.4300  171.2500 C.3      12 GLL5        0.0000 
     16 CA         27.8160   34.6900  175.1850 C.3       8 GLP5        0.0000 
     17 CA         28.1235   35.2515  171.0385 C.3       4 GLC5        0.0000 
     18 CA         26.2920   36.0730  170.8270 C.3       8 GLP5        0.0000 
     19 O          28.5025   32.7610  172.6590 O.2       1 ALC1        0.0000 
     20 O          29.2320   33.3100  171.2050 O.2       9 ALL1        0.0000 
     21 O          27.7730   32.2120  174.1130 O.2       5 ALP1        0.0000 
     22 N          28.2530   35.3280  172.5800 N.am      2 SEC2        0.0000 
     23 N          29.6670   35.4640  172.1340 N.am     10 SEL2        0.0000 
     24 N          26.8390   35.1920  173.0260 N.am      6 SEP2        0.0000 
     25 CA         31.9230   37.6715  172.9655 C.3       4 GLC5        0.0000 
     26 CA         30.3990   36.6270  172.1970 C.3      12 GLL5        0.0000 
     27 CA         33.4470   38.7160  173.7340 C.3       8 GLP5        0.0000 
     28 CA         30.9615   35.2035  173.5565 C.3       4 GLC5        0.0000 
     29 CA         31.5240   33.7800  174.9160 C.3       8 GLP5        0.0000 
     30 CA         29.1075   35.6585  173.6910 C.3       4 GLC5        0.0000 
     31 CA         29.1605   37.1925  171.1155 C.3       4 GLC5        0.0000 
     32 CA         27.9220   37.7580  170.0340 C.3       8 GLP5        0.0000 
     33 CA         32.4045   37.8555  169.7035 C.3       4 GLC5        0.0000 
     34 CA         31.8160   35.8270  170.4600 C.3      12 GLL5        0.0000 
     35 CA         32.9930   39.8840  168.9470 C.3       8 GLP5        0.0000 
     36 CA         30.7470   36.6675  168.8245 C.3       4 GLC5        0.0000 
     37 CA         29.6780   37.5080  167.1890 C.3       8 GLP5        0.0000 
     38 N          39.4905   35.8325  161.4960 N.am      2 SEC2        0.0000 
     39 N          38.1760   36.0230  161.6510 N.am     10 SEL2        0.0000 
     40 N          40.8050   35.6420  161.3410 N.am      6 SEP2        0.0000 
     41 N          38.1140   39.3720  162.8975 N.am      2 SEC2        0.0000 
     42 N          37.5060   38.0470  163.0310 N.am     10 SEL2        0.0000 
     43 N          38.7220   40.6970  162.7640 N.am      6 SEP2        0.0000 
     44 N          36.7495   38.6595  164.0870 N.am      2 SEC2        0.0000 
     45 N          35.9930   39.2720  165.1430 N.am      6 SEP2        0.0000 
     46 CA         32.7430   38.8155  160.0040 C.3       4 GLC5        0.0000 
     47 CA         33.5470   37.4420  161.2690 C.3      12 GLL5        0.0000 
     48 CA         31.9390   40.1890  158.7390 C.3       8 GLP5        0.0000 
     49 CA         31.7870   35.1945  162.8080 C.3       4 GLC5        0.0000 
     50 CA         32.7620   36.1540  161.4320 C.3      12 GLL5        0.0000 
     51 CA         30.8120   34.2350  164.1840 C.3       8 GLP5        0.0000 
     52 N          30.2870   35.8055  160.5905 N.am      2 SEC2        0.0000 
     53 N          31.3420   36.3450  161.3340 N.am     10 SEL2        0.0000 
     54 N          29.2320   35.2660  159.8470 N.am      6 SEP2        0.0000 
     55 O          31.3240   37.2900  162.3555 O.2       1 ALC1        0.0000 
     56 O          31.3420   36.3450  161.3340 O.2       9 ALL1        0.0000 
     57 O          31.3060   38.2350  163.3770 O.2       5 ALP1        0.0000 
     58 N          32.3735   33.5605  159.0325 N.am      2 SEC2        0.0000 
     59 N          32.2870   34.2670  160.0250 N.am     10 SEL2        0.0000 
     60 N          32.4600   32.8540  158.0400 N.am      6 SEP2        0.0000 
     61 N          30.7595   34.7665  159.9360 N.am      2 SEC2        0.0000 
     62 CA         32.7365   38.2280  158.9755 C.3       4 GLC5        0.0000 
     63 CA         33.5340   36.2670  159.2120 C.3      12 GLL5        0.0000 
     64 O          40.4765   36.4955  158.0325 O.2       1 ALC1        0.0000 
     65 O          39.1160   36.3190  158.2570 O.2       9 ALL1        0.0000 
     66 O          41.8370   36.6720  157.8080 O.2       5 ALP1        0.0000 
     67 CA         34.1125   37.5100  156.4510 C.3       4 GLC5        0.0000 
     68 CA         34.0280   35.6390  156.9050 C.3      12 GLL5        0.0000 
     69 CA         34.1970   39.3810  155.9970 C.3       8 GLP5        0.0000 
     70 N          37.2845   35.2700  171.8345 N.am      2 SEC2        0.0000 
     71 N          36.3110   35.3150  173.1680 N.am     10 SEL2        0.0000 
     72 N          36.0225   36.7365  173.8405 N.am      2 SEC2        0.0000 
     73 N          35.7340   38.1580  174.5130 N.am      6 SEP2        0.0000 
     74 NZ         37.2735   34.5615  170.8320 N.4       3 LYC4        0.0000 
     75 NZ         36.2890   33.8980  171.1630 N.4      11 LYL4        0.0000 
     76 NZ         38.7090   34.5050  169.4830 N.4       7 LYP4        0.0000 
     77 N          37.2735   34.5615  170.8320 N.am      2 SEC2        0.0000 
     78 N          36.2890   33.8980  171.1630 N.am     10 SEL2        0.0000 
     79 N          37.1845   33.6445  170.1470 N.am      2 SEC2        0.0000 
     80 N          38.0800   33.3910  169.1310 N.am      6 SEP2        0.0000 
     81 NZ         33.7890   32.9130  171.8315 N.4       3 LYC4        0.0000 
     82 NZ         34.1370   34.5030  172.3150 N.4      11 LYL4        0.0000 
     83 NZ         32.4620   31.3770  172.2410 N.4       7 LYP4        0.0000 
     84 N          33.7815   35.5095  173.5465 N.am      2 SEC2        0.0000 
     85 N          34.1370   34.5030  172.3150 N.am     10 SEL2        0.0000 
     86 N          33.4260   36.5160  174.7780 N.am      6 SEP2        0.0000 
     87 N          33.3155   33.3980  172.7615 N.am      2 SEC2        0.0000 
     88 N          32.4940   32.2930  173.2080 N.am      6 SEP2        0.0000 
     89 N          33.7890   32.9130  171.8315 N.am      2 SEC2        0.0000 
     90 N          33.4410   31.3230  171.3480 N.am      6 SEP2        0.0000 
     91 CA         30.9877   33.4875  172.5282 C.3       4 GLC5        0.0000 
     92 CA         31.0760   34.6380  170.3890 C.3      12 GLL5        0.0000 
     93 CA         31.4600   32.4410  174.2370 C.3       8 GLP5        0.0000 
     94 CA         29.6840   36.4952  170.2293 C.3       4 GLC5        0.0000 
     95 CA         35.4850   38.4883  160.4525 C.3       4 GLC5        0.0000 
     96 CA         34.7350   37.5790  162.2090 C.3      12 GLL5        0.0000 
     97 CA         36.8290   39.4660  159.1660 C.3       8 GLP5        0.0000 
     98 CA         36.6397   37.5572  158.5710 C.3       4 GLC5        0.0000 
     99 CA         35.9910   35.7470  158.5180 C.3      12 GLL5        0.0000 
    100 CA         35.5325   37.3020  155.5575 C.3       4 GLC5        0.0000 
    101 CA         36.3500   35.4840  156.1100 C.3      12 GLL5        0.0000 
    102 CA         35.4190   39.1390  155.1430 C.3       8 GLP5        0.0000 
    103 CA         32.9290   35.1223  155.5043 C.3       4 GLC5        0.0000 
    104 CA         34.9420   35.4460  155.8340 C.3      12 GLL5        0.0000 
    105 CA         31.3730   34.7020  154.6390 C.3       8 GLP5        0.0000 
    106 CA         34.0251   38.3379  168.8779 C.3       4 GLC5        0.0000 
@<TRIPOS>BOND
@<TRIPOS>SUBSTRUCTURE
     1 ALC1       19 GROUP        1 X    ALC  0     ROOT ALC X 1
     2 SEC2        4 GROUP        1 X    SEC  0     **** SEC X 2
     3 LYC4       74 GROUP        1 X    LYC  0     **** LYC X 4
     4 GLC5        1 GROUP        1 X    GLC  0     **** GLC X 6
     5 ALP1       21 GROUP        1 Y    ALP  0     ROOT ALP Y 8
     6 SEP2        6 GROUP        1 Y    SEP  0     **** SEP Y 9
     7 LYP4       76 GROUP        1 Y    LYP  0     **** LYP Y 11
     8 GLP5        3 GROUP        1 Y    GLP  0     **** GLP Y 13
     9 ALL1       20 GROUP        1 Z    ALL  0     ROOT ALL Z 15
    10 SEL2        5 GROUP        1 Z    SEL  0     **** SEL Z 16
    11 LYL4       75 GROUP        1 Z    LYL  0     **** LYL Z 18
    12 GLL5        2 GROUP        1 Z    GLL  0     **** GLL Z 20
@<TRIPOS>SET

