#    Name: 1ipe_NDP_2_ligand
#    Modification time : Tue Mar 25 07:16:45 2014

@<TRIPOS>MOLECULE
1ipe_NDP_2_ligand
   74    78     1     0     0
SMALL
NO_CHARGES


@<TRIPOS>ATOM
      1 PA         37.9110   35.5570  165.1820 P.3       1 NDP262      0.0000 
      2 O1A        37.7920   34.1410  165.5380 O.co2     1 NDP262      0.0000 
      3 O2A        39.2560   36.1370  164.9910 O.co2     1 NDP262      0.0000 
      4 O5B        37.1050   36.4550  166.2140 O.3       1 NDP262      0.0000 
      5 C5B        35.6870   36.3100  166.4190 C.3       1 NDP262      0.0000 
      6 C4B        35.3030   37.2720  167.5330 C.3       1 NDP262      0.0000 
      7 O4B        33.8980   37.0600  167.8580 O.3       1 NDP262      0.0000 
      8 C3B        36.0410   37.0530  168.8360 C.3       1 NDP262      0.0000 
      9 O3B        36.3300   38.2840  169.5520 O.3       1 NDP262      0.0000 
     10 C2B        35.1070   36.1450  169.6240 C.3       1 NDP262      0.0000 
     11 O2B        35.3750   36.2070  171.0260 O.3       1 NDP262      0.0000 
     12 C1B        33.7780   36.6970  169.2420 C.3       1 NDP262      0.0000 
     13 N9A        32.7450   35.6710  169.5410 N.pl3     1 NDP262      0.0000 
     14 C8A        32.5700   34.4460  168.9470 C.2       1 NDP262      0.0000 
     15 N7A        31.5340   33.7920  169.4680 N.2       1 NDP262      0.0000 
     16 C5A        31.0760   34.6380  170.3890 C.ar      1 NDP262      0.0000 
     17 C6A        29.9550   34.4300  171.2500 C.ar      1 NDP262      0.0000 
     18 N6A        29.2320   33.3100  171.2050 N.pl3     1 NDP262      0.0000 
     19 N1A        29.6670   35.4640  172.1340 N.ar      1 NDP262      0.0000 
     20 C2A        30.3990   36.6270  172.1970 C.ar      1 NDP262      0.0000 
     21 N3A        31.4600   36.7990  171.3670 N.ar      1 NDP262      0.0000 
     22 C4A        31.8160   35.8270  170.4600 C.ar      1 NDP262      0.0000 
     23 O3         37.0560   35.7740  163.8530 O.3       1 NDP262      0.0000 
     24 PN         37.1980   36.6720  162.5530 P.3       1 NDP262      0.0000 
     25 O1N        38.1760   36.0230  161.6510 O.co2     1 NDP262      0.0000 
     26 O2N        37.5060   38.0470  163.0310 O.co2     1 NDP262      0.0000 
     27 O5D        35.7420   36.6210  161.9030 O.3       1 NDP262      0.0000 
     28 C5D        34.7350   37.5790  162.2090 C.3       1 NDP262      0.0000 
     29 C4D        33.5470   37.4420  161.2690 C.3       1 NDP262      0.0000 
     30 O4D        34.0520   37.4160  159.9100 O.3       1 NDP262      0.0000 
     31 C3D        32.7620   36.1540  161.4320 C.3       1 NDP262      0.0000 
     32 O3D        31.3420   36.3450  161.3340 O.3       1 NDP262      0.0000 
     33 C2D        33.2820   35.2390  160.3170 C.3       1 NDP262      0.0000 
     34 O2D        32.2870   34.2670  160.0250 O.3       1 NDP262      0.0000 
     35 C1D        33.5340   36.2670  159.2120 C.3       1 NDP262      0.0000 
     36 N1N        34.5540   35.8690  158.2210 N.pl3     1 NDP262      0.0000 
     37 C2N        35.9910   35.7470  158.5180 C.2       1 NDP262      0.0000 
     38 C3N        36.9100   35.5500  157.4340 C.2       1 NDP262      0.0000 
     39 C7N        38.4460   35.4070  157.5740 C.2       1 NDP262      0.0000 
     40 O7N        39.0770   34.4760  157.0780 O.2       1 NDP262      0.0000 
     41 N7N        39.1160   36.3190  158.2570 N.am      1 NDP262      0.0000 
     42 C4N        36.3500   35.4840  156.1100 C.3       1 NDP262      0.0000 
     43 C5N        34.9420   35.4460  155.8340 C.2       1 NDP262      0.0000 
     44 C6N        34.0280   35.6390  156.9050 C.2       1 NDP262      0.0000 
     45 P2B        35.4920   34.8730  171.8940 P.3       1 NDP262      0.0000 
     46 O1X        36.3110   35.3150  173.1680 O.co2     1 NDP262      0.0000 
     47 O2X        36.2890   33.8980  171.1630 O.co2     1 NDP262      0.0000 
     48 O3X        34.1370   34.5030  172.3150 O.co2     1 NDP262      0.0000 
     49 H          35.4282   35.3053  166.7309 H         1 NDP262      0.0000 
     50 H          35.1251   36.5736  165.5311 H         1 NDP262      0.0000 
     51 H          35.4448   38.2816  167.2108 H         1 NDP262      0.0000 
     52 H          36.9313   36.4857  168.6212 H         1 NDP262      0.0000 
     53 H          35.2010   35.1639  169.2104 H         1 NDP262      0.0000 
     54 H          33.6093   37.5753  169.8539 H         1 NDP262      0.0000 
     55 H          33.1519   34.1120  168.2252 H         1 NDP262      0.0000 
     56 H          29.5079   32.6354  170.5203 H         1 NDP262      0.0000 
     57 H          28.4791   33.2457  171.8600 H         1 NDP262      0.0000 
     58 H          30.1363   37.3615  172.8755 H         1 NDP262      0.0000 
     59 H          35.1150   38.6105  162.1210 H         1 NDP262      0.0000 
     60 H          34.3620   37.4615  163.2401 H         1 NDP262      0.0000 
     61 H          32.8879   38.2756  161.3919 H         1 NDP262      0.0000 
     62 H          33.0541   35.7051  162.3691 H         1 NDP262      0.0000 
     63 H          34.2079   34.8529  160.6402 H         1 NDP262      0.0000 
     64 H          32.6109   36.5116  158.7483 H         1 NDP262      0.0000 
     65 H          36.3044   35.8028  159.4657 H         1 NDP262      0.0000 
     66 H          38.5824   37.0922  158.5996 H         1 NDP262      0.0000 
     67 H          40.0957   36.1530  158.3692 H         1 NDP262      0.0000 
     68 H          36.8481   34.5833  155.5574 H         1 NDP262      0.0000 
     69 H          36.8149   36.3534  155.4832 H         1 NDP262      0.0000 
     70 H          34.6138   35.2849  154.8953 H         1 NDP262      0.0000 
     71 H          33.0352   35.6162  156.7516 H         1 NDP262      0.0000 
     72 H          36.8740   38.8315  168.9161 H         1 NDP262      0.0000 
     73 H          31.0542   36.6210  162.2510 H         1 NDP262      0.0000 
     74 H          31.4371   34.6500  160.3869 H         1 NDP262      0.0000 
@<TRIPOS>BOND
     1    2    1 ar   
     2    3    1 ar   
     3    4    1 1    
     4   23    1 1    
     5    5    4 1    
     6    6    5 1    
     7   49    5 1    
     8   50    5 1    
     9    7    6 1    
    10    8    6 1    
    11   51    6 1    
    12   12    7 1    
    13    9    8 1    
    14   10    8 1    
    15   52    8 1    
    16   72    9 1    
    17   11   10 1    
    18   12   10 1    
    19   53   10 1    
    20   45   11 1    
    21   13   12 1    
    22   54   12 1    
    23   14   13 1    
    24   22   13 1    
    25   15   14 2    
    26   55   14 1    
    27   16   15 1    
    28   17   16 ar   
    29   22   16 ar   
    30   18   17 1    
    31   19   17 ar   
    32   56   18 1    
    33   57   18 1    
    34   20   19 ar   
    35   21   20 ar   
    36   58   20 1    
    37   22   21 ar   
    38   24   23 1    
    39   25   24 ar   
    40   26   24 ar   
    41   27   24 1    
    42   28   27 1    
    43   29   28 1    
    44   59   28 1    
    45   60   28 1    
    46   30   29 1    
    47   31   29 1    
    48   61   29 1    
    49   35   30 1    
    50   32   31 1    
    51   33   31 1    
    52   62   31 1    
    53   73   32 1    
    54   34   33 1    
    55   35   33 1    
    56   63   33 1    
    57   74   34 1    
    58   36   35 1    
    59   64   35 1    
    60   37   36 1    
    61   44   36 1    
    62   38   37 2    
    63   65   37 1    
    64   39   38 1    
    65   42   38 1    
    66   40   39 2    
    67   41   39 am   
    68   66   41 1    
    69   67   41 1    
    70   43   42 1    
    71   68   42 1    
    72   69   42 1    
    73   44   43 2    
    74   70   43 1    
    75   71   44 1    
    76   46   45 ar   
    77   47   45 ar   
    78   48   45 ar   
@<TRIPOS>SUBSTRUCTURE
     1 NDP262      1 GROUP   
@<TRIPOS>SET

