#    Name: 1cgk_NAR_1_INTS_M
#    Modification time : Mon Mar 24 20:41:13 2014

@<TRIPOS>MOLECULE
1cgk_NAR_1_INTS_M
   52     0     9     0     0
SMALL
NO_CHARGES


@<TRIPOS>ATOM
      1 CA         19.8015   48.1140   57.2875 C.3       3 GLC5        0.0000 
      2 CA         19.0090   49.7520   56.3480 C.3       9 GLL5        0.0000 
      3 CA         20.5940   46.4760   58.2270 C.3       6 GLP5        0.0000 
      4 CA         19.5065   46.2010   54.5690 C.3       3 GLC5        0.0000 
      5 CA         19.9880   47.9750   54.8190 C.3       9 GLL5        0.0000 
      6 CA         19.0250   44.4270   54.3190 C.3       6 GLP5        0.0000 
      7 CA         18.3870   48.7110   53.7315 C.3       3 GLC5        0.0000 
      8 CA         16.7860   49.4470   52.6440 C.3       6 GLP5        0.0000 
      9 CA         22.0325   49.4560   56.3400 C.3       3 GLC5        0.0000 
     10 CA         21.1680   48.9400   54.7440 C.3       9 GLL5        0.0000 
     11 CA         22.8970   49.9720   57.9360 C.3       6 GLP5        0.0000 
     12 N          17.8545   46.2235   55.4090 N.am      2 SEC2        0.0000 
     13 N          18.0240   47.5990   56.1440 N.am      8 SEL2        0.0000 
     14 N          17.6850   44.8480   54.6740 N.am      5 SEP2        0.0000 
     15 CA         23.2480   50.5655   49.8905 C.3       3 GLC5        0.0000 
     16 CA         22.6630   49.0170   51.0950 C.3       9 GLL5        0.0000 
     17 CA         23.8330   52.1140   48.6860 C.3       6 GLP5        0.0000 
     18 CA         25.2160   46.6155   54.0275 C.3       3 GLC5        0.0000 
     19 CA         23.8670   47.5840   52.5660 C.3       9 GLL5        0.0000 
     20 CA         26.5650   45.6470   55.4890 C.3       6 GLP5        0.0000 
     21 O          24.0845   48.2475   49.1715 O.2       1 ALC1        0.0000 
     22 O          24.4840   47.7120   50.2940 O.2       7 ALL1        0.0000 
     23 O          23.6850   48.7830   48.0490 O.2       4 ALP1        0.0000 
     24 CA         20.7817   53.0173   57.4477 C.3       3 GLC5        0.0000 
     25 CA         19.6900   52.0180   56.0110 C.3       9 GLL5        0.0000 
     26 CA         22.3510   53.8010   58.4180 C.3       6 GLP5        0.0000 
     27 CA         16.5723   53.0943   57.6125 C.3       3 GLC5        0.0000 
     28 CA         18.7350   52.4490   56.9440 C.3       9 GLL5        0.0000 
     29 CA         14.9030   54.2100   58.1060 C.3       6 GLP5        0.0000 
     30 CA         18.2178   53.3693   58.6725 C.3       3 GLC5        0.0000 
     31 CA         17.7480   51.5080   57.2940 C.3       9 GLL5        0.0000 
     32 CA         18.1940   54.7600   60.2260 C.3       6 GLP5        0.0000 
     33 CA         21.1389   50.2599   57.0134 C.3       3 GLC5        0.0000 
     34 CA         19.8150   50.6690   55.6560 C.3       9 GLL5        0.0000 
     35 CA         19.6929   53.0221   55.0379 C.3       3 GLC5        0.0000 
     36 CA         19.8720   54.5930   54.0090 C.3       6 GLP5        0.0000 
     37 CA         20.5860   47.4667   56.5042 C.3       3 GLC5        0.0000 
     38 CA         22.4017   50.5750   53.5957 C.3       3 GLC5        0.0000 
     39 CA         23.2460   52.3600   53.1100 C.3       6 GLP5        0.0000 
     40 CA         20.5985   48.7450   50.6832 C.3       3 GLC5        0.0000 
     41 CA         18.9780   48.3510   49.7300 C.3       6 GLP5        0.0000 
     42 CA         22.7325   50.7495   52.3732 C.3       3 GLC5        0.0000 
     43 CA         21.7750   49.2610   52.1780 C.3       9 GLL5        0.0000 
     44 CA         25.0877   46.3960   51.5765 C.3       3 GLC5        0.0000 
     45 CA         23.5780   47.9540   51.2460 C.3       9 GLL5        0.0000 
     46 CA         26.4530   45.0230   51.2470 C.3       6 GLP5        0.0000 
     47 CA         22.3133   47.2378   50.5761 C.3       3 GLC5        0.0000 
     48 CA         21.7280   45.9290   49.7110 C.3       6 GLP5        0.0000 
     49 CA         25.0499   48.8449   51.9061 C.3       3 GLC5        0.0000 
     50 CA         26.6060   49.6550   51.9440 C.3       6 GLP5        0.0000 
     51 CA         23.0530   45.8490   52.1180 C.3       3 GLC5        0.0000 
     52 CA         22.7450   44.1200   51.1930 C.3       6 GLP5        0.0000 
@<TRIPOS>BOND
@<TRIPOS>SUBSTRUCTURE
     1 ALC1       21 GROUP        1 X    ALC  0     ROOT ALC X 1
     2 SEC2       12 GROUP        1 X    SEC  0     **** SEC X 2
     3 GLC5        1 GROUP        1 X    GLC  0     **** GLC X 6
     4 ALP1       23 GROUP        1 Y    ALP  0     ROOT ALP Y 8
     5 SEP2       14 GROUP        1 Y    SEP  0     **** SEP Y 9
     6 GLP5        3 GROUP        1 Y    GLP  0     **** GLP Y 13
     7 ALL1       22 GROUP        1 Z    ALL  0     ROOT ALL Z 15
     8 SEL2       13 GROUP        1 Z    SEL  0     **** SEL Z 16
     9 GLL5        2 GROUP        1 Z    GLL  0     **** GLL Z 20
@<TRIPOS>SET

