#    Name: 1cgk_NAR_1_ligand
#    Modification time : Mon Mar 24 20:41:13 2014

@<TRIPOS>MOLECULE
1cgk_NAR_1_ligand
   31    33     1     0     0
SMALL
NO_CHARGES


@<TRIPOS>ATOM
      1 C1         19.6900   52.0180   56.0110 C.ar      1 NAR390      0.0000 
      2 C2         18.7350   52.4490   56.9440 C.ar      1 NAR390      0.0000 
      3 C3         17.7480   51.5080   57.2940 C.ar      1 NAR390      0.0000 
      4 C4         17.9900   50.1420   57.2420 C.ar      1 NAR390      0.0000 
      5 C5         19.0090   49.7520   56.3480 C.ar      1 NAR390      0.0000 
      6 C6         19.8150   50.6690   55.6560 C.ar      1 NAR390      0.0000 
      7 C7         18.9420   48.3700   55.8230 C.2       1 NAR390      0.0000 
      8 C8         19.9880   47.9750   54.8190 C.3       1 NAR390      0.0000 
      9 C9         21.1680   48.9400   54.7440 C.3       1 NAR390      0.0000 
     10 O1         20.6520   50.2400   54.6680 O.3       1 NAR390      0.0000 
     11 O2         18.0240   47.5990   56.1440 O.2       1 NAR390      0.0000 
     12 C10        21.9470   48.6400   53.4190 C.ar      1 NAR390      0.0000 
     13 C11        21.7750   49.2610   52.1780 C.ar      1 NAR390      0.0000 
     14 C12        22.6630   49.0170   51.0950 C.ar      1 NAR390      0.0000 
     15 C13        23.5780   47.9540   51.2460 C.ar      1 NAR390      0.0000 
     16 C14        23.8670   47.5840   52.5660 C.ar      1 NAR390      0.0000 
     17 C15        22.8550   47.5720   53.5200 C.ar      1 NAR390      0.0000 
     18 O3         24.4840   47.7120   50.2940 O.3       1 NAR390      0.0000 
     19 O4         18.2500   53.7130   57.0990 O.3       1 NAR390      0.0000 
     20 O5         17.1610   49.2360   57.8670 O.co2     1 NAR390      0.0000 
     21 H          20.3186   52.7166   55.5738 H         1 NAR390      0.0000 
     22 H          16.8173   51.8532   57.5979 H         1 NAR390      0.0000 
     23 H          19.5284   47.9030   53.8168 H         1 NAR390      0.0000 
     24 H          20.3721   46.9682   55.0635 H         1 NAR390      0.0000 
     25 H          21.8106   48.7770   55.5537 H         1 NAR390      0.0000 
     26 H          20.9875   49.9138   52.0348 H         1 NAR390      0.0000 
     27 H          22.6362   49.5751   50.2680 H         1 NAR390      0.0000 
     28 H          24.8249   47.3231   52.8239 H         1 NAR390      0.0000 
     29 H          22.7747   46.8742   54.2139 H         1 NAR390      0.0000 
     30 H          24.4096   48.4847   49.6636 H         1 NAR390      0.0000 
     31 H          18.5437   54.2051   56.2795 H         1 NAR390      0.0000 
@<TRIPOS>BOND
     1    2    1 ar   
     2    6    1 ar   
     3   21    1 1    
     4    3    2 ar   
     5   19    2 1    
     6    4    3 ar   
     7   22    3 1    
     8    5    4 ar   
     9   20    4 ar   
    10    6    5 ar   
    11    7    5 1    
    12   10    6 1    
    13    8    7 1    
    14   11    7 2    
    15    9    8 1    
    16   23    8 1    
    17   24    8 1    
    18   10    9 1    
    19   12    9 1    
    20   25    9 1    
    21   13   12 ar   
    22   17   12 ar   
    23   14   13 ar   
    24   26   13 1    
    25   15   14 ar   
    26   27   14 1    
    27   16   15 ar   
    28   18   15 1    
    29   17   16 ar   
    30   28   16 1    
    31   29   17 1    
    32   30   18 1    
    33   31   19 1    
@<TRIPOS>SUBSTRUCTURE
     1 NAR390      1 GROUP   
@<TRIPOS>SET

