#    Name: 2bfq_AR6_1_INTS_M
#    Modification time : Mon Mar 24 20:54:46 2014

@<TRIPOS>MOLECULE
2bfq_AR6_1_INTS_M
   82     0     9     0     0
SMALL
NO_CHARGES


@<TRIPOS>ATOM
      1 N         -16.5085   22.6780   -4.4780 N.am      2 SEC2        0.0000 
      2 N         -17.0360   22.4650   -3.0910 N.am      8 SEL2        0.0000 
      3 N         -15.9810   22.8910   -5.8650 N.am      5 SEP2        0.0000 
      4 CA        -15.7975   23.9515   -3.6300 C.3       3 GLC5        0.0000 
      5 CA        -17.3730   23.6940   -2.5390 C.3       9 GLL5        0.0000 
      6 CA        -14.2220   24.2090   -4.7210 C.3       6 GLP5        0.0000 
      7 CA        -15.7555   22.9755   -1.4895 C.3       3 GLC5        0.0000 
      8 CA        -14.1380   22.2570   -0.4400 C.3       6 GLP5        0.0000 
      9 CA        -17.5475   25.0190   -4.3260 C.3       3 GLC5        0.0000 
     10 CA        -17.7220   26.3440   -6.1130 C.3       6 GLP5        0.0000 
     11 CA        -19.3540   23.3735   -2.1195 C.3       3 GLC5        0.0000 
     12 CA        -21.3350   23.0530   -1.7000 C.3       6 GLP5        0.0000 
     13 CA        -16.3295   22.3235    0.2350 C.3       3 GLC5        0.0000 
     14 CA        -18.0480   22.6270   -0.5560 C.3       9 GLL5        0.0000 
     15 CA        -14.6110   22.0200    1.0260 C.3       6 GLP5        0.0000 
     16 CA        -17.5845   21.4770   -4.4905 C.3       3 GLC5        0.0000 
     17 CA        -17.1930   21.2810   -2.3940 C.3       9 GLL5        0.0000 
     18 CA        -17.9760   21.6730   -6.5870 C.3       6 GLP5        0.0000 
     19 CA        -15.4190   22.1945   -3.1030 C.3       3 GLC5        0.0000 
     20 CA        -13.6450   23.1080   -3.8120 C.3       6 GLP5        0.0000 
     21 O         -16.4415   19.9905   -4.3330 O.2       1 ALC1        0.0000 
     22 O         -16.8650   20.1390   -2.9290 O.2       7 ALL1        0.0000 
     23 O         -16.0180   19.8420   -5.7370 O.2       4 ALP1        0.0000 
     24 CA        -20.1220   23.4005   -0.1040 C.3       3 GLC5        0.0000 
     25 CA        -18.9090   23.7480    1.4920 C.3       9 GLL5        0.0000 
     26 CA        -19.7040   24.4970    5.4420 C.3       3 GLC5        0.0000 
     27 CA        -19.6580   24.7330    3.4660 C.3       9 GLL5        0.0000 
     28 CA        -19.7500   24.2610    7.4180 C.3       6 GLP5        0.0000 
     29 CA        -18.4255   27.2150    2.7690 C.3       3 GLC5        0.0000 
     30 CA        -18.1760   25.1190    3.2160 C.3       9 GLL5        0.0000 
     31 CA        -18.6750   29.3110    2.3220 C.3       6 GLP5        0.0000 
     32 CA        -18.4810   24.5510    5.8895 C.3       3 GLC5        0.0000 
     33 CA        -17.2120   24.8410    4.3610 C.3       9 GLL5        0.0000 
     34 N         -15.6175   21.0600    3.6340 N.am      2 SEC2        0.0000 
     35 N         -15.9130   21.8950    4.7200 N.am      8 SEL2        0.0000 
     36 N         -15.3220   20.2250    2.5480 N.am      5 SEP2        0.0000 
     37 N         -14.6240   21.5520    4.8365 N.am      2 SEC2        0.0000 
     38 N         -13.3350   21.2090    4.9530 N.am      5 SEP2        0.0000 
     39 N         -18.0975   22.3310    7.9920 N.am      2 SEC2        0.0000 
     40 N         -17.2800   21.9220    6.8630 N.am      8 SEL2        0.0000 
     41 N         -18.9150   22.7400    9.1210 N.am      5 SEP2        0.0000 
     42 N         -17.9950   25.2790    7.8190 N.am      2 SEC2        0.0000 
     43 N         -16.7180   24.9310    8.3250 N.am      8 SEL2        0.0000 
     44 N         -19.2720   25.6270    7.3130 N.am      5 SEP2        0.0000 
     45 N         -17.1685   24.6015    9.6960 N.am      2 SEC2        0.0000 
     46 N         -17.6190   24.2720   11.0670 N.am      5 SEP2        0.0000 
     47 N         -14.7945   26.8290    7.3515 N.am      2 SEC2        0.0000 
     48 N         -14.3440   25.5040    7.6190 N.am      8 SEL2        0.0000 
     49 N         -15.2450   28.1540    7.0840 N.am      5 SEP2        0.0000 
     50 CA        -15.0855   21.9885    9.4965 C.3       3 GLC5        0.0000 
     51 CA        -13.3660   22.9760    8.5760 C.3       9 GLL5        0.0000 
     52 CA        -16.8050   21.0010   10.4170 C.3       6 GLP5        0.0000 
     53 CA        -12.7755   23.9895   10.0635 C.3       3 GLC5        0.0000 
     54 CA        -12.1850   25.0030   11.5510 C.3       6 GLP5        0.0000 
     55 N         -13.5030   17.0360    7.3590 N.am      2 SEC2        0.0000 
     56 N         -13.5440   18.3540    8.2770 N.am      8 SEL2        0.0000 
     57 N         -13.4620   15.7180    6.4410 N.am      5 SEP2        0.0000 
     58 CA        -14.0100   17.7375    6.7365 C.3       3 GLC5        0.0000 
     59 CA        -13.2650   19.6370    7.6740 C.3       9 GLL5        0.0000 
     60 CA        -14.7550   15.8380    5.7990 C.3       6 GLP5        0.0000 
     61 CA        -14.6720   19.6750    9.2185 C.3       3 GLC5        0.0000 
     62 CA        -16.0790   19.7130   10.7630 C.3       6 GLP5        0.0000 
     63 CA        -10.3310   21.6030    7.2010 C.3       3 GLC5        0.0000 
     64 CA        -11.8270   20.0940    7.7990 C.3       9 GLL5        0.0000 
     65 CA         -8.8350   23.1120    6.6030 C.3       6 GLP5        0.0000 
     66 N         -10.3135   19.5295   10.3000 N.am      2 SEC2        0.0000 
     67 N         -11.6770   20.0010   10.2650 N.am      8 SEL2        0.0000 
     68 N          -8.9500   19.0580   10.3350 N.am      5 SEP2        0.0000 
     69 CA        -10.3405   21.0790   10.1235 C.3       3 GLC5        0.0000 
     70 CA        -11.8960   20.8270    9.1270 C.3       9 GLL5        0.0000 
     71 CA         -8.7850   21.3310   11.1200 C.3       6 GLP5        0.0000 
     72 CA        -12.0635   22.2795   10.6215 C.3       3 GLC5        0.0000 
     73 CA        -12.2310   23.7320   12.1160 C.3       6 GLP5        0.0000 
     74 CA        -14.6500   20.6460    9.9585 C.3       3 GLC5        0.0000 
     75 CA        -13.2210   21.5790    9.1540 C.3       9 GLL5        0.0000 
     76 CA        -13.3395   22.3675   10.8080 C.3       3 GLC5        0.0000 
     77 CA        -13.4580   23.1560   12.4620 C.3       6 GLP5        0.0000 
     78 CA        -19.6127   22.5303   -1.2543 C.3       3 GLC5        0.0000 
     79 CA        -15.8005   21.7957   -1.0837 C.3       3 GLC5        0.0000 
     80 CA        -17.7330   21.3880   -1.0610 C.3       9 GLL5        0.0000 
     81 CA        -11.6365   19.6412    5.9693 C.3       3 GLC5        0.0000 
     82 CA        -10.7270   19.4170    4.2020 C.3       6 GLP5        0.0000 
@<TRIPOS>BOND
@<TRIPOS>SUBSTRUCTURE
     1 ALC1       21 GROUP        1 X    ALC  0     ROOT ALC X 1
     2 SEC2        1 GROUP        1 X    SEC  0     **** SEC X 2
     3 GLC5        4 GROUP        1 X    GLC  0     **** GLC X 6
     4 ALP1       23 GROUP        1 Y    ALP  0     ROOT ALP Y 8
     5 SEP2        3 GROUP        1 Y    SEP  0     **** SEP Y 9
     6 GLP5        6 GROUP        1 Y    GLP  0     **** GLP Y 13
     7 ALL1       22 GROUP        1 Z    ALL  0     ROOT ALL Z 15
     8 SEL2        2 GROUP        1 Z    SEL  0     **** SEL Z 16
     9 GLL5        5 GROUP        1 Z    GLL  0     **** GLL Z 20
@<TRIPOS>SET

