#    Name: 2bfq_AR6_1_ligand
#    Modification time : Mon Mar 24 20:54:46 2014

@<TRIPOS>MOLECULE
2bfq_AR6_1_ligand
   57    60     1     0     0
SMALL
NO_CHARGES


@<TRIPOS>ATOM
      1 N1        -17.0360   22.4650   -3.0910 N.ar      1 AR61193     0.0000 
      2 C2        -17.3730   23.6940   -2.5390 C.ar      1 AR61193     0.0000 
      3 N3        -17.8700   23.7660   -1.2860 N.ar      1 AR61193     0.0000 
      4 C4        -18.0480   22.6270   -0.5560 C.ar      1 AR61193     0.0000 
      5 C5        -17.7330   21.3880   -1.0610 C.ar      1 AR61193     0.0000 
      6 C6        -17.1930   21.2810   -2.3940 C.ar      1 AR61193     0.0000 
      7 N6        -16.8650   20.1390   -2.9290 N.pl3     1 AR61193     0.0000 
      8 N7        -18.0330   20.4760   -0.0870 N.2       1 AR61193     0.0000 
      9 C8        -18.4960   21.2080    0.9360 C.2       1 AR61193     0.0000 
     10 N9        -18.5320   22.5600    0.7100 N.pl3     1 AR61193     0.0000 
     11 C1'       -18.9090   23.7480    1.4920 C.3       1 AR61193     0.0000 
     12 C2'       -19.8950   23.4750    2.6420 C.3       1 AR61193     0.0000 
     13 O2'       -21.2320   23.2180    2.2070 O.3       1 AR61193     0.0000 
     14 C3'       -19.6580   24.7330    3.4660 C.3       1 AR61193     0.0000 
     15 O3'       -20.5180   25.7920    3.0810 O.3       1 AR61193     0.0000 
     16 O4'       -17.7690   24.2400    2.1470 O.3       1 AR61193     0.0000 
     17 C4'       -18.1760   25.1190    3.2160 C.3       1 AR61193     0.0000 
     18 C5'       -17.2120   24.8410    4.3610 C.3       1 AR61193     0.0000 
     19 O5'       -17.6350   23.6340    5.0940 O.3       1 AR61193     0.0000 
     20 PA        -16.5640   22.7600    5.7830 P.3       1 AR61193     0.0000 
     21 O1A       -15.9130   21.8950    4.7200 O.co2     1 AR61193     0.0000 
     22 O2A       -17.2800   21.9220    6.8630 O.co2     1 AR61193     0.0000 
     23 O3A       -15.4700   23.6450    6.4100 O.3       1 AR61193     0.0000 
     24 PB        -15.3710   24.4280    7.7770 P.3       1 AR61193     0.0000 
     25 O1B       -16.7180   24.9310    8.3250 O.co2     1 AR61193     0.0000 
     26 O2B       -14.3440   25.5040    7.6190 O.co2     1 AR61193     0.0000 
     27 O5D       -14.7710   23.3110    8.6910 O.3       1 AR61193     0.0000 
     28 C5D       -13.3660   22.9760    8.5760 C.3       1 AR61193     0.0000 
     29 O4D       -14.0120   20.6410    8.3610 O.3       1 AR61193     0.0000 
     30 O1D       -13.5440   18.3540    8.2770 O.3       1 AR61193     0.0000 
     31 C1D       -13.2650   19.6370    7.6740 C.3       1 AR61193     0.0000 
     32 O2D       -10.8080   19.0940    7.6950 O.3       1 AR61193     0.0000 
     33 C2D       -11.8270   20.0940    7.7990 C.3       1 AR61193     0.0000 
     34 O3D       -11.6770   20.0010   10.2650 O.3       1 AR61193     0.0000 
     35 C3D       -11.8960   20.8270    9.1270 C.3       1 AR61193     0.0000 
     36 C4D       -13.2210   21.5790    9.1540 C.3       1 AR61193     0.0000 
     37 H         -17.2355   24.5519   -3.1070 H         1 AR61193     0.0000 
     38 H         -16.9693   19.3336   -2.3455 H         1 AR61193     0.0000 
     39 H         -16.5392   20.1731   -3.8738 H         1 AR61193     0.0000 
     40 H         -18.7979   20.8106    1.8093 H         1 AR61193     0.0000 
     41 H         -19.3386   24.5064    0.8677 H         1 AR61193     0.0000 
     42 H         -19.4518   22.6523    3.2048 H         1 AR61193     0.0000 
     43 H         -19.7428   24.4753    4.5036 H         1 AR61193     0.0000 
     44 H         -18.1187   26.1229    2.9053 H         1 AR61193     0.0000 
     45 H         -17.1999   25.7080    5.0247 H         1 AR61193     0.0000 
     46 H         -16.2099   24.7074    3.9483 H         1 AR61193     0.0000 
     47 H         -12.7499   23.6521    9.1485 H         1 AR61193     0.0000 
     48 H         -13.0466   22.9580    7.5454 H         1 AR61193     0.0000 
     49 H         -13.5295   19.6501    6.6292 H         1 AR61193     0.0000 
     50 H         -11.7076   20.8949    7.0395 H         1 AR61193     0.0000 
     51 H         -11.1077   21.6224    9.0701 H         1 AR61193     0.0000 
     52 H         -13.6102   21.5312   10.1664 H         1 AR61193     0.0000 
     53 H         -21.6323   22.6476    2.9242 H         1 AR61193     0.0000 
     54 H         -21.1006   25.4052    2.3662 H         1 AR61193     0.0000 
     55 H         -12.6710   18.0532    8.6609 H         1 AR61193     0.0000 
     56 H         -10.7151   18.7224    8.6187 H         1 AR61193     0.0000 
     57 H         -11.2449   20.5994   10.9397 H         1 AR61193     0.0000 
@<TRIPOS>BOND
     1    2    1 ar   
     2    6    1 ar   
     3    3    2 ar   
     4   37    2 1    
     5    4    3 ar   
     6    5    4 ar   
     7   10    4 1    
     8    6    5 ar   
     9    8    5 1    
    10    7    6 1    
    11   38    7 1    
    12   39    7 1    
    13    9    8 2    
    14   10    9 1    
    15   40    9 1    
    16   11   10 1    
    17   12   11 1    
    18   16   11 1    
    19   41   11 1    
    20   13   12 1    
    21   14   12 1    
    22   42   12 1    
    23   53   13 1    
    24   15   14 1    
    25   17   14 1    
    26   43   14 1    
    27   54   15 1    
    28   17   16 1    
    29   18   17 1    
    30   44   17 1    
    31   19   18 1    
    32   45   18 1    
    33   46   18 1    
    34   20   19 1    
    35   21   20 ar   
    36   22   20 ar   
    37   23   20 1    
    38   24   23 1    
    39   25   24 ar   
    40   26   24 ar   
    41   27   24 1    
    42   28   27 1    
    43   36   28 1    
    44   47   28 1    
    45   48   28 1    
    46   31   29 1    
    47   36   29 1    
    48   31   30 1    
    49   55   30 1    
    50   33   31 1    
    51   49   31 1    
    52   33   32 1    
    53   56   32 1    
    54   35   33 1    
    55   50   33 1    
    56   35   34 1    
    57   57   34 1    
    58   36   35 1    
    59   51   35 1    
    60   52   36 1    
@<TRIPOS>SUBSTRUCTURE
     1 AR61193     1 GROUP   
@<TRIPOS>SET

