#    Name: 2w9s_TOP_2_INTS_M
#    Modification time : Tue Mar 25 03:48:29 2014

@<TRIPOS>MOLECULE
2w9s_TOP_2_INTS_M
   62     0     9     0     0
SMALL
NO_CHARGES


@<TRIPOS>ATOM
      1 N         -11.2760   19.4460   32.7460 N.am      2 SEC2        0.0000 
      2 N         -11.7230   20.4680   33.4790 N.am      8 SEL2        0.0000 
      3 N         -10.8290   18.4240   32.0130 N.am      5 SEP2        0.0000 
      4 CA        -14.7110   21.7320   32.3830 C.3       3 GLC5        0.0000 
      5 CA        -13.0470   20.6110   33.3280 C.3       9 GLL5        0.0000 
      6 CA        -16.3750   22.8530   31.4380 C.3       6 GLP5        0.0000 
      7 CA        -14.7155   20.4295   34.3300 C.3       3 GLC5        0.0000 
      8 CA        -16.3840   20.2480   35.3320 C.3       6 GLP5        0.0000 
      9 CA        -13.1565   18.6630   33.8875 C.3       3 GLC5        0.0000 
     10 CA        -13.2660   16.7150   34.4470 C.3       6 GLP5        0.0000 
     11 CA        -11.9400   21.5585   32.4715 C.3       3 GLC5        0.0000 
     12 CA        -10.8330   22.5060   31.6150 C.3       6 GLP5        0.0000 
     13 O         -13.1405   18.8215   31.6325 O.2       1 ALC1        0.0000 
     14 O         -13.7060   19.7780   32.4880 O.2       7 ALL1        0.0000 
     15 O         -12.5750   17.8650   30.7770 O.2       4 ALP1        0.0000 
     16 O         -12.2675   19.1010   32.2505 O.2       1 ALC1        0.0000 
     17 O         -10.8290   18.4240   32.0130 O.2       4 ALP1        0.0000 
     18 CA        -14.5860   23.6660   33.8860 C.3       3 GLC5        0.0000 
     19 CA        -13.1120   22.4850   34.7780 C.3       9 GLL5        0.0000 
     20 CA        -16.0600   24.8470   32.9940 C.3       6 GLP5        0.0000 
     21 CA        -14.7480   21.3665   35.0550 C.3       3 GLC5        0.0000 
     22 O         -15.1285   23.2605   35.3865 O.2       1 ALC1        0.0000 
     23 O         -13.7990   23.4550   35.4350 O.2       7 ALL1        0.0000 
     24 O         -16.4580   23.0660   35.3380 O.2       4 ALP1        0.0000 
     25 O         -13.6215   24.3455   36.5925 O.2       1 ALC1        0.0000 
     26 O         -13.4440   25.2360   37.7500 O.2       4 ALP1        0.0000 
     27 CA        -10.8735   22.9530   33.7215 C.3       3 GLC5        0.0000 
     28 CA        -10.9140   23.4000   35.8280 C.3       9 GLL5        0.0000 
     29 CA        -10.7370   25.1120   35.2815 C.3       3 GLC5        0.0000 
     30 CA        -10.5600   26.8240   34.7350 C.3       6 GLP5        0.0000 
     31 CA        -11.6380   22.7090   37.1960 C.3       3 GLC5        0.0000 
     32 CA        -12.3620   22.0180   38.5640 C.3       6 GLP5        0.0000 
     33 CA         -8.9115   20.9500   37.5960 C.3       3 GLC5        0.0000 
     34 CA         -8.8110   22.9500   37.0630 C.3       9 GLL5        0.0000 
     35 CA         -9.0120   18.9500   38.1290 C.3       6 GLP5        0.0000 
     36 CA         -7.5750   20.6685   38.6475 C.3       3 GLC5        0.0000 
     37 CA         -7.6080   22.4190   39.5600 C.3       9 GLL5        0.0000 
     38 CA         -7.5420   18.9180   37.7350 C.3       6 GLP5        0.0000 
     39 CA         -6.4355   23.4485   40.8320 C.3       3 GLC5        0.0000 
     40 CA         -5.2630   24.4780   42.1040 C.3       6 GLP5        0.0000 
     41 CA         -8.5335   21.9190   41.0815 C.3       3 GLC5        0.0000 
     42 CA         -9.4590   21.4190   42.6030 C.3       6 GLP5        0.0000 
     43 CA         -6.0435   20.3740   36.0245 C.3       3 GLC5        0.0000 
     44 CA         -4.6480   21.6830   35.8470 C.3       9 GLL5        0.0000 
     45 CA         -7.4390   19.0650   36.2020 C.3       6 GLP5        0.0000 
     46 CA         -7.0315   21.9140   33.1965 C.3       3 GLC5        0.0000 
     47 CA         -7.1690   23.3980   34.8790 C.3       9 GLL5        0.0000 
     48 CA         -6.8940   20.4300   31.5140 C.3       6 GLP5        0.0000 
     49 CA         -6.8080   22.3250   32.0820 C.3       3 GLC5        0.0000 
     50 CA         -6.7220   24.2200   32.6500 C.3       9 GLL5        0.0000 
     51 CA         -7.3305   26.1695   32.2735 C.3       3 GLC5        0.0000 
     52 CA         -7.9390   28.1190   31.8970 C.3       6 GLP5        0.0000 
     53 CA         -9.6940   23.0095   33.1730 C.3       3 GLC5        0.0000 
     54 CA         -8.5550   23.5130   34.7310 C.3       9 GLL5        0.0000 
     55 CA        -11.5263   22.3379   33.1543 C.3       3 GLC5        0.0000 
     56 CA        -11.6410   22.3710   34.9510 C.3       9 GLL5        0.0000 
     57 CA         -7.2285   21.0000   36.4160 C.3       3 GLC5        0.0000 
     58 CA         -7.4190   22.8130   37.1710 C.3       9 GLL5        0.0000 
     59 CA         -6.6752   24.7282   36.6418 C.3       3 GLC5        0.0000 
     60 CA         -6.2570   26.2900   37.5290 C.3       6 GLP5        0.0000 
     61 CA         -8.2048   25.1025   36.3468 C.3       3 GLC5        0.0000 
     62 CA         -7.5820   26.8890   37.1010 C.3       6 GLP5        0.0000 
@<TRIPOS>BOND
@<TRIPOS>SUBSTRUCTURE
     1 ALC1       13 GROUP        1 X    ALC  0     ROOT ALC X 1
     2 SEC2        1 GROUP        1 X    SEC  0     **** SEC X 2
     3 GLC5        4 GROUP        1 X    GLC  0     **** GLC X 6
     4 ALP1       15 GROUP        1 Y    ALP  0     ROOT ALP Y 8
     5 SEP2        3 GROUP        1 Y    SEP  0     **** SEP Y 9
     6 GLP5        6 GROUP        1 Y    GLP  0     **** GLP Y 13
     7 ALL1       14 GROUP        1 Z    ALL  0     ROOT ALL Z 15
     8 SEL2        2 GROUP        1 Z    SEL  0     **** SEL Z 16
     9 GLL5        5 GROUP        1 Z    GLL  0     **** GLL Z 20
@<TRIPOS>SET

