#    Name: 2w9s_TOP_2_ligand
#    Modification time : Tue Mar 25 03:48:29 2014

@<TRIPOS>MOLECULE
2w9s_TOP_2_ligand
   39    40     1     0     0
SMALL
NO_CHARGES


@<TRIPOS>ATOM
      1 C1        -11.0130   21.3380   34.2670 C.ar      1 TOP1160     0.0000 
      2 N2        -11.7230   20.4680   33.4790 N.ar      1 TOP1160     0.0000 
      3 C3        -13.0470   20.6110   33.3280 C.ar      1 TOP1160     0.0000 
      4 N4        -13.7060   19.7780   32.4880 N.pl3     1 TOP1160     0.0000 
      5 N5        -13.7300   21.6050   33.9620 N.ar      1 TOP1160     0.0000 
      6 C6        -13.1120   22.4850   34.7780 C.ar      1 TOP1160     0.0000 
      7 N7        -13.7990   23.4550   35.4350 N.pl3     1 TOP1160     0.0000 
      8 C8        -11.6410   22.3710   34.9510 C.ar      1 TOP1160     0.0000 
      9 C9        -10.9140   23.4000   35.8280 C.3       1 TOP1160     0.0000 
     10 C10        -9.3890   23.2880   35.8450 C.ar      1 TOP1160     0.0000 
     11 C11        -8.8110   22.9500   37.0630 C.ar      1 TOP1160     0.0000 
     12 C12        -7.4190   22.8130   37.1710 C.ar      1 TOP1160     0.0000 
     13 O13        -6.8320   22.4880   38.3710 O.3       1 TOP1160     0.0000 
     14 C14        -7.6080   22.4190   39.5600 C.3       1 TOP1160     0.0000 
     15 C15        -6.6170   23.0570   36.0890 C.ar      1 TOP1160     0.0000 
     16 O16        -5.2440   22.9210   36.2020 O.3       1 TOP1160     0.0000 
     17 C17        -4.6480   21.6830   35.8470 C.3       1 TOP1160     0.0000 
     18 C18        -7.1690   23.3980   34.8790 C.ar      1 TOP1160     0.0000 
     19 O19        -6.2910   23.6010   33.8640 O.3       1 TOP1160     0.0000 
     20 C20        -6.7220   24.2200   32.6500 C.3       1 TOP1160     0.0000 
     21 C21        -8.5550   23.5130   34.7310 C.ar      1 TOP1160     0.0000 
     22 H          -9.9817   21.2280   34.3591 H         1 TOP1160     0.0000 
     23 H         -13.3215   18.8604   32.3870 H         1 TOP1160     0.0000 
     24 H         -14.5188   20.1543   32.0431 H         1 TOP1160     0.0000 
     25 H         -14.7788   23.5078   35.2421 H         1 TOP1160     0.0000 
     26 H         -13.2644   24.0308   36.0536 H         1 TOP1160     0.0000 
     27 H         -11.2907   23.3085   36.8660 H         1 TOP1160     0.0000 
     28 H         -11.1940   24.4161   35.4862 H         1 TOP1160     0.0000 
     29 H          -9.4009   22.7986   37.8914 H         1 TOP1160     0.0000 
     30 H          -8.9625   23.7566   33.8295 H         1 TOP1160     0.0000 
     31 H          -7.0517   22.1693   40.3526 H         1 TOP1160     0.0000 
     32 H          -8.0427   23.2945   39.7711 H         1 TOP1160     0.0000 
     33 H          -8.3378   21.7391   39.4883 H         1 TOP1160     0.0000 
     34 H          -3.6554   21.7007   35.9670 H         1 TOP1160     0.0000 
     35 H          -4.9971   20.9295   36.4040 H         1 TOP1160     0.0000 
     36 H          -4.8236   21.4468   34.8913 H         1 TOP1160     0.0000 
     37 H          -5.9739   24.3084   31.9923 H         1 TOP1160     0.0000 
     38 H          -7.4457   23.6950   32.2020 H         1 TOP1160     0.0000 
     39 H          -7.0824   25.1391   32.8093 H         1 TOP1160     0.0000 
@<TRIPOS>BOND
     1    2    1 ar   
     2    8    1 ar   
     3   22    1 1    
     4    3    2 ar   
     5    4    3 1    
     6    5    3 ar   
     7   23    4 1    
     8   24    4 1    
     9    6    5 ar   
    10    7    6 1    
    11    8    6 ar   
    12   25    7 1    
    13   26    7 1    
    14    9    8 1    
    15   10    9 1    
    16   27    9 1    
    17   28    9 1    
    18   11   10 ar   
    19   21   10 ar   
    20   12   11 ar   
    21   29   11 1    
    22   13   12 1    
    23   15   12 ar   
    24   14   13 1    
    25   31   14 1    
    26   32   14 1    
    27   33   14 1    
    28   16   15 1    
    29   18   15 ar   
    30   17   16 1    
    31   34   17 1    
    32   35   17 1    
    33   36   17 1    
    34   19   18 1    
    35   21   18 ar   
    36   20   19 1    
    37   37   20 1    
    38   38   20 1    
    39   39   20 1    
    40   30   21 1    
@<TRIPOS>SUBSTRUCTURE
     1 TOP1160     1 GROUP   
@<TRIPOS>SET

