#    Name: 1tl1_H18_1_INTS_M
#    Modification time : Tue Mar 25 05:28:46 2014

@<TRIPOS>MOLECULE
1tl1_H18_1_INTS_M
   68     0     9     0     0
SMALL
NO_CHARGES


@<TRIPOS>ATOM
      1 CA          2.2065  -34.6000   21.9690 C.3       3 GLC5        0.0000 
      2 CA          2.2930  -35.9620   23.6580 C.3       9 GLL5        0.0000 
      3 CA          2.1200  -33.2380   20.2800 C.3       6 GLP5        0.0000 
      4 CA          5.0800  -36.7090   24.6960 C.3       3 GLC5        0.0000 
      5 CA          3.8350  -35.7750   23.6930 C.3       9 GLL5        0.0000 
      6 CA          6.3250  -37.6430   25.6990 C.3       6 GLP5        0.0000 
      7 CA          5.9200  -33.7300   23.2600 C.3       3 GLC5        0.0000 
      8 CA          4.1540  -34.4270   24.3520 C.3       9 GLL5        0.0000 
      9 CA          7.6860  -33.0330   22.1680 C.3       6 GLP5        0.0000 
     10 CA          4.8550  -33.0385   25.6790 C.3       3 GLC5        0.0000 
     11 CA          5.5560  -31.6500   27.0060 C.3       6 GLP5        0.0000 
     12 CA          4.1325  -33.2320   26.8125 C.3       3 GLC5        0.0000 
     13 CA          3.8590  -34.5640   25.8570 C.3       9 GLL5        0.0000 
     14 CA          4.4060  -31.9000   27.7680 C.3       6 GLP5        0.0000 
     15 CA          1.5565  -36.2785   27.0630 C.3       3 GLC5        0.0000 
     16 CA          2.3780  -34.9640   26.1940 C.3       9 GLL5        0.0000 
     17 CA          0.7350  -37.5930   27.9320 C.3       6 GLP5        0.0000 
     18 CA          2.2935  -33.3870   27.3045 C.3       3 GLC5        0.0000 
     19 CA          2.2090  -31.8100   28.4150 C.3       6 GLP5        0.0000 
     20 CA         -0.6135  -36.0065   25.3995 C.3       3 GLC5        0.0000 
     21 CA          1.5870  -35.7850   25.0900 C.3       9 GLL5        0.0000 
     22 CA         -2.8140  -36.2280   25.7090 C.3       6 GLP5        0.0000 
     23 O           0.6915  -36.8360   17.0335 O.2       1 ALC1        0.0000 
     24 O           0.9710  -36.8560   18.4110 O.2       7 ALL1        0.0000 
     25 O           0.4120  -36.8160   15.6560 O.2       4 ALP1        0.0000 
     26 N           2.9640  -36.6080   16.5450 N.am      2 SEC2        0.0000 
     27 N           3.1610  -37.5850   17.8380 N.am      8 SEL2        0.0000 
     28 N           2.7670  -35.6310   15.2520 N.am      5 SEP2        0.0000 
     29 CA         -1.2090  -38.4120   20.8845 C.3       3 GLC5        0.0000 
     30 CA          0.2350  -36.8180   20.8120 C.3       9 GLL5        0.0000 
     31 CA         -2.6530  -40.0060   20.9570 C.3       6 GLP5        0.0000 
     32 CA         -1.3950  -38.2770   22.5510 C.3       3 GLC5        0.0000 
     33 CA         -0.8230  -36.5280   21.7690 C.3       9 GLL5        0.0000 
     34 CA         -1.9670  -40.0260   23.3330 C.3       6 GLP5        0.0000 
     35 CA         -4.7830  -36.7060   22.8935 C.3       3 GLC5        0.0000 
     36 CA         -3.3250  -35.7010   22.3840 C.3       9 GLL5        0.0000 
     37 CA         -6.2410  -37.7110   23.4030 C.3       6 GLP5        0.0000 
     38 CA         -3.0695  -35.9645   24.0465 C.3       3 GLC5        0.0000 
     39 CA         -4.8790  -34.4865   21.7930 C.3       3 GLC5        0.0000 
     40 CA         -6.4330  -33.2720   21.2020 C.3       6 GLP5        0.0000 
     41 CA         -4.4745  -36.0045   20.6820 C.3       3 GLC5        0.0000 
     42 CA         -5.6240  -36.3080   18.9800 C.3       6 GLP5        0.0000 
     43 CA          4.7450  -42.1550   22.0830 C.3       3 GLC5        0.0000 
     44 CA          3.4550  -40.4250   21.8220 C.3       9 GLL5        0.0000 
     45 CA          6.0350  -43.8850   22.3440 C.3       6 GLP5        0.0000 
     46 CA          2.8920  -40.3835   23.8035 C.3       3 GLC5        0.0000 
     47 CA          2.3290  -40.3420   25.7850 C.3       6 GLP5        0.0000 
     48 CA          1.4370  -37.2233   25.6640 C.3       3 GLC5        0.0000 
     49 CA          0.9340  -38.5730   26.9540 C.3       6 GLP5        0.0000 
     50 CA          4.1333  -34.7285   21.9428 C.3       3 GLC5        0.0000 
     51 CA          4.2720  -34.3560   19.8630 C.3       6 GLP5        0.0000 
     52 CA          5.4537  -35.5132   25.7263 C.3       3 GLC5        0.0000 
     53 CA          6.9010  -36.5310   26.3480 C.3       6 GLP5        0.0000 
     54 CA          0.9297  -33.7533   24.9480 C.3       3 GLC5        0.0000 
     55 CA         -0.1230  -32.1320   24.2540 C.3       6 GLP5        0.0000 
     56 CA          3.7548  -36.1093   20.1750 C.3       3 GLC5        0.0000 
     57 CA          2.5520  -37.5950   20.2560 C.3       9 GLL5        0.0000 
     58 CA          1.2699  -35.0319   20.2366 C.3       3 GLC5        0.0000 
     59 CA          1.5140  -37.3110   21.2090 C.3       9 GLL5        0.0000 
     60 CA         -2.4235  -37.9715   20.7838 C.3       3 GLC5        0.0000 
     61 CA         -2.0790  -36.0420   21.3060 C.3       9 GLL5        0.0000 
     62 CA         -2.5830  -34.1508   22.6825 C.3       3 GLC5        0.0000 
     63 CA         -2.4640  -32.4300   23.5200 C.3       6 GLP5        0.0000 
     64 CA         -3.6847  -36.1635   19.3801 C.3       3 GLC5        0.0000 
     65 CA          3.7303  -41.1250   19.7415 C.3       3 GLC5        0.0000 
     66 CA          3.7780  -42.2100   18.2920 C.3       6 GLP5        0.0000 
     67 CA          5.0039  -39.5589   22.5643 C.3       3 GLC5        0.0000 
     68 CA          6.3220  -39.4590   23.8980 C.3       6 GLP5        0.0000 
@<TRIPOS>BOND
@<TRIPOS>SUBSTRUCTURE
     1 ALC1       23 GROUP        1 X    ALC  0     ROOT ALC X 1
     2 SEC2       26 GROUP        1 X    SEC  0     **** SEC X 2
     3 GLC5        1 GROUP        1 X    GLC  0     **** GLC X 6
     4 ALP1       25 GROUP        1 Y    ALP  0     ROOT ALP Y 8
     5 SEP2       28 GROUP        1 Y    SEP  0     **** SEP Y 9
     6 GLP5        3 GROUP        1 Y    GLP  0     **** GLP Y 13
     7 ALL1       24 GROUP        1 Z    ALL  0     ROOT ALL Z 15
     8 SEL2       27 GROUP        1 Z    SEL  0     **** SEL Z 16
     9 GLL5        2 GROUP        1 Z    GLL  0     **** GLL Z 20
@<TRIPOS>SET

