#    Name: 1tl1_H18_1_ligand
#    Modification time : Tue Mar 25 05:28:47 2014

@<TRIPOS>MOLECULE
1tl1_H18_1_ligand
   45    47     1     0     0
SMALL
NO_CHARGES


@<TRIPOS>ATOM
      1 CA          2.2930  -35.9620   23.6580 C.3       1 H18999      0.0000 
      2 CB          3.8350  -35.7750   23.6930 C.3       1 H18999      0.0000 
      3 CC          4.1540  -34.4270   24.3520 C.3       1 H18999      0.0000 
      4 CD          3.8590  -34.5640   25.8570 C.3       1 H18999      0.0000 
      5 CE          2.3780  -34.9640   26.1940 C.3       1 H18999      0.0000 
      6 CF          1.5870  -35.7850   25.0900 C.3       1 H18999      0.0000 
      7 N1          0.9710  -36.8560   18.4110 N.am      1 H18999      0.0000 
      8 C6          2.2840  -37.3580   18.7650 C.2       1 H18999      0.0000 
      9 O2          3.1610  -37.5850   17.8380 O.2       1 H18999      0.0000 
     10 C5          2.5520  -37.5950   20.2560 C.2       1 H18999      0.0000 
     11 C4          1.5140  -37.3110   21.2090 C.2       1 H18999      0.0000 
     12 S4          1.8440  -37.5910   22.9300 S.o       1 H18999      0.0000 
     13 C2         -0.0350  -36.5870   19.3760 C.ar      1 H18999      0.0000 
     14 C3          0.2350  -36.8180   20.8120 C.ar      1 H18999      0.0000 
     15 C7         -0.8230  -36.5280   21.7690 C.ar      1 H18999      0.0000 
     16 C8         -2.0790  -36.0420   21.3060 C.ar      1 H18999      0.0000 
     17 C9         -2.3090  -35.8320   19.9150 C.ar      1 H18999      0.0000 
     18 C10        -1.2970  -36.1010   18.9500 C.ar      1 H18999      0.0000 
     19 CL         -3.3250  -35.7010   22.3840 Cl        1 H18999      0.0000 
     20 C11         3.9230  -38.1300   20.7180 C.3       1 H18999      0.0000 
     21 C12         3.9100  -39.6550   20.5600 C.3       1 H18999      0.0000 
     22 C13         3.4550  -40.4250   21.8220 C.3       1 H18999      0.0000 
     23 OS          0.6250  -38.1530   23.6120 O.2       1 H18999      0.0000 
     24 H           1.8382  -35.2774   22.9562 H         1 H18999      0.0000 
     25 H           4.2108  -35.7840   22.6841 H         1 H18999      0.0000 
     26 H           4.2705  -36.5732   24.2695 H         1 H18999      0.0000 
     27 H           3.5250  -33.6644   23.9342 H         1 H18999      0.0000 
     28 H           5.1926  -34.1952   24.2127 H         1 H18999      0.0000 
     29 H           4.0767  -33.6108   26.3576 H         1 H18999      0.0000 
     30 H           4.5239  -35.3240   26.2893 H         1 H18999      0.0000 
     31 H           1.8055  -34.0434   26.4078 H         1 H18999      0.0000 
     32 H           2.3781  -35.5593   27.1248 H         1 H18999      0.0000 
     33 H           1.3782  -36.7924   25.4875 H         1 H18999      0.0000 
     34 H           0.6117  -35.2972   24.9247 H         1 H18999      0.0000 
     35 H           0.7707  -36.6909   17.4102 H         1 H18999      0.0000 
     36 H          -0.6533  -36.6754   22.7533 H         1 H18999      0.0000 
     37 H          -3.2211  -35.4804   19.6038 H         1 H18999      0.0000 
     38 H          -1.4807  -35.9449   17.9638 H         1 H18999      0.0000 
     39 H           4.0729  -37.8755   21.7507 H         1 H18999      0.0000 
     40 H           4.6940  -37.7097   20.0994 H         1 H18999      0.0000 
     41 H           4.9213  -39.9969   20.2873 H         1 H18999      0.0000 
     42 H           3.2421  -39.9244   19.7261 H         1 H18999      0.0000 
     43 H           3.4608  -41.4142   21.6757 H         1 H18999      0.0000 
     44 H           4.0503  -40.2409   22.6042 H         1 H18999      0.0000 
     45 H           2.5262  -40.1745   22.0952 H         1 H18999      0.0000 
@<TRIPOS>BOND
     1    2    1 1    
     2    6    1 1    
     3   12    1 1    
     4   24    1 1    
     5    3    2 1    
     6   25    2 1    
     7   26    2 1    
     8    4    3 1    
     9   27    3 1    
    10   28    3 1    
    11    5    4 1    
    12   29    4 1    
    13   30    4 1    
    14    6    5 1    
    15   31    5 1    
    16   32    5 1    
    17   33    6 1    
    18   34    6 1    
    19    8    7 am   
    20   13    7 1    
    21   35    7 1    
    22    9    8 2    
    23   10    8 1    
    24   11   10 2    
    25   20   10 1    
    26   12   11 1    
    27   14   11 1    
    28   23   12 2    
    29   14   13 ar   
    30   18   13 ar   
    31   15   14 ar   
    32   16   15 ar   
    33   36   15 1    
    34   17   16 ar   
    35   19   16 1    
    36   18   17 ar   
    37   37   17 1    
    38   38   18 1    
    39   21   20 1    
    40   39   20 1    
    41   40   20 1    
    42   22   21 1    
    43   41   21 1    
    44   42   21 1    
    45   43   22 1    
    46   44   22 1    
    47   45   22 1    
@<TRIPOS>SUBSTRUCTURE
     1 H18999      1 GROUP   
@<TRIPOS>SET

