#    Name: 3sa4_F72_1_INTS_M
#    Modification time : Mon Apr  7 22:09:08 2014

@<TRIPOS>MOLECULE
3sa4_F72_1_INTS_M
   83     0     9     0     0
SMALL
NO_CHARGES


@<TRIPOS>ATOM
      1 CA         24.2250   29.5070   11.5975 C.3       3 GLC5        0.0000 
      2 CA         23.5060   27.7570   11.7370 C.3       9 GLL5        0.0000 
      3 CA         24.9440   31.2570   11.4580 C.3       6 GLP5        0.0000 
      4 O          26.0910   25.6130   10.1955 O.2       1 ALC1        0.0000 
      5 O          25.4560   26.8450   10.7590 O.2       7 ALL1        0.0000 
      6 O          26.7260   24.3810    9.6320 O.2       4 ALP1        0.0000 
      7 CA         17.4895   30.6115   17.8810 C.3       3 GLC5        0.0000 
      8 CA         18.9410   30.5530   16.2350 C.3       9 GLL5        0.0000 
      9 CA         16.0380   30.6700   19.5270 C.3       6 GLP5        0.0000 
     10 N          19.4430   27.8870   17.8090 N.am      2 SEC2        0.0000 
     11 N          19.9880   28.3710   16.5300 N.am      8 SEL2        0.0000 
     12 N          18.8980   27.4030   19.0880 N.am      5 SEP2        0.0000 
     13 O          18.7860   28.1460   16.9650 O.2       1 ALC1        0.0000 
     14 O          19.9880   28.3710   16.5300 O.2       7 ALL1        0.0000 
     15 O          17.5840   27.9210   17.4000 O.2       4 ALP1        0.0000 
     16 CA         21.7190   34.3950   13.6605 C.3       3 GLC5        0.0000 
     17 CA         22.9440   32.9960   14.8170 C.3       9 GLL5        0.0000 
     18 CA         20.4940   35.7940   12.5040 C.3       6 GLP5        0.0000 
     19 CA         23.7435   32.8360   12.9695 C.3       3 GLC5        0.0000 
     20 CA         24.5430   32.6760   11.1220 C.3       6 GLP5        0.0000 
     21 O          20.4575   26.8065   14.1625 O.2       1 ALC1        0.0000 
     22 O          20.6380   28.3400   13.7040 O.2       7 ALL1        0.0000 
     23 O          20.2770   25.2730   14.6210 O.2       4 ALP1        0.0000 
     24 CA         17.3340   26.3775   14.5335 C.3       3 GLC5        0.0000 
     25 CA         18.2510   28.3900   14.1680 C.3       9 GLL5        0.0000 
     26 CA         16.4170   24.3650   14.8990 C.3       6 GLP5        0.0000 
     27 CA         17.3170   25.5580   13.5820 C.3       3 GLC5        0.0000 
     28 CA         18.2170   26.7510   12.2650 C.3       9 GLL5        0.0000 
     29 N          14.3925   34.8065   20.0080 N.am      2 SEC2        0.0000 
     30 N          14.8340   35.4720   18.6310 N.am      8 SEL2        0.0000 
     31 N          13.9510   34.1410   21.3850 N.am      5 SEP2        0.0000 
     32 CA         16.3005   33.0975   18.9595 C.3       3 GLC5        0.0000 
     33 CA         15.4700   34.6640   17.7610 C.3       9 GLL5        0.0000 
     34 CA         17.1310   31.5310   20.1580 C.3       6 GLP5        0.0000 
     35 CA         13.7590   35.0345   19.1175 C.3       3 GLC5        0.0000 
     36 CA         12.0480   35.4050   20.4740 C.3       6 GLP5        0.0000 
     37 CA         14.2350   35.3490   16.0295 C.3       3 GLC5        0.0000 
     38 CA         13.0000   36.0340   14.2980 C.3       6 GLP5        0.0000 
     39 CA         15.2875   31.0105   15.4785 C.3       3 GLC5        0.0000 
     40 CA         16.1010   32.6370   16.6190 C.3       9 GLL5        0.0000 
     41 CA         14.4740   29.3840   14.3380 C.3       6 GLP5        0.0000 
     42 CA         22.4195   26.1732   13.4420 C.3       3 GLC5        0.0000 
     43 CA         22.1610   27.6250   12.0080 C.3       9 GLL5        0.0000 
     44 CA         23.0230   25.2970   15.0690 C.3       6 GLP5        0.0000 
     45 CA         23.9297   26.8115   13.4195 C.3       3 GLC5        0.0000 
     46 CA         24.0350   26.3820   15.4440 C.3       6 GLP5        0.0000 
     47 CA         22.9065   25.4017   12.9398 C.3       3 GLC5        0.0000 
     48 CA         23.4650   25.5730   10.6620 C.3       9 GLL5        0.0000 
     49 CA         23.4455   23.6928   11.2733 C.3       3 GLC5        0.0000 
     50 CA         22.1150   25.4400   10.9590 C.3       9 GLL5        0.0000 
     51 CA         24.1010   21.8790   11.7360 C.3       6 GLP5        0.0000 
     52 CA         23.0732   33.1765   19.0855 C.3       3 GLC5        0.0000 
     53 CA         23.3510   34.0470   17.1210 C.3       9 GLL5        0.0000 
     54 CA         23.5500   32.2850   20.9500 C.3       6 GLP5        0.0000 
     55 CA         25.0440   34.9642   17.3987 C.3       3 GLC5        0.0000 
     56 CA         26.5020   35.9450   18.4040 C.3       6 GLP5        0.0000 
     57 CA         24.2152   34.8605   14.0553 C.3       3 GLC5        0.0000 
     58 CA         23.8210   33.9200   15.6660 C.3       9 GLL5        0.0000 
     59 CA         25.0480   36.2630   12.8690 C.3       6 GLP5        0.0000 
     60 CA         24.6580   32.3884   16.5911 C.3       3 GLC5        0.0000 
     61 CA         26.0510   31.2870   17.5770 C.3       6 GLP5        0.0000 
     62 CA         16.3242   26.5068   11.6212 C.3       3 GLC5        0.0000 
     63 CA         14.5350   26.4400   11.6460 C.3       6 GLP5        0.0000 
     64 CA         16.1450   28.2677    8.9025 C.3       3 GLC5        0.0000 
     65 CA         17.5700   27.3560   10.0220 C.3       9 GLL5        0.0000 
     66 CA         14.8270   28.5300    7.5630 C.3       6 GLP5        0.0000 
     67 CA         15.9990   27.2228   10.9440 C.3       3 GLC5        0.0000 
     68 CA         17.3560   28.6550   10.4620 C.3       9 GLL5        0.0000 
     69 CA         18.9333   29.7488    9.9495 C.3       3 GLC5        0.0000 
     70 CA         20.4100   30.6700    8.7690 C.3       6 GLP5        0.0000 
     71 CA         17.3137   30.6328   10.3095 C.3       3 GLC5        0.0000 
     72 CA         17.1710   32.4380    9.4890 C.3       6 GLP5        0.0000 
     73 CA         16.1550   27.4823   11.9500 C.3       3 GLC5        0.0000 
     74 CA         17.5570   29.0000   11.7980 C.3       9 GLL5        0.0000 
     75 CA         16.1568   28.9969   13.4782 C.3       3 GLC5        0.0000 
     76 CA         15.2748   37.2788   15.9462 C.3       3 GLC5        0.0000 
     77 CA         16.4080   35.4000   17.0400 C.3       9 GLL5        0.0000 
     78 CA         14.1120   38.3190   14.6800 C.3       6 GLP5        0.0000 
     79 CA         15.6505   33.1412   14.3332 C.3       3 GLC5        0.0000 
     80 CA         14.7290   33.3000   12.4300 C.3       6 GLP5        0.0000 
     81 CA         15.8762   31.8185   18.3090 C.3       3 GLC5        0.0000 
     82 CA         13.8630   33.1609   16.5853 C.3       3 GLC5        0.0000 
     83 CA         11.9760   33.0130   16.0300 C.3       6 GLP5        0.0000 
@<TRIPOS>BOND
@<TRIPOS>SUBSTRUCTURE
     1 ALC1        4 GROUP        1 X    ALC  0     ROOT ALC X 1
     2 SEC2       10 GROUP        1 X    SEC  0     **** SEC X 2
     3 GLC5        1 GROUP        1 X    GLC  0     **** GLC X 6
     4 ALP1        6 GROUP        1 Y    ALP  0     ROOT ALP Y 8
     5 SEP2       12 GROUP        1 Y    SEP  0     **** SEP Y 9
     6 GLP5        3 GROUP        1 Y    GLP  0     **** GLP Y 13
     7 ALL1        5 GROUP        1 Z    ALL  0     ROOT ALL Z 15
     8 SEL2       11 GROUP        1 Z    SEL  0     **** SEL Z 16
     9 GLL5        2 GROUP        1 Z    GLL  0     **** GLL Z 20
@<TRIPOS>SET

