#    Name: 3sa4_F72_1_ligand
#    Modification time : Mon Apr  7 22:09:08 2014

@<TRIPOS>MOLECULE
3sa4_F72_1_ligand
   76    80     1     0     0
SMALL
NO_CHARGES


@<TRIPOS>ATOM
      1 C21        21.4510   28.7090   12.7260 C.2       1 F72200      0.0000 
      2 O22        21.6200   29.8410   12.3270 O.2       1 F72200      0.0000 
      3 C22        22.1610   27.6250   12.0080 C.ar      1 F72200      0.0000 
      4 C27        23.5060   27.7570   11.7370 C.ar      1 F72200      0.0000 
      5 C26        24.1430   26.7250   11.0530 C.ar      1 F72200      0.0000 
      6 C25        23.4650   25.5730   10.6620 C.ar      1 F72200      0.0000 
      7 C24        22.1150   25.4400   10.9590 C.ar      1 F72200      0.0000 
      8 C23        21.4710   26.4740   11.6220 C.ar      1 F72200      0.0000 
      9 O27        25.4560   26.8450   10.7590 O.3       1 F72200      0.0000 
     10 C11        23.3510   34.0470   17.1210 C.3       1 F72200      0.0000 
     11 N11        19.2330   31.8730   15.6330 N.pl3     1 F72200      0.0000 
     12 C12        19.7320   32.8200   16.6440 C.3       1 F72200      0.0000 
     13 C13        21.0940   33.3260   16.2360 C.3       1 F72200      0.0000 
     14 C14        21.9970   32.2300   15.7000 C.3       1 F72200      0.0000 
     15 C15        21.8420   34.0890   17.3210 C.3       1 F72200      0.0000 
     16 C16        18.9410   30.5530   16.2350 C.3       1 F72200      0.0000 
     17 C17        19.9340   29.5270   15.6990 C.3       1 F72200      0.0000 
     18 C18        23.8210   33.9200   15.6660 C.3       1 F72200      0.0000 
     19 O18        19.9880   28.3710   16.5300 O.3       1 F72200      0.0000 
     20 C19        19.5810   29.1440   14.2730 C.3       1 F72200      0.0000 
     21 C20        22.9440   32.9960   14.8170 C.3       1 F72200      0.0000 
     22 N20        20.6380   28.3400   13.7040 N.am      1 F72200      0.0000 
     23 C32        18.2510   28.3900   14.1680 C.3       1 F72200      0.0000 
     24 C33        18.2170   26.7510   12.2650 C.ar      1 F72200      0.0000 
     25 C34        18.0100   26.3960   10.9280 C.ar      1 F72200      0.0000 
     26 C35        17.5700   27.3560   10.0220 C.ar      1 F72200      0.0000 
     27 C36        17.3560   28.6550   10.4620 C.ar      1 F72200      0.0000 
     28 C37        17.5570   29.0000   11.7980 C.ar      1 F72200      0.0000 
     29 C38        17.9930   28.0490   12.7100 C.ar      1 F72200      0.0000 
     30 C1         15.2230   36.7530   18.5550 C.2       1 F72200      0.0000 
     31 N1         14.8340   35.4720   18.6310 N.2       1 F72200      0.0000 
     32 S1         16.4670   37.0770   17.3850 S.3       1 F72200      0.0000 
     33 C2         15.4700   34.6640   17.7610 C.ar      1 F72200      0.0000 
     34 C3         16.4080   35.4000   17.0400 C.ar      1 F72200      0.0000 
     35 C4         17.1980   34.7180   16.0950 C.ar      1 F72200      0.0000 
     36 C5         17.0430   33.3280   15.8540 C.ar      1 F72200      0.0000 
     37 C6         16.1010   32.6370   16.6190 C.ar      1 F72200      0.0000 
     38 C7         15.3280   33.2970   17.5630 C.ar      1 F72200      0.0000 
     39 S8         17.9770   32.4800   14.8240 S.o2      1 F72200      0.0000 
     40 O9         18.5230   33.3600   13.8450 O.2       1 F72200      0.0000 
     41 O10        17.2800   31.4260   14.2360 O.2       1 F72200      0.0000 
     42 H          24.0247   28.5830   12.0260 H         1 F72200      0.0000 
     43 H          23.9602   24.8301   10.1590 H         1 F72200      0.0000 
     44 H          21.6061   24.5955   10.6936 H         1 F72200      0.0000 
     45 H          20.4605   26.3950   11.8365 H         1 F72200      0.0000 
     46 H          23.7677   33.1983   17.7007 H         1 F72200      0.0000 
     47 H          23.7977   34.9641   17.5563 H         1 F72200      0.0000 
     48 H          19.8124   32.3312   17.6172 H         1 F72200      0.0000 
     49 H          19.0522   33.6693   16.7390 H         1 F72200      0.0000 
     50 H          20.9506   34.0468   15.3892 H         1 F72200      0.0000 
     51 H          21.4287   31.5467   15.1247 H         1 F72200      0.0000 
     52 H          22.5237   31.7769   16.4988 H         1 F72200      0.0000 
     53 H          21.5083   35.1331   17.3214 H         1 F72200      0.0000 
     54 H          21.5967   33.6573   18.2982 H         1 F72200      0.0000 
     55 H          17.9341   30.2311   15.9789 H         1 F72200      0.0000 
     56 H          19.0357   30.5979   17.3176 H         1 F72200      0.0000 
     57 H          20.9182   30.0176   15.6666 H         1 F72200      0.0000 
     58 H          24.8533   33.5409   15.6577 H         1 F72200      0.0000 
     59 H          23.8352   34.9199   15.2084 H         1 F72200      0.0000 
     60 H          19.4791   30.0689   13.6916 H         1 F72200      0.0000 
     61 H          22.3833   33.5983   14.1057 H         1 F72200      0.0000 
     62 H          23.5840   32.3057   14.2721 H         1 F72200      0.0000 
     63 H          20.7350   27.3666   14.1440 H         1 F72200      0.0000 
     64 H          17.4553   29.0190   14.5419 H         1 F72200      0.0000 
     65 H          18.3107   27.4811   14.7502 H         1 F72200      0.0000 
     66 H          18.5435   26.0303   12.9337 H         1 F72200      0.0000 
     67 H          18.1822   25.4344   10.6210 H         1 F72200      0.0000 
     68 H          17.4066   27.1060    9.0435 H         1 F72200      0.0000 
     69 H          17.0434   29.3784    9.7924 H         1 F72200      0.0000 
     70 H          17.3801   29.9671   12.1070 H         1 F72200      0.0000 
     71 H          14.9626   37.5526   19.0130 H         1 F72200      0.0000 
     72 H          17.9118   35.2397   15.5596 H         1 F72200      0.0000 
     73 H          15.9811   31.6198   16.4769 H         1 F72200      0.0000 
     74 H          14.6407   32.7675   18.1238 H         1 F72200      0.0000 
     75 H          25.7169   25.9597   10.3741 H         1 F72200      0.0000 
     76 H          19.0789   27.9602   16.4610 H         1 F72200      0.0000 
@<TRIPOS>BOND
     1    2    1 2    
     2    3    1 1    
     3   22    1 am   
     4    4    3 ar   
     5    8    3 ar   
     6    5    4 ar   
     7   42    4 1    
     8    6    5 ar   
     9    9    5 1    
    10    7    6 ar   
    11   43    6 1    
    12    8    7 ar   
    13   44    7 1    
    14   45    8 1    
    15   75    9 1    
    16   15   10 1    
    17   18   10 1    
    18   46   10 1    
    19   47   10 1    
    20   12   11 1    
    21   16   11 1    
    22   39   11 1    
    23   13   12 1    
    24   48   12 1    
    25   49   12 1    
    26   14   13 1    
    27   15   13 1    
    28   50   13 1    
    29   21   14 1    
    30   51   14 1    
    31   52   14 1    
    32   53   15 1    
    33   54   15 1    
    34   17   16 1    
    35   55   16 1    
    36   56   16 1    
    37   19   17 1    
    38   20   17 1    
    39   57   17 1    
    40   21   18 1    
    41   58   18 1    
    42   59   18 1    
    43   76   19 1    
    44   22   20 1    
    45   23   20 1    
    46   60   20 1    
    47   61   21 1    
    48   62   21 1    
    49   63   22 1    
    50   29   23 1    
    51   64   23 1    
    52   65   23 1    
    53   25   24 ar   
    54   29   24 ar   
    55   66   24 1    
    56   26   25 ar   
    57   67   25 1    
    58   27   26 ar   
    59   68   26 1    
    60   28   27 ar   
    61   69   27 1    
    62   29   28 ar   
    63   70   28 1    
    64   31   30 2    
    65   32   30 1    
    66   71   30 1    
    67   33   31 1    
    68   34   32 1    
    69   34   33 ar   
    70   38   33 ar   
    71   35   34 ar   
    72   36   35 ar   
    73   72   35 1    
    74   37   36 ar   
    75   39   36 1    
    76   38   37 ar   
    77   73   37 1    
    78   74   38 1    
    79   40   39 2    
    80   41   39 2    
@<TRIPOS>SUBSTRUCTURE
     1 F72200      1 GROUP   
@<TRIPOS>SET

