#    Name: 3lhd_SAH_1_INTS_M
#    Modification time : Mon Mar 24 21:39:31 2014

@<TRIPOS>MOLECULE
3lhd_SAH_1_INTS_M
   53     0     9     0     0
SMALL
NO_CHARGES


@<TRIPOS>ATOM
      1 CA         35.0195  -16.1330  -40.7445 C.3       3 GLC5        0.0000 
      2 CA         33.4390  -16.6200  -41.8220 C.3       9 GLL5        0.0000 
      3 CA         36.6000  -15.6460  -39.6670 C.3       6 GLP5        0.0000 
      4 CA         35.7120  -15.5245  -41.8360 C.3       3 GLC5        0.0000 
      5 CA         34.7710  -16.5050  -42.9820 C.3       9 GLL5        0.0000 
      6 CA         36.6530  -14.5440  -40.6900 C.3       6 GLP5        0.0000 
      7 CA         34.4755  -14.4155  -43.3980 C.3       3 GLC5        0.0000 
      8 CA         33.9630  -16.1600  -44.5150 C.3       9 GLL5        0.0000 
      9 CA         34.9880  -12.6710  -42.2810 C.3       6 GLP5        0.0000 
     10 CA         35.5800  -19.2110  -47.4090 C.3       3 GLC5        0.0000 
     11 CA         35.5370  -17.5720  -45.9860 C.3       9 GLL5        0.0000 
     12 CA         35.6230  -20.8500  -48.8320 C.3       6 GLP5        0.0000 
     13 O          36.9110  -17.7630  -48.0590 O.2       1 ALC1        0.0000 
     14 O          35.4300  -17.7640  -47.3960 O.2       7 ALL1        0.0000 
     15 O          38.3920  -17.7620  -48.7220 O.2       4 ALP1        0.0000 
     16 O          36.1260  -17.1570  -48.5290 O.2       1 ALC1        0.0000 
     17 O          36.8220  -16.5500  -49.6620 O.2       4 ALP1        0.0000 
     18 O          38.1100  -18.0230  -47.5450 O.2       1 ALC1        0.0000 
     19 O          37.8280  -18.2840  -46.3680 O.2       7 ALL1        0.0000 
     20 CA         36.2295  -14.6765  -46.8605 C.3       3 GLC5        0.0000 
     21 CA         37.2520  -15.9820  -45.9010 C.3       9 GLL5        0.0000 
     22 CA         35.2070  -13.3710  -47.8200 C.3       6 GLP5        0.0000 
     23 CA         40.9275  -15.6110  -44.6385 C.3       3 GLC5        0.0000 
     24 CA         40.0060  -13.9100  -44.6120 C.3       9 GLL5        0.0000 
     25 CA         41.8490  -17.3120  -44.6650 C.3       6 GLP5        0.0000 
     26 CA         42.1080  -14.1080  -45.8630 C.3       3 GLC5        0.0000 
     27 CA         41.0320  -12.9050  -44.9790 C.3       9 GLL5        0.0000 
     28 CA         43.1840  -15.3110  -46.7470 C.3       6 GLP5        0.0000 
     29 CA         42.9170  -12.4760  -46.0255 C.3       3 GLC5        0.0000 
     30 CA         44.8020  -12.0470  -47.0720 C.3       6 GLP5        0.0000 
     31 CA         40.8270  -10.9505  -45.2270 C.3       3 GLC5        0.0000 
     32 CA         40.6220   -8.9960  -45.4750 C.3       6 GLP5        0.0000 
     33 O          43.2515  -12.1060  -44.0490 O.2       1 ALC1        0.0000 
     34 O          41.8800  -12.3910  -44.0560 O.2       7 ALL1        0.0000 
     35 O          44.6230  -11.8210  -44.0420 O.2       4 ALP1        0.0000 
     36 N          42.2055  -11.3370  -46.4665 N.am      2 SEC2        0.0000 
     37 N          41.1030  -12.5040  -46.2680 N.am      8 SEL2        0.0000 
     38 N          43.3080  -10.1700  -46.6650 N.am      5 SEP2        0.0000 
     39 CA         40.2330  -11.6010  -48.7015 C.3       3 GLC5        0.0000 
     40 CA         40.2720  -12.9940  -47.2050 C.3       9 GLL5        0.0000 
     41 CA         40.1940  -10.2080  -50.1980 C.3       6 GLP5        0.0000 
     42 CA         40.0985  -13.8505  -48.7830 C.3       3 GLC5        0.0000 
     43 CA         39.9250  -14.7070  -50.3610 C.3       6 GLP5        0.0000 
     44 CA         41.7280  -14.1525  -46.9760 C.3       3 GLC5        0.0000 
     45 CA         40.4470  -10.9950  -46.3400 C.3       3 GLC5        0.0000 
     46 CA         39.0975  -11.9280  -45.6375 C.3       3 GLC5        0.0000 
     47 CA         37.9230  -10.8620  -44.0700 C.3       6 GLP5        0.0000 
     48 CA         40.3640  -15.8230  -45.9290 C.3       3 GLC5        0.0000 
     49 CA         39.1400  -14.3980  -45.6900 C.3       9 GLL5        0.0000 
     50 CA         41.5880  -17.2480  -46.1680 C.3       6 GLP5        0.0000 
     51 CA         34.5465  -14.6167  -42.3415 C.3       3 GLC5        0.0000 
     52 CA         34.8243  -14.7785  -46.4668 C.3       3 GLC5        0.0000 
     53 CA         38.8762  -12.3824  -44.6564 C.3       3 GLC5        0.0000 
@<TRIPOS>BOND
@<TRIPOS>SUBSTRUCTURE
     1 ALC1       13 GROUP        1 X    ALC  0     ROOT ALC X 1
     2 SEC2       36 GROUP        1 X    SEC  0     **** SEC X 2
     3 GLC5        1 GROUP        1 X    GLC  0     **** GLC X 6
     4 ALP1       15 GROUP        1 Y    ALP  0     ROOT ALP Y 8
     5 SEP2       38 GROUP        1 Y    SEP  0     **** SEP Y 9
     6 GLP5        3 GROUP        1 Y    GLP  0     **** GLP Y 13
     7 ALL1       14 GROUP        1 Z    ALL  0     ROOT ALL Z 15
     8 SEL2       37 GROUP        1 Z    SEL  0     **** SEL Z 16
     9 GLL5        2 GROUP        1 Z    GLL  0     **** GLL Z 20
@<TRIPOS>SET

