#    Name: 3lhd_SAH_1_ligand
#    Modification time : Mon Mar 24 21:39:31 2014

@<TRIPOS>MOLECULE
3lhd_SAH_1_ligand
   46    48     1     0     0
SMALL
NO_CHARGES


@<TRIPOS>ATOM
      1 N          34.4940  -18.9730  -40.7080 N.4       1 SAH301      0.0000 
      2 CA         33.1960  -19.1760  -41.4360 C.3       1 SAH301      0.0000 
      3 CB         32.6220  -17.8920  -42.0510 C.3       1 SAH301      0.0000 
      4 CG         33.4390  -16.6200  -41.8220 C.3       1 SAH301      0.0000 
      5 SD         34.7710  -16.5050  -42.9820 S.3       1 SAH301      0.0000 
      6 C          33.3480  -20.2350  -42.5050 C.2       1 SAH301      0.0000 
      7 O          32.4190  -21.0140  -42.7360 O.co2     1 SAH301      0.0000 
      8 OXT        34.3800  -20.3630  -43.1770 O.co2     1 SAH301      0.0000 
      9 C5'        33.9630  -16.1600  -44.5150 C.3       1 SAH301      0.0000 
     10 C4'        34.9200  -16.2120  -45.7120 C.3       1 SAH301      0.0000 
     11 O4'        36.0270  -15.3220  -45.5520 O.3       1 SAH301      0.0000 
     12 C3'        35.5370  -17.5720  -45.9860 C.3       1 SAH301      0.0000 
     13 O3'        35.4300  -17.7640  -47.3960 O.3       1 SAH301      0.0000 
     14 C2'        36.9940  -17.4380  -45.5850 C.3       1 SAH301      0.0000 
     15 O2'        37.8280  -18.2840  -46.3680 O.3       1 SAH301      0.0000 
     16 C1'        37.2520  -15.9820  -45.9010 C.3       1 SAH301      0.0000 
     17 N9         38.3200  -15.2950  -45.1450 N.pl3     1 SAH301      0.0000 
     18 C8         38.5860  -15.3810  -43.8310 C.2       1 SAH301      0.0000 
     19 N7         39.6130  -14.5530  -43.4960 N.2       1 SAH301      0.0000 
     20 C5         40.0060  -13.9100  -44.6120 C.ar      1 SAH301      0.0000 
     21 C6         41.0320  -12.9050  -44.9790 C.ar      1 SAH301      0.0000 
     22 N6         41.8800  -12.3910  -44.0560 N.pl3     1 SAH301      0.0000 
     23 N1         41.1030  -12.5040  -46.2680 N.ar      1 SAH301      0.0000 
     24 C2         40.2720  -12.9940  -47.2050 C.ar      1 SAH301      0.0000 
     25 N3         39.3210  -13.9110  -46.9410 N.ar      1 SAH301      0.0000 
     26 C4         39.1400  -14.3980  -45.6900 C.ar      1 SAH301      0.0000 
     27 H          32.4487  -19.5532  -40.7138 H         1 SAH301      0.0000 
     28 H          31.5985  -17.7360  -41.6508 H         1 SAH301      0.0000 
     29 H          32.5015  -18.0472  -43.1434 H         1 SAH301      0.0000 
     30 H          33.9321  -16.6062  -40.8749 H         1 SAH301      0.0000 
     31 H          32.8790  -15.7277  -41.9971 H         1 SAH301      0.0000 
     32 H          33.5421  -15.1828  -44.3630 H         1 SAH301      0.0000 
     33 H          33.1929  -16.9080  -44.5672 H         1 SAH301      0.0000 
     34 H          34.3610  -15.9247  -46.6138 H         1 SAH301      0.0000 
     35 H          35.0606  -18.2920  -45.4188 H         1 SAH301      0.0000 
     36 H          37.0716  -17.5768  -44.5468 H         1 SAH301      0.0000 
     37 H          37.4070  -15.8748  -46.9625 H         1 SAH301      0.0000 
     38 H          38.1133  -15.9554  -43.1955 H         1 SAH301      0.0000 
     39 H          42.8557  -12.5050  -44.2431 H         1 SAH301      0.0000 
     40 H          41.4551  -11.9430  -43.2693 H         1 SAH301      0.0000 
     41 H          40.3697  -12.6405  -48.2049 H         1 SAH301      0.0000 
     42 H          34.8383  -19.8268  -40.3175 H         1 SAH301      0.0000 
     43 H          35.2074  -18.6185  -41.3125 H         1 SAH301      0.0000 
     44 H          34.3992  -18.3231  -39.9539 H         1 SAH301      0.0000 
     45 H          36.1016  -17.1390  -47.7939 H         1 SAH301      0.0000 
     46 H          37.5334  -18.1358  -47.3120 H         1 SAH301      0.0000 
@<TRIPOS>BOND
     1    2    1 1    
     2   42    1 1    
     3   43    1 1    
     4   44    1 1    
     5    3    2 1    
     6    6    2 1    
     7   27    2 1    
     8    4    3 1    
     9   28    3 1    
    10   29    3 1    
    11    5    4 1    
    12   30    4 1    
    13   31    4 1    
    14    9    5 1    
    15    7    6 ar   
    16    8    6 ar   
    17   10    9 1    
    18   32    9 1    
    19   33    9 1    
    20   11   10 1    
    21   12   10 1    
    22   34   10 1    
    23   16   11 1    
    24   13   12 1    
    25   14   12 1    
    26   35   12 1    
    27   45   13 1    
    28   15   14 1    
    29   16   14 1    
    30   36   14 1    
    31   46   15 1    
    32   17   16 1    
    33   37   16 1    
    34   18   17 1    
    35   26   17 1    
    36   19   18 2    
    37   38   18 1    
    38   20   19 1    
    39   21   20 ar   
    40   26   20 ar   
    41   22   21 1    
    42   23   21 ar   
    43   39   22 1    
    44   40   22 1    
    45   24   23 ar   
    46   25   24 ar   
    47   41   24 1    
    48   26   25 ar   
@<TRIPOS>SUBSTRUCTURE
     1 SAH301      1 GROUP   
@<TRIPOS>SET

