#    Name: 2ieg_FRY_4_INTS_M
#    Modification time : Tue Mar 25 17:45:26 2014

@<TRIPOS>MOLECULE
2ieg_FRY_4_INTS_M
   60     0     9     0     0
SMALL
NO_CHARGES


@<TRIPOS>ATOM
      1 CA         79.4150   47.4210   53.5715 C.3       3 GLC5        0.0000 
      2 CA         78.9060   48.4880   54.8450 C.3       9 GLL5        0.0000 
      3 CA         79.9240   46.3540   52.2980 C.3       6 GLP5        0.0000 
      4 CA         71.5500   47.4720   52.7385 C.3       3 GLC5        0.0000 
      5 CA         71.6360   48.6890   51.3690 C.3       9 GLL5        0.0000 
      6 CA         71.4640   46.2550   54.1080 C.3       6 GLP5        0.0000 
      7 N          73.0255   52.9025   53.5760 N.am      2 SEC2        0.0000 
      8 N          72.8310   52.0020   52.6970 N.am      8 SEL2        0.0000 
      9 N          73.2200   53.8030   54.4550 N.am      5 SEP2        0.0000 
     10 CA         70.0185   51.4800   54.1505 C.3       3 GLC5        0.0000 
     11 CA         70.0430   52.3820   52.6810 C.3       9 GLL5        0.0000 
     12 CA         69.9940   50.5780   55.6200 C.3       6 GLP5        0.0000 
     13 CA         68.3540   52.5490   53.3030 C.3       3 GLC5        0.0000 
     14 CA         66.6650   52.7160   53.9250 C.3       6 GLP5        0.0000 
     15 CA         66.1605   49.8410   49.1135 C.3       3 GLC5        0.0000 
     16 CA         68.1040   50.2580   49.4540 C.3       9 GLL5        0.0000 
     17 CA         64.2170   49.4240   48.7730 C.3       6 GLP5        0.0000 
     18 CA         66.9275   48.1460   48.6610 C.3       3 GLC5        0.0000 
     19 CA         68.5650   48.9820   49.1570 C.3       9 GLL5        0.0000 
     20 CA         65.2900   47.3100   48.1650 C.3       6 GLP5        0.0000 
     21 O          73.7380   49.0395   53.4980 O.2       1 ALC1        0.0000 
     22 O          73.8830   49.4740   52.1310 O.2       7 ALL1        0.0000 
     23 O          73.5930   48.6050   54.8650 O.2       4 ALP1        0.0000 
     24 N          77.1110   49.7850   50.3650 N.am      2 SEC2        0.0000 
     25 N          77.5880   50.1610   51.9790 N.am      8 SEL2        0.0000 
     26 N          76.6340   49.4090   48.7510 N.am      5 SEP2        0.0000 
     27 CA         80.0745   48.1340   52.6720 C.3       3 GLC5        0.0000 
     28 CA         80.2250   49.9140   53.0460 C.3       9 GLL5        0.0000 
     29 CA         81.3010   49.8445   51.1000 C.3       3 GLC5        0.0000 
     30 CA         82.3770   49.7750   49.1540 C.3       6 GLP5        0.0000 
     31 CA         78.9095   51.7105   53.1655 C.3       3 GLC5        0.0000 
     32 CA         77.5940   53.5070   53.2850 C.3       6 GLP5        0.0000 
     33 CA         81.9835   51.0235   53.1965 C.3       3 GLC5        0.0000 
     34 CA         83.7420   52.1330   53.3470 C.3       6 GLP5        0.0000 
     35 CA         83.0735   48.0135   56.3905 C.3       3 GLC5        0.0000 
     36 CA         81.6060   48.7280   55.4320 C.3       9 GLL5        0.0000 
     37 CA         84.5410   47.2990   57.3490 C.3       6 GLP5        0.0000 
     38 CA         80.5840   47.7945   56.8870 C.3       3 GLC5        0.0000 
     39 CA         79.5620   46.8610   58.3420 C.3       6 GLP5        0.0000 
     40 CA         81.5215   50.3900   56.3970 C.3       3 GLC5        0.0000 
     41 CA         81.4370   52.0520   57.3620 C.3       6 GLP5        0.0000 
     42 CA         82.9945   49.8785   54.7895 C.3       3 GLC5        0.0000 
     43 CA         84.3830   51.0290   54.1470 C.3       6 GLP5        0.0000 
     44 CA         78.1893   49.5388   55.8075 C.3       3 GLC5        0.0000 
     45 CA         80.1250   48.9750   54.4650 C.3       9 GLL5        0.0000 
     46 CA         76.8630   50.3460   56.9600 C.3       6 GLP5        0.0000 
     47 CA         80.9117   47.4258   54.1743 C.3       3 GLC5        0.0000 
     48 CA         80.9580   46.0000   53.4000 C.3       6 GLP5        0.0000 
     49 CA         79.5388   47.7963   56.4985 C.3       3 GLC5        0.0000 
     50 CA         80.5810   50.9772   54.9473 C.3       3 GLC5        0.0000 
     51 CA         80.9870   52.5100   56.1390 C.3       6 GLP5        0.0000 
     52 CA         77.0528   49.6437   55.3607 C.3       3 GLC5        0.0000 
     53 CA         76.5640   48.9100   53.6500 C.3       9 GLL5        0.0000 
     54 CA         78.5833   47.6478   53.0297 C.3       3 GLC5        0.0000 
     55 CA         77.9210   48.9730   53.8730 C.3       9 GLL5        0.0000 
     56 CA         76.3055   50.8420   53.7375 C.3       3 GLC5        0.0000 
     57 CA         75.4140   52.5580   54.0150 C.3       6 GLP5        0.0000 
     58 CA         68.0268   51.9380   48.4117 C.3       3 GLC5        0.0000 
     59 CA         68.7890   51.0400   50.3790 C.3       9 GLL5        0.0000 
     60 CA         67.6070   53.2270   46.9070 C.3       6 GLP5        0.0000 
@<TRIPOS>BOND
@<TRIPOS>SUBSTRUCTURE
     1 ALC1       21 GROUP        1 X    ALC  0     ROOT ALC X 1
     2 SEC2        7 GROUP        1 X    SEC  0     **** SEC X 2
     3 GLC5        1 GROUP        1 X    GLC  0     **** GLC X 6
     4 ALP1       23 GROUP        1 Y    ALP  0     ROOT ALP Y 8
     5 SEP2        9 GROUP        1 Y    SEP  0     **** SEP Y 9
     6 GLP5        3 GROUP        1 Y    GLP  0     **** GLP Y 13
     7 ALL1       22 GROUP        1 Z    ALL  0     ROOT ALL Z 15
     8 SEL2        8 GROUP        1 Z    SEL  0     **** SEL Z 16
     9 GLL5        2 GROUP        1 Z    GLL  0     **** GLL Z 20
@<TRIPOS>SET

