#    Name: 2ieg_FRY_4_ligand
#    Modification time : Tue Mar 25 17:45:26 2014

@<TRIPOS>MOLECULE
2ieg_FRY_4_ligand
   42    45     1     0     0
SMALL
NO_CHARGES


@<TRIPOS>ATOM
      1 C1         80.1250   48.9750   54.4650 C.3       1 FRY902      0.0000 
      2 C7         76.3820   49.6480   52.4440 C.2       1 FRY902      0.0000 
      3 C6         76.5640   48.9100   53.6500 C.2       1 FRY902      0.0000 
      4 C5         78.9060   48.4880   54.8450 C.2       1 FRY902      0.0000 
      5 C4         77.9210   48.9730   53.8730 C.2       1 FRY902      0.0000 
      6 C3         78.5050   49.7620   52.8550 C.2       1 FRY902      0.0000 
      7 C10        75.0810   49.9270   51.7160 C.2       1 FRY902      0.0000 
      8 C12        72.6560   49.8060   51.3940 C.3       1 FRY902      0.0000 
      9 C16        69.9350   50.5260   51.0090 C.ar      1 FRY902      0.0000 
     10 C14        71.6360   48.6890   51.3690 C.3       1 FRY902      0.0000 
     11 C15        70.3900   49.2410   50.6960 C.ar      1 FRY902      0.0000 
     12 C18        72.0020   51.0280   52.0120 C.2       1 FRY902      0.0000 
     13 O19        72.8310   52.0020   52.6970 O.2       1 FRY902      0.0000 
     14 C20        70.0430   52.3820   52.6810 C.3       1 FRY902      0.0000 
     15 O22        70.6360   54.6380   53.2010 O.2       1 FRY902      0.0000 
     16 C21        70.6650   53.7320   52.3650 C.2       1 FRY902      0.0000 
     17 N23        71.2760   53.8470   51.1830 N.am      1 FRY902      0.0000 
     18 N17        70.6840   51.2970   51.9220 N.am      1 FRY902      0.0000 
     19 C24        68.7890   51.0400   50.3790 C.ar      1 FRY902      0.0000 
     20 C25        68.1040   50.2580   49.4540 C.ar      1 FRY902      0.0000 
     21 C26        68.5650   48.9820   49.1570 C.ar      1 FRY902      0.0000 
     22 C27        69.7080   48.4670   49.7680 C.ar      1 FRY902      0.0000 
     23 N11        73.8830   49.4740   52.1310 N.am      1 FRY902      0.0000 
     24 O13        75.1500   50.6100   50.7060 O.2       1 FRY902      0.0000 
     25 N8         77.5880   50.1610   51.9790 N.2       1 FRY902      0.0000 
     26 S2         80.2250   49.9140   53.0460 S.3       1 FRY902      0.0000 
     27 CL         81.6060   48.7280   55.4320 Cl        1 FRY902      0.0000 
     28 H          80.4680   47.8150   53.6978 H         1 FRY902      0.0000 
     29 H          75.9085   48.4996   54.1410 H         1 FRY902      0.0000 
     30 H          78.6826   47.9473   55.5720 H         1 FRY902      0.0000 
     31 H          72.9008   50.0653   50.3608 H         1 FRY902      0.0000 
     32 H          71.3992   48.3882   52.3739 H         1 FRY902      0.0000 
     33 H          72.0160   47.8602   50.7988 H         1 FRY902      0.0000 
     34 H          68.9693   52.4303   52.4478 H         1 FRY902      0.0000 
     35 H          70.1359   52.2004   53.7617 H         1 FRY902      0.0000 
     36 H          71.6749   54.7410   50.9790 H         1 FRY902      0.0000 
     37 H          71.2798   53.0287   50.6082 H         1 FRY902      0.0000 
     38 H          68.4651   51.9840   50.6031 H         1 FRY902      0.0000 
     39 H          67.2625   50.6234   48.9942 H         1 FRY902      0.0000 
     40 H          68.0524   48.4003   48.4696 H         1 FRY902      0.0000 
     41 H          70.0378   47.5273   49.5321 H         1 FRY902      0.0000 
     42 H          73.7688   48.8847   52.9678 H         1 FRY902      0.0000 
@<TRIPOS>BOND
     1    4    1 1    
     2   26    1 1    
     3   27    1 1    
     4   28    1 1    
     5    3    2 2    
     6    7    2 1    
     7   25    2 1    
     8    5    3 1    
     9   29    3 1    
    10    5    4 2    
    11   30    4 1    
    12    6    5 1    
    13   25    6 2    
    14   26    6 1    
    15   23    7 am   
    16   24    7 2    
    17   10    8 1    
    18   12    8 1    
    19   23    8 1    
    20   31    8 1    
    21   11    9 ar   
    22   18    9 1    
    23   19    9 ar   
    24   11   10 1    
    25   32   10 1    
    26   33   10 1    
    27   22   11 ar   
    28   13   12 2    
    29   18   12 am   
    30   16   14 1    
    31   18   14 1    
    32   34   14 1    
    33   35   14 1    
    34   16   15 2    
    35   17   16 am   
    36   36   17 1    
    37   37   17 1    
    38   20   19 ar   
    39   38   19 1    
    40   21   20 ar   
    41   39   20 1    
    42   22   21 ar   
    43   40   21 1    
    44   41   22 1    
    45   42   23 1    
@<TRIPOS>SUBSTRUCTURE
     1 FRY902      1 GROUP   
@<TRIPOS>SET

