#    Name: 4bfu_ZVU_2_INTS_M
#    Modification time : Tue Mar 25 07:38:28 2014

@<TRIPOS>MOLECULE
4bfu_ZVU_2_INTS_M
   73     0     6     0     0
SMALL
NO_CHARGES


@<TRIPOS>ATOM
      1 CA        -67.2780  -14.8035   24.7305 C.3       2 GLC5        0.0000 
      2 CA        -67.9480  -14.9450   22.8780 C.3       6 GLL5        0.0000 
      3 CA        -66.6080  -14.6620   26.5830 C.3       4 GLP5        0.0000 
      4 CA        -64.9830  -14.8500   19.7305 C.3       2 GLC5        0.0000 
      5 CA        -64.9350  -15.3690   21.8700 C.3       6 GLL5        0.0000 
      6 CA        -65.0310  -14.3310   17.5910 C.3       4 GLP5        0.0000 
      7 CA        -64.0920  -10.8610   23.6870 C.3       2 GLC5        0.0000 
      8 CA        -64.2530  -12.8420   22.8400 C.3       6 GLL5        0.0000 
      9 CA        -63.9310   -8.8800   24.5340 C.3       4 GLP5        0.0000 
     10 N         -67.1025  -12.2135   25.0180 N.am      1 SEC2        0.0000 
     11 N         -67.2090  -12.1020   23.8170 N.am      5 SEL2        0.0000 
     12 N         -66.9960  -12.3250   26.2190 N.am      3 SEP2        0.0000 
     13 CA        -65.2110   -8.1250   22.5710 C.3       2 GLC5        0.0000 
     14 CA        -66.7740   -8.6330   21.4020 C.3       6 GLL5        0.0000 
     15 CA        -63.6480   -7.6170   23.7400 C.3       4 GLP5        0.0000 
     16 CA        -65.6725   -7.6290   19.8665 C.3       2 GLC5        0.0000 
     17 CA        -64.5710   -6.6250   18.3310 C.3       4 GLP5        0.0000 
     18 CA        -70.3290  -11.6165   24.0335 C.3       2 GLC5        0.0000 
     19 CA        -70.3770  -10.1850   22.8910 C.3       6 GLL5        0.0000 
     20 CA        -70.2810  -13.0480   25.1760 C.3       4 GLP5        0.0000 
     21 CA        -71.4265   -8.7560   23.3340 C.3       2 GLC5        0.0000 
     22 CA        -72.4760   -7.3270   23.7770 C.3       4 GLP5        0.0000 
     23 N         -68.1985  -10.2015   18.2705 N.am      1 SEC2        0.0000 
     24 N         -68.7370  -10.1500   19.6500 N.am      5 SEL2        0.0000 
     25 N         -67.6600  -10.2530   16.8910 N.am      3 SEP2        0.0000 
     26 N         -68.8605  -10.2990   18.0540 N.am      1 SEC2        0.0000 
     27 N         -70.0610  -10.3450   19.2170 N.am      5 SEL2        0.0000 
     28 CA        -74.0930  -10.6175   19.2755 C.3       2 GLC5        0.0000 
     29 CA        -72.4470  -10.5910   20.3950 C.3       6 GLL5        0.0000 
     30 CA        -75.7390  -10.6440   18.1560 C.3       4 GLP5        0.0000 
     31 CA        -73.0060   -8.9670   21.6520 C.3       2 GLC5        0.0000 
     32 CA        -73.5650   -7.3430   22.9090 C.3       4 GLP5        0.0000 
     33 CA        -72.4620  -13.0880   22.6480 C.3       2 GLC5        0.0000 
     34 CA        -72.7200  -12.1790   21.1480 C.3       6 GLL5        0.0000 
     35 CA        -72.2040  -13.9970   24.1480 C.3       4 GLP5        0.0000 
     36 CA        -74.8055  -11.7505   21.6270 C.3       2 GLC5        0.0000 
     37 CA        -76.8910  -11.3220   22.1060 C.3       4 GLP5        0.0000 
     38 CA        -73.4110  -16.1095   17.9485 C.3       2 GLC5        0.0000 
     39 CA        -72.6260  -14.2690   18.0150 C.3       6 GLL5        0.0000 
     40 CA        -74.1960  -17.9500   17.8820 C.3       4 GLP5        0.0000 
     41 CA        -70.2475  -16.5900   15.8155 C.3       2 GLC5        0.0000 
     42 CA        -71.0730  -15.8900   17.3030 C.3       6 GLL5        0.0000 
     43 CA        -69.4220  -17.2900   14.3280 C.3       4 GLP5        0.0000 
     44 CA        -70.8295  -14.5905   16.2165 C.3       2 GLC5        0.0000 
     45 CA        -70.5860  -13.2910   15.1300 C.3       4 GLP5        0.0000 
     46 CA        -67.4015  -15.1210   19.3445 C.3       2 GLC5        0.0000 
     47 CA        -67.3880  -15.8560   21.0330 C.3       6 GLL5        0.0000 
     48 CA        -67.3190  -15.1990   17.4790 C.3       4 GLP5        0.0000 
     49 CA        -68.4385  -16.4155   23.1871 C.3       2 GLC5        0.0000 
     50 CA        -67.3280  -14.7380   21.7320 C.3       6 GLL5        0.0000 
     51 CA        -69.2240  -17.7100   24.2440 C.3       4 GLP5        0.0000 
     52 CA        -69.3020  -14.2218   23.1717 C.3       2 GLC5        0.0000 
     53 CA        -70.8400  -13.8560   24.2110 C.3       4 GLP5        0.0000 
     54 CA        -62.9120  -14.7082   20.7862 C.3       2 GLC5        0.0000 
     55 CA        -61.5530  -14.1920   19.5520 C.3       4 GLP5        0.0000 
     56 CA        -63.1492  -13.1325   24.3925 C.3       2 GLC5        0.0000 
     57 CA        -63.2700  -13.8160   22.6560 C.3       6 GLL5        0.0000 
     58 CA        -62.5370  -12.9360   26.0370 C.3       4 GLP5        0.0000 
     59 CA        -62.3372  -11.9490   21.9610 C.3       2 GLC5        0.0000 
     60 CA        -60.9130  -10.5690   21.1740 C.3       4 GLP5        0.0000 
     61 CA        -62.6573  -13.7605   21.1500 C.3       2 GLC5        0.0000 
     62 CA        -73.8440  -14.2225   21.0057 C.3       2 GLC5        0.0000 
     63 CA        -72.2880  -13.1950   20.1250 C.3       6 GLL5        0.0000 
     64 CA        -75.1840  -15.7580   21.3750 C.3       4 GLP5        0.0000 
     65 CA        -74.7830  -13.7183   17.8278 C.3       2 GLC5        0.0000 
     66 CA        -73.0460  -13.3580   18.9720 C.3       6 GLL5        0.0000 
     67 CA        -76.7300  -13.6230   17.1620 C.3       4 GLP5        0.0000 
     68 CA        -74.0100  -14.7858   19.9342 C.3       2 GLC5        0.0000 
     69 CA        -69.1500  -15.1729   18.0230 C.3       2 GLC5        0.0000 
     70 CA        -71.4570  -15.0070   18.2250 C.3       6 GLL5        0.0000 
     71 CA        -71.8635  -16.7289   18.3405 C.3       2 GLC5        0.0000 
     72 CA        -70.6970  -14.8450   19.3700 C.3       6 GLL5        0.0000 
     73 CA        -72.7460  -18.3110   18.1140 C.3       4 GLP5        0.0000 
@<TRIPOS>BOND
@<TRIPOS>SUBSTRUCTURE
     1 SEC2       10 GROUP        1 X    SEC  0     ROOT SEC X 2
     2 GLC5        1 GROUP        1 X    GLC  0     **** GLC X 6
     3 SEP2       12 GROUP        1 Y    SEP  0     ROOT SEP Y 9
     4 GLP5        3 GROUP        1 Y    GLP  0     **** GLP Y 13
     5 SEL2       11 GROUP        1 Z    SEL  0     ROOT SEL Z 16
     6 GLL5        2 GROUP        1 Z    GLL  0     **** GLL Z 20
@<TRIPOS>SET

