#    Name: 4bfu_ZVU_2_ligand
#    Modification time : Tue Mar 25 07:38:28 2014

@<TRIPOS>MOLECULE
4bfu_ZVU_2_ligand
   48    50     1     0     0
SMALL
NO_CHARGES


@<TRIPOS>ATOM
      1 FAE       -67.8320  -13.7220   21.0420 F         1 ZVU501      0.0000 
      2 CBD       -67.3280  -14.7380   21.7320 C.3       1 ZVU501      0.0000 
      3 FAF       -67.3880  -15.8560   21.0330 F         1 ZVU501      0.0000 
      4 FAG       -67.9480  -14.9450   22.8780 F         1 ZVU501      0.0000 
      5 CAY       -65.9150  -14.3960   22.0540 C.ar      1 ZVU501      0.0000 
      6 CAK       -64.9350  -15.3690   21.8700 C.ar      1 ZVU501      0.0000 
      7 CAI       -63.6070  -15.0800   22.1710 C.ar      1 ZVU501      0.0000 
      8 CAH       -63.2700  -13.8160   22.6560 C.ar      1 ZVU501      0.0000 
      9 CAJ       -64.2530  -12.8420   22.8400 C.ar      1 ZVU501      0.0000 
     10 CAX       -65.5830  -13.1320   22.5410 C.ar      1 ZVU501      0.0000 
     11 CAU       -66.5800  -12.0350   22.7710 C.2       1 ZVU501      0.0000 
     12 OAC       -67.2090  -12.1020   23.8170 O.2       1 ZVU501      0.0000 
     13 NAS       -66.6760  -11.0680   21.8340 N.am      1 ZVU501      0.0000 
     14 CBB       -67.5330   -9.8850   21.8650 C.3       1 ZVU501      0.0000 
     15 CAA       -66.7740   -8.6330   21.4020 C.3       1 ZVU501      0.0000 
     16 CBA       -68.7190  -10.0810   21.0060 C.2       1 ZVU501      0.0000 
     17 NBC       -69.9640  -10.2180   21.4620 N.pl3     1 ZVU501      0.0000 
     18 CAB       -70.3770  -10.1850   22.8910 C.3       1 ZVU501      0.0000 
     19 NAR       -68.7370  -10.1500   19.6500 N.2       1 ZVU501      0.0000 
     20 NAQ       -70.0610  -10.3450   19.2170 N.2       1 ZVU501      0.0000 
     21 CAZ       -70.7200  -10.3710   20.3700 C.2       1 ZVU501      0.0000 
     22 SAT       -72.4470  -10.5910   20.3950 S.3       1 ZVU501      0.0000 
     23 CAP       -72.7200  -12.1790   21.1480 C.3       1 ZVU501      0.0000 
     24 CAW       -72.2880  -13.1950   20.1250 C.ar      1 ZVU501      0.0000 
     25 CAN       -71.1180  -13.9270   20.3240 C.ar      1 ZVU501      0.0000 
     26 CAO       -73.0460  -13.3580   18.9720 C.ar      1 ZVU501      0.0000 
     27 CAM       -72.6260  -14.2690   18.0150 C.ar      1 ZVU501      0.0000 
     28 CAV       -71.4570  -15.0070   18.2250 C.ar      1 ZVU501      0.0000 
     29 FAD       -71.0730  -15.8900   17.3030 F         1 ZVU501      0.0000 
     30 CAL       -70.6970  -14.8450   19.3700 C.ar      1 ZVU501      0.0000 
     31 H         -65.1921  -16.2965   21.5133 H         1 ZVU501      0.0000 
     32 H         -62.8807  -15.7899   22.0377 H         1 ZVU501      0.0000 
     33 H         -62.2881  -13.5993   22.8802 H         1 ZVU501      0.0000 
     34 H         -63.9957  -11.9142   23.1949 H         1 ZVU501      0.0000 
     35 H         -66.0685  -11.1391   20.9470 H         1 ZVU501      0.0000 
     36 H         -67.8680   -9.6982   22.8863 H         1 ZVU501      0.0000 
     37 H         -73.7519  -12.1769   21.3375 H         1 ZVU501      0.0000 
     38 H         -72.1087  -12.1453   22.0000 H         1 ZVU501      0.0000 
     39 H         -70.5661  -13.7851   21.1812 H         1 ZVU501      0.0000 
     40 H         -73.9000  -12.8140   18.8327 H         1 ZVU501      0.0000 
     41 H         -73.1672  -14.4051   17.1540 H         1 ZVU501      0.0000 
     42 H         -69.8449  -15.3872   19.5130 H         1 ZVU501      0.0000 
     43 H         -65.9841   -8.4410   21.9843 H         1 ZVU501      0.0000 
     44 H         -66.4323   -8.7303   20.4672 H         1 ZVU501      0.0000 
     45 H         -67.3549   -7.8192   21.4185 H         1 ZVU501      0.0000 
     46 H         -69.9332  -10.9064   23.4226 H         1 ZVU501      0.0000 
     47 H         -70.1433   -9.3150   23.3251 H         1 ZVU501      0.0000 
     48 H         -71.3638  -10.3089   22.9953 H         1 ZVU501      0.0000 
@<TRIPOS>BOND
     1    2    1 1    
     2    3    2 1    
     3    4    2 1    
     4    5    2 1    
     5    6    5 ar   
     6   10    5 ar   
     7    7    6 ar   
     8   31    6 1    
     9    8    7 ar   
    10   32    7 1    
    11    9    8 ar   
    12   33    8 1    
    13   10    9 ar   
    14   34    9 1    
    15   11   10 1    
    16   12   11 2    
    17   13   11 am   
    18   14   13 1    
    19   35   13 1    
    20   15   14 1    
    21   16   14 1    
    22   36   14 1    
    23   43   15 1    
    24   44   15 1    
    25   45   15 1    
    26   17   16 1    
    27   19   16 2    
    28   18   17 1    
    29   21   17 1    
    30   46   18 1    
    31   47   18 1    
    32   48   18 1    
    33   20   19 1    
    34   21   20 2    
    35   22   21 1    
    36   23   22 1    
    37   24   23 1    
    38   37   23 1    
    39   38   23 1    
    40   25   24 ar   
    41   26   24 ar   
    42   30   25 ar   
    43   39   25 1    
    44   27   26 ar   
    45   40   26 1    
    46   28   27 ar   
    47   41   27 1    
    48   29   28 1    
    49   30   28 ar   
    50   42   30 1    
@<TRIPOS>SUBSTRUCTURE
     1 ZVU501      1 GROUP   
@<TRIPOS>SET

