#    Name: 1r3t_CP3_1_INTS_M
#    Modification time : Tue Mar 25 00:19:30 2014

@<TRIPOS>MOLECULE
1r3t_CP3_1_INTS_M
   75     0     9     0     0
SMALL
NO_CHARGES


@<TRIPOS>ATOM
      1 CA         12.4910   78.7810   66.1005 C.3       3 GLC5        0.0000 
      2 CA         13.4950   77.4570   65.0240 C.3       9 GLL5        0.0000 
      3 CA         11.4870   80.1050   67.1770 C.3       6 GLP5        0.0000 
      4 CA         12.4920   75.3120   65.8370 C.3       3 GLC5        0.0000 
      5 CA         11.9680   75.8060   63.7990 C.3       9 GLL5        0.0000 
      6 CA         13.0160   74.8180   67.8750 C.3       6 GLP5        0.0000 
      7 CA          7.9195   77.1680   64.4320 C.3       3 GLC5        0.0000 
      8 CA          9.5000   76.0730   63.2700 C.3       9 GLL5        0.0000 
      9 CA          6.3390   78.2630   65.5940 C.3       6 GLP5        0.0000 
     10 CA          6.9905   71.8620   62.2925 C.3       3 GLC5        0.0000 
     11 CA          7.1000   73.6440   61.8580 C.3       9 GLL5        0.0000 
     12 CA          6.8810   70.0800   62.7270 C.3       6 GLP5        0.0000 
     13 CA          5.5675   74.2055   63.3455 C.3       3 GLC5        0.0000 
     14 CA          4.0350   74.7670   64.8330 C.3       6 GLP5        0.0000 
     15 CA          6.2395   73.4635   56.7745 C.3       3 GLC5        0.0000 
     16 CA          6.9860   73.1650   58.7210 C.3       9 GLL5        0.0000 
     17 CA          5.4930   73.7620   54.8280 C.3       6 GLP5        0.0000 
     18 CA          8.1240   69.8075   57.3740 C.3       3 GLC5        0.0000 
     19 CA          9.1830   70.9630   57.9870 C.3       9 GLL5        0.0000 
     20 CA          7.0650   68.6520   56.7610 C.3       6 GLP5        0.0000 
     21 CA          8.9075   69.1575   59.0050 C.3       3 GLC5        0.0000 
     22 CA          8.6320   67.3520   60.0230 C.3       6 GLP5        0.0000 
     23 CA         12.2785   72.4030   57.4505 C.3       3 GLC5        0.0000 
     24 CA         10.3540   71.7400   57.3740 C.3       9 GLL5        0.0000 
     25 CA         14.2030   73.0660   57.5270 C.3       6 GLP5        0.0000 
     26 N           8.9265   75.2440   56.6535 N.am      1 SEC2        0.0000 
     27 N          10.0930   74.1190   57.2010 N.am      7 SEL2        0.0000 
     28 N           7.7600   76.3690   56.1060 N.am      4 SEP2        0.0000 
     29 NZ          7.9545   73.7025   55.4675 N.4       2 LYC4        0.0000 
     30 NZ          9.2820   72.8930   55.5660 N.4       8 LYL4        0.0000 
     31 NZ          6.6500   75.8280   55.6160 N.4       5 LYP4        0.0000 
     32 N           8.8990   71.9375   54.4630 N.am      1 SEC2        0.0000 
     33 N           9.2820   72.8930   55.5660 N.am      7 SEL2        0.0000 
     34 N           8.5160   70.9820   53.3600 N.am      4 SEP2        0.0000 
     35 N           7.9545   73.7025   55.4675 N.am      1 SEC2        0.0000 
     36 N           6.6270   74.5120   55.3690 N.am      4 SEP2        0.0000 
     37 CA          8.7425   70.0865   61.7280 C.3       3 GLC5        0.0000 
     38 CA         10.6040   70.0930   60.7290 C.3       9 GLL5        0.0000 
     39 CA          9.6180   68.7225   60.3760 C.3       3 GLC5        0.0000 
     40 CA         17.0235   69.0440   62.1990 C.3       3 GLC5        0.0000 
     41 CA         15.3910   70.4480   62.5580 C.3       9 GLL5        0.0000 
     42 CA         18.6560   67.6400   61.8400 C.3       6 GLP5        0.0000 
     43 CA         15.1435   70.0610   64.2250 C.3       3 GLC5        0.0000 
     44 CA         14.8960   69.6740   65.8920 C.3       6 GLP5        0.0000 
     45 CA         17.1935   71.2060   62.7400 C.3       3 GLC5        0.0000 
     46 CA         18.9960   71.9640   62.9220 C.3       6 GLP5        0.0000 
     47 CA         13.7145   68.4900   63.4700 C.3       3 GLC5        0.0000 
     48 CA         13.1830   68.3640   61.6420 C.3       9 GLL5        0.0000 
     49 CA         14.2460   68.6160   65.2980 C.3       6 GLP5        0.0000 
     50 CA         15.8030   67.0855   59.9475 C.3       3 GLC5        0.0000 
     51 CA         14.2230   67.9120   60.5980 C.3       9 GLL5        0.0000 
     52 CA         17.3830   66.2590   59.2970 C.3       6 GLP5        0.0000 
     53 CA         14.5855   67.7125   62.7805 C.3       3 GLC5        0.0000 
     54 CA         14.9480   67.5130   64.9630 C.3       6 GLP5        0.0000 
     55 N          14.0795   67.4850   56.6680 N.am      1 SEC2        0.0000 
     56 N          14.4060   67.8720   58.1720 N.am      7 SEL2        0.0000 
     57 N          13.7530   67.0980   55.1640 N.am      4 SEP2        0.0000 
     58 CA         17.5358   74.9360   63.3985 C.3       3 GLC5        0.0000 
     59 CA         16.2620   75.8220   62.4260 C.3       9 GLL5        0.0000 
     60 CA         19.1140   74.2420   63.6970 C.3       6 GLP5        0.0000 
     61 CA         14.8592   74.2288   65.4273 C.3       3 GLC5        0.0000 
     62 CA         15.6530   75.4380   63.7740 C.3       9 GLL5        0.0000 
     63 CA         14.8160   73.0580   67.1500 C.3       6 GLP5        0.0000 
     64 CA         13.6575   76.4112   66.2700 C.3       3 GLC5        0.0000 
     65 CA         13.1970   76.2420   64.1820 C.3       9 GLL5        0.0000 
     66 CA         13.9690   75.9730   67.9370 C.3       6 GLP5        0.0000 
     67 CA          7.2642   78.0538   63.3215 C.3       3 GLC5        0.0000 
     68 CA          8.8100   76.8870   62.4290 C.3       9 GLL5        0.0000 
     69 CA          5.5910   78.4850   64.3190 C.3       6 GLP5        0.0000 
     70 CA          6.4560   77.4315   62.7973 C.3       3 GLC5        0.0000 
     71 CA          7.8140   76.1190   61.7850 C.3       9 GLL5        0.0000 
     72 CA          9.9872   70.5292   56.0637 C.3       3 GLC5        0.0000 
     73 CA         10.2060   69.7070   54.4470 C.3       6 GLP5        0.0000 
     74 CA         12.7010   66.4130   61.5265 C.3       3 GLC5        0.0000 
     75 CA         11.6990   64.6880   61.9330 C.3       6 GLP5        0.0000 
@<TRIPOS>BOND
@<TRIPOS>SUBSTRUCTURE
     1 SEC2       26 GROUP        1 X    SEC  0     ROOT SEC X 2
     2 LYC4       29 GROUP        1 X    LYC  0     **** LYC X 4
     3 GLC5        1 GROUP        1 X    GLC  0     **** GLC X 6
     4 SEP2       28 GROUP        1 Y    SEP  0     ROOT SEP Y 9
     5 LYP4       31 GROUP        1 Y    LYP  0     **** LYP Y 11
     6 GLP5        3 GROUP        1 Y    GLP  0     **** GLP Y 13
     7 SEL2       27 GROUP        1 Z    SEL  0     ROOT SEL Z 16
     8 LYL4       30 GROUP        1 Z    LYL  0     **** LYL Z 18
     9 GLL5        2 GROUP        1 Z    GLL  0     **** GLL Z 20
@<TRIPOS>SET

