#    Name: 1r3t_CP3_1_ligand
#    Modification time : Tue Mar 25 00:19:30 2014

@<TRIPOS>MOLECULE
1r3t_CP3_1_ligand
   88    92     1     0     0
SMALL
NO_CHARGES


@<TRIPOS>ATOM
      1 O2R        16.0110   78.1380   62.7180 O.co2     1 CP3867      0.0000 
      2 C63        16.8310   77.2050   62.5550 C.2       1 CP3867      0.0000 
      3 O1R        18.0800   77.3600   62.5060 O.co2     1 CP3867      0.0000 
      4 C62        16.2620   75.8220   62.4260 C.3       1 CP3867      0.0000 
      5 C61        15.6530   75.4380   63.7740 C.3       1 CP3867      0.0000 
      6 C18        14.1520   75.3610   63.6350 C.2       1 CP3867      0.0000 
      7 C19        13.5030   74.4080   62.9410 C.2       1 CP3867      0.0000 
      8 N24        12.1470   74.6670   63.0260 N.pl3     1 CP3867      0.0000 
      9 C20        14.2550   73.3120   62.2170 C.3       1 CP3867      0.0000 
     10 C1         13.4970   72.0450   61.9090 C.2       1 CP3867      0.0000 
     11 C17        13.1970   76.2420   64.1820 C.2       1 CP3867      0.0000 
     12 C86        13.4950   77.4570   65.0240 C.3       1 CP3867      0.0000 
     13 C16        11.9680   75.8060   63.7990 C.2       1 CP3867      0.0000 
     14 C15        10.6520   76.4650   64.1770 C.3       1 CP3867      0.0000 
     15 C14         9.5000   76.0730   63.2700 C.2       1 CP3867      0.0000 
     16 N23         8.9490   74.8110   63.1610 N.pl3     1 CP3867      0.0000 
     17 C13         8.8100   76.8870   62.4290 C.2       1 CP3867      0.0000 
     18 C51         9.0650   78.3580   62.2190 C.3       1 CP3867      0.0000 
     19 C52        10.3570   78.5400   61.4260 C.3       1 CP3867      0.0000 
     20 C53        10.4780   79.9710   60.9520 C.2       1 CP3867      0.0000 
     21 O2M        10.0440   80.2550   59.8100 O.co2     1 CP3867      0.0000 
     22 O1M        11.0050   80.8170   61.7170 O.co2     1 CP3867      0.0000 
     23 C12         7.8140   76.1190   61.7850 C.2       1 CP3867      0.0000 
     24 C81         6.8280   76.6370   60.7660 C.3       1 CP3867      0.0000 
     25 C11         7.9230   74.8490   62.2460 C.2       1 CP3867      0.0000 
     26 C10         7.1000   73.6440   61.8580 C.3       1 CP3867      0.0000 
     27 C6          7.9550   72.6880   61.0400 C.2       1 CP3867      0.0000 
     28 N22         8.9340   71.8650   61.5620 N.pl3     1 CP3867      0.0000 
     29 C7          7.9090   72.4730   59.7000 C.2       1 CP3867      0.0000 
     30 C7A         6.9860   73.1650   58.7210 C.3       1 CP3867      0.0000 
     31 C8          8.8820   71.4910   59.3810 C.2       1 CP3867      0.0000 
     32 C41         9.1830   70.9630   57.9870 C.3       1 CP3867      0.0000 
     33 C42        10.3540   71.7400   57.3740 C.3       1 CP3867      0.0000 
     34 C43         9.8720   72.9980   56.6670 C.2       1 CP3867      0.0000 
     35 O28        10.0930   74.1190   57.2010 O.co2     1 CP3867      0.0000 
     36 O18         9.2820   72.8930   55.5660 O.co2     1 CP3867      0.0000 
     37 C9          9.5090   71.1390   60.5430 C.2       1 CP3867      0.0000 
     38 C5         10.6040   70.0930   60.7290 C.3       1 CP3867      0.0000 
     39 C4         11.9170   70.6170   61.2510 C.2       1 CP3867      0.0000 
     40 N21        12.2200   71.9510   61.4080 N.pl3     1 CP3867      0.0000 
     41 C3         13.0100   69.8810   61.6370 C.2       1 CP3867      0.0000 
     42 C2         14.0070   70.7970   62.0450 C.2       1 CP3867      0.0000 
     43 C2A        15.3910   70.4480   62.5580 C.3       1 CP3867      0.0000 
     44 C31        13.1830   68.3640   61.6420 C.3       1 CP3867      0.0000 
     45 C32        14.2230   67.9120   60.5980 C.3       1 CP3867      0.0000 
     46 C33        13.6700   68.0330   59.1790 C.2       1 CP3867      0.0000 
     47 O13        14.4060   67.8720   58.1720 O.co2     1 CP3867      0.0000 
     48 O23        12.4470   68.2830   59.0680 O.co2     1 CP3867      0.0000 
     49 H          17.0430   75.1193   62.1783 H         1 CP3867      0.0000 
     50 H          15.4897   75.8056   61.6721 H         1 CP3867      0.0000 
     51 H          15.9169   76.1888   64.5095 H         1 CP3867      0.0000 
     52 H          16.0447   74.4747   64.0790 H         1 CP3867      0.0000 
     53 H          11.4538   74.1544   62.6247 H         1 CP3867      0.0000 
     54 H          15.1651   73.0499   62.8156 H         1 CP3867      0.0000 
     55 H          14.6593   73.7307   61.2597 H         1 CP3867      0.0000 
     56 H          10.7771   77.5592   64.1481 H         1 CP3867      0.0000 
     57 H          10.4008   76.1957   65.2154 H         1 CP3867      0.0000 
     58 H           9.2374   74.0368   63.6459 H         1 CP3867      0.0000 
     59 H           9.1639   78.8559   63.1780 H         1 CP3867      0.0000 
     60 H           8.2432   78.7995   61.6650 H         1 CP3867      0.0000 
     61 H          10.3465   77.8700   60.5696 H         1 CP3867      0.0000 
     62 H          11.2032   78.2919   62.0623 H         1 CP3867      0.0000 
     63 H           6.2468   73.9586   61.2647 H         1 CP3867      0.0000 
     64 H           6.7498   73.1363   62.7516 H         1 CP3867      0.0000 
     65 H           9.1739   71.8097   62.4897 H         1 CP3867      0.0000 
     66 H           8.3083   71.0824   57.3557 H         1 CP3867      0.0000 
     67 H           9.4459   69.9115   58.0448 H         1 CP3867      0.0000 
     68 H          10.8712   71.0976   56.6601 H         1 CP3867      0.0000 
     69 H          11.0520   72.0134   58.1663 H         1 CP3867      0.0000 
     70 H          10.7747   69.5855   59.7551 H         1 CP3867      0.0000 
     71 H          10.2256   69.3062   61.4166 H         1 CP3867      0.0000 
     72 H          11.6429   72.6826   61.2041 H         1 CP3867      0.0000 
     73 H          12.2281   67.8892   61.4165 H         1 CP3867      0.0000 
     74 H          13.5111   68.0395   62.6295 H         1 CP3867      0.0000 
     75 H          14.4928   66.8756   60.7947 H         1 CP3867      0.0000 
     76 H          15.1124   68.5327   60.6945 H         1 CP3867      0.0000 
     77 H          13.9887   77.2175   65.8600 H         1 CP3867      0.0000 
     78 H          14.0574   78.1213   64.5316 H         1 CP3867      0.0000 
     79 H          12.6591   77.9300   65.3025 H         1 CP3867      0.0000 
     80 H           7.2882   77.0150   59.9627 H         1 CP3867      0.0000 
     81 H           6.2163   75.9157   60.4411 H         1 CP3867      0.0000 
     82 H           6.2518   77.3626   61.1422 H         1 CP3867      0.0000 
     83 H           7.1250   74.1553   58.7160 H         1 CP3867      0.0000 
     84 H           7.1296   72.8441   57.7848 H         1 CP3867      0.0000 
     85 H           6.0237   73.0052   58.9413 H         1 CP3867      0.0000 
     86 H          16.1097   70.8461   61.9880 H         1 CP3867      0.0000 
     87 H          15.5370   70.7817   63.4893 H         1 CP3867      0.0000 
     88 H          15.5430   69.4597   62.5736 H         1 CP3867      0.0000 
@<TRIPOS>BOND
     1    2    1 ar   
     2    3    2 ar   
     3    4    2 1    
     4    5    4 1    
     5   49    4 1    
     6   50    4 1    
     7    6    5 1    
     8   51    5 1    
     9   52    5 1    
    10    7    6 2    
    11   11    6 1    
    12    8    7 1    
    13    9    7 1    
    14   13    8 1    
    15   53    8 1    
    16   10    9 1    
    17   54    9 1    
    18   55    9 1    
    19   40   10 1    
    20   42   10 2    
    21   12   11 1    
    22   13   11 2    
    23   77   12 1    
    24   78   12 1    
    25   79   12 1    
    26   14   13 1    
    27   15   14 1    
    28   56   14 1    
    29   57   14 1    
    30   16   15 1    
    31   17   15 2    
    32   25   16 1    
    33   58   16 1    
    34   18   17 1    
    35   23   17 1    
    36   19   18 1    
    37   59   18 1    
    38   60   18 1    
    39   20   19 1    
    40   61   19 1    
    41   62   19 1    
    42   21   20 ar   
    43   22   20 ar   
    44   24   23 1    
    45   25   23 2    
    46   80   24 1    
    47   81   24 1    
    48   82   24 1    
    49   26   25 1    
    50   27   26 1    
    51   63   26 1    
    52   64   26 1    
    53   28   27 1    
    54   29   27 2    
    55   37   28 1    
    56   65   28 1    
    57   30   29 1    
    58   31   29 1    
    59   83   30 1    
    60   84   30 1    
    61   85   30 1    
    62   32   31 1    
    63   37   31 2    
    64   33   32 1    
    65   66   32 1    
    66   67   32 1    
    67   34   33 1    
    68   68   33 1    
    69   69   33 1    
    70   35   34 ar   
    71   36   34 ar   
    72   38   37 1    
    73   39   38 1    
    74   70   38 1    
    75   71   38 1    
    76   40   39 1    
    77   41   39 2    
    78   72   40 1    
    79   42   41 1    
    80   44   41 1    
    81   43   42 1    
    82   86   43 1    
    83   87   43 1    
    84   88   43 1    
    85   45   44 1    
    86   73   44 1    
    87   74   44 1    
    88   46   45 1    
    89   75   45 1    
    90   76   45 1    
    91   47   46 ar   
    92   48   46 ar   
@<TRIPOS>SUBSTRUCTURE
     1 CP3867      1 GROUP   
@<TRIPOS>SET

