#    Name: 2yi5_YI5_1_INTS_M
#    Modification time : Tue Mar 25 09:19:43 2014

@<TRIPOS>MOLECULE
2yi5_YI5_1_INTS_M
   50     0     9     0     0
SMALL
NO_CHARGES


@<TRIPOS>ATOM
      1 N           2.6180   31.3940    5.9230 N.am      2 SEC2        0.0000 
      2 N           2.2330   32.9080    5.9290 N.am      8 SEL2        0.0000 
      3 N           3.0030   29.8800    5.9170 N.am      5 SEP2        0.0000 
      4 CA          2.2350   31.2225    3.6260 C.3       3 GLC5        0.0000 
      5 CA          1.7970   33.3460    3.5880 C.3       9 GLL5        0.0000 
      6 CA          2.6730   29.0990    3.6640 C.3       6 GLP5        0.0000 
      7 CA          2.0155   38.7230    3.1180 C.3       3 GLC5        0.0000 
      8 CA          0.4680   37.3940    3.0910 C.3       9 GLL5        0.0000 
      9 CA          3.5630   40.0520    3.1450 C.3       6 GLP5        0.0000 
     10 CA          2.8885   35.8480    4.6855 C.3       3 GLC5        0.0000 
     11 CA          0.9390   36.2690    3.7470 C.3       9 GLL5        0.0000 
     12 CA          4.8380   35.4270    5.6240 C.3       6 GLP5        0.0000 
     13 CA          3.3210   31.2275    3.8300 C.3       3 GLC5        0.0000 
     14 CA          2.9590   32.8810    2.9690 C.3       9 GLL5        0.0000 
     15 CA          3.6830   29.5740    4.6910 C.3       6 GLP5        0.0000 
     16 CA         -0.2205   31.6720    4.1845 C.3       3 GLC5        0.0000 
     17 CA          0.5870   33.1140    2.9160 C.3       9 GLL5        0.0000 
     18 CA         -1.0280   30.2300    5.4530 C.3       6 GLP5        0.0000 
     19 O           5.1550   32.4210    3.1900 O.2       1 ALC1        0.0000 
     20 O           4.1380   33.0700    3.6080 O.2       7 ALL1        0.0000 
     21 O           6.1720   31.7720    2.7720 O.2       4 ALP1        0.0000 
     22 CA          2.9635   35.0310    6.3870 C.3       3 GLC5        0.0000 
     23 CA          1.0890   34.6350    7.1500 C.3       9 GLL5        0.0000 
     24 CA          2.4690   35.1000    8.4165 C.3       3 GLC5        0.0000 
     25 CA          3.8490   35.5650    9.6830 C.3       6 GLP5        0.0000 
     26 CA          0.4610   34.0460    0.3005 C.3       3 GLC5        0.0000 
     27 CA         -0.9200   32.4330    0.7220 C.3       9 GLL5        0.0000 
     28 CA          1.8420   35.6590   -0.1210 C.3       6 GLP5        0.0000 
     29 CA         -2.8820   31.6955    1.1235 C.3       3 GLC5        0.0000 
     30 CA         -4.8440   30.9580    1.5250 C.3       6 GLP5        0.0000 
     31 CA         -1.6480   31.7115   -0.6350 C.3       3 GLC5        0.0000 
     32 CA         -2.3760   30.9900   -1.9920 C.3       6 GLP5        0.0000 
     33 CA          3.0765   34.8033    5.4158 C.3       3 GLC5        0.0000 
     34 CA          1.7750   33.7170    4.9430 C.3       9 GLL5        0.0000 
     35 CA         -0.0310   33.1602    7.0875 C.3       3 GLC5        0.0000 
     36 CA          0.8550   34.6420    5.4720 C.3       9 GLL5        0.0000 
     37 CA         -1.0340   31.6820    7.8640 C.3       6 GLP5        0.0000 
     38 CA          2.1100   34.3862    1.5787 C.3       3 GLC5        0.0000 
     39 CA          3.6080   34.2702    4.4512 C.3       3 GLC5        0.0000 
     40 CA          1.2728   36.2452    1.6490 C.3       3 GLC5        0.0000 
     41 CA          4.4885   33.8237    1.8205 C.3       3 GLC5        0.0000 
     42 CA          6.0120   34.9630    1.3460 C.3       6 GLP5        0.0000 
     43 CA          2.1080   34.0365    0.5767 C.3       3 GLC5        0.0000 
     44 CA          2.9710   32.4880    1.6210 C.3       9 GLL5        0.0000 
     45 CA          2.5235   30.7565    2.4693 C.3       3 GLC5        0.0000 
     46 CA          1.7770   32.3400    0.9280 C.3       9 GLL5        0.0000 
     47 CA          2.2870   30.5610    0.3642 C.3       3 GLC5        0.0000 
     48 CA          2.2000   28.7080   -0.5460 C.3       6 GLP5        0.0000 
     49 CA          1.2125   34.2705    1.0653 C.3       3 GLC5        0.0000 
     50 CA          0.5790   32.6500    1.5870 C.3       9 GLL5        0.0000 
@<TRIPOS>BOND
@<TRIPOS>SUBSTRUCTURE
     1 ALC1       19 GROUP        1 X    ALC  0     ROOT ALC X 1
     2 SEC2        1 GROUP        1 X    SEC  0     **** SEC X 2
     3 GLC5        4 GROUP        1 X    GLC  0     **** GLC X 6
     4 ALP1       21 GROUP        1 Y    ALP  0     ROOT ALP Y 8
     5 SEP2        3 GROUP        1 Y    SEP  0     **** SEP Y 9
     6 GLP5        6 GROUP        1 Y    GLP  0     **** GLP Y 13
     7 ALL1       20 GROUP        1 Z    ALL  0     ROOT ALL Z 15
     8 SEL2        2 GROUP        1 Z    SEL  0     **** SEL Z 16
     9 GLL5        5 GROUP        1 Z    GLL  0     **** GLL Z 20
@<TRIPOS>SET

