#    Name: 2yi5_YI5_1_ligand
#    Modification time : Tue Mar 25 09:19:43 2014

@<TRIPOS>MOLECULE
2yi5_YI5_1_ligand
   37    39     1     0     0
SMALL
NO_CHARGES


@<TRIPOS>ATOM
      1 N1          2.0290   33.2530    7.1110 N.2       1 YI51226     0.0000 
      2 N2          2.2330   32.9080    5.9290 N.2       1 YI51226     0.0000 
      3 C3          1.7750   33.7170    4.9430 C.2       1 YI51226     0.0000 
      4 C4          0.8550   34.6420    5.4720 C.2       1 YI51226     0.0000 
      5 C6          1.7970   33.3460    3.5880 C.ar      1 YI51226     0.0000 
      6 C7          0.2650   35.7280    4.8310 C.ar      1 YI51226     0.0000 
      7 C12        -0.8150   36.4200    5.3540 C.ar      1 YI51226     0.0000 
      8 C13        -1.3190   37.5410    4.6900 C.ar      1 YI51226     0.0000 
      9 C14        -0.6640   38.0390    3.5610 C.ar      1 YI51226     0.0000 
     10 C15         0.4680   37.3940    3.0910 C.ar      1 YI51226     0.0000 
     11 C16         0.9390   36.2690    3.7470 C.ar      1 YI51226     0.0000 
     12 C21         2.9590   32.8810    2.9690 C.ar      1 YI51226     0.0000 
     13 C22         2.9710   32.4880    1.6210 C.ar      1 YI51226     0.0000 
     14 C23         1.7770   32.3400    0.9280 C.ar      1 YI51226     0.0000 
     15 C24         0.5790   32.6500    1.5870 C.ar      1 YI51226     0.0000 
     16 C25         0.5870   33.1140    2.9160 C.ar      1 YI51226     0.0000 
     17 O29         1.7690   31.8950   -0.3720 O.3       1 YI51226     0.0000 
     18 O30         4.1380   33.0700    3.6080 O.3       1 YI51226     0.0000 
     19 O33        -1.0810   39.1480    2.8910 O.3       1 YI51226     0.0000 
     20 S1          1.0890   34.6350    7.1500 S.3       1 YI51226     0.0000 
     21 C34        -1.6540   40.0970    3.8060 C.3       1 YI51226     0.0000 
     22 CL         -0.9200   32.4330    0.7220 Cl        1 YI51226     0.0000 
     23 CAB        -2.6580   37.8870    6.5900 C.3       1 YI51226     0.0000 
     24 OAN        -2.4350   38.1480    5.1770 O.3       1 YI51226     0.0000 
     25 H          -1.2510   36.1116    6.2340 H         1 YI51226     0.0000 
     26 H           0.9564   37.7489    2.2588 H         1 YI51226     0.0000 
     27 H           1.8181   35.8194    3.4196 H         1 YI51226     0.0000 
     28 H           3.8682   32.3114    1.1531 H         1 YI51226     0.0000 
     29 H          -0.3054   33.2844    3.3985 H         1 YI51226     0.0000 
     30 H          -0.9967   40.3849    4.5025 H         1 YI51226     0.0000 
     31 H          -1.9652   40.9237    3.3372 H         1 YI51226     0.0000 
     32 H          -2.4442   39.7181    4.2876 H         1 YI51226     0.0000 
     33 H          -1.8966   38.2101    7.1520 H         1 YI51226     0.0000 
     34 H          -3.4834   38.3408    6.9258 H         1 YI51226     0.0000 
     35 H          -2.7648   36.9101    6.7749 H         1 YI51226     0.0000 
     36 H           2.7254   31.6917   -0.5817 H         1 YI51226     0.0000 
     37 H           4.8378   32.9168    2.9104 H         1 YI51226     0.0000 
@<TRIPOS>BOND
     1    2    1 2    
     2   20    1 1    
     3    3    2 1    
     4    4    3 2    
     5    5    3 1    
     6    6    4 1    
     7   20    4 1    
     8   12    5 ar   
     9   16    5 ar   
    10    7    6 ar   
    11   11    6 ar   
    12    8    7 ar   
    13   25    7 1    
    14    9    8 ar   
    15   24    8 1    
    16   10    9 ar   
    17   19    9 1    
    18   11   10 ar   
    19   26   10 1    
    20   27   11 1    
    21   13   12 ar   
    22   18   12 1    
    23   14   13 ar   
    24   28   13 1    
    25   15   14 ar   
    26   17   14 1    
    27   16   15 ar   
    28   22   15 1    
    29   29   16 1    
    30   36   17 1    
    31   37   18 1    
    32   21   19 1    
    33   30   21 1    
    34   31   21 1    
    35   32   21 1    
    36   24   23 1    
    37   33   23 1    
    38   34   23 1    
    39   35   23 1    
@<TRIPOS>SUBSTRUCTURE
     1 YI51226     1 GROUP   
@<TRIPOS>SET

