#    Name: 2I8T_1_CAVITY_N1_6.mol2
#    Modification time : Mon Mar 10 18:37:13 2014

@<TRIPOS>MOLECULE
2I8T_1_CAVITY_N1_6.mol2
  158     0     6     0     0
SMALL
NO_CHARGES


@<TRIPOS>ATOM
      1 O          42.2333   63.6273   19.6923 O.2       2 ALA2        0.0000 
      2 CA         46.8727   57.3416   21.7458 C.3       5 GLY6        0.0000 
      3 N          45.6549   58.2160   21.6950 N.2       2 ALA2        0.0000 
      4 CZ         42.0017   60.8392   21.5424 C.ar      4 PHE5        0.0000 
      5 N          40.7840   61.7136   21.4915 N.2       2 ALA2        0.0000 
      6 O          46.1168   66.3783   18.2434 O.2       2 ALA2        0.0000 
      7 DU         46.6100   64.5471   19.1939 H         6 CUB7        0.0000 
      8 O          45.3922   65.4215   19.1430 O.2       2 ALA2        0.0000 
      9 DU         45.8853   63.5903   20.0935 H         6 CUB7        0.0000 
     10 O          44.6676   64.4646   20.0426 O.2       2 ALA2        0.0000 
     11 O          43.4499   65.3390   19.9918 O.2       2 ALA2        0.0000 
     12 CZ         47.5962   60.8846   21.0948 C.ar      4 PHE5        0.0000 
     13 CZ         46.3784   61.7590   21.0440 C.ar      4 PHE5        0.0000 
     14 DU         45.1607   62.6334   20.9931 H         6 CUB7        0.0000 
     15 DU         43.9430   63.5078   20.9423 H         6 CUB7        0.0000 
     16 O          42.7252   64.3822   20.8914 O.2       2 ALA2        0.0000 
     17 N          48.0893   59.0534   22.0453 N.2       2 ALA2        0.0000 
     18 CZ         46.8715   59.9278   21.9945 C.ar      4 PHE5        0.0000 
     19 DU         45.6538   60.8022   21.9436 H         6 CUB7        0.0000 
     20 CZ         44.4361   61.6766   21.8928 C.ar      4 PHE5        0.0000 
     21 CA         43.2183   62.5509   21.8419 C.3       5 GLY6        0.0000 
     22 CA         42.0006   63.4253   21.7911 C.3       5 GLY6        0.0000 
     23 N          40.7829   64.2997   21.7402 N.2       2 ALA2        0.0000 
     24 CA         47.3646   58.0966   22.9450 C.3       5 GLY6        0.0000 
     25 CA         46.1469   58.9709   22.8941 C.3       5 GLY6        0.0000 
     26 CZ         44.9292   59.8453   22.8433 C.ar      4 PHE5        0.0000 
     27 NZ         49.2758   68.1726   17.6941 N.2       3 LYS4        0.0000 
     28 DU         49.7689   66.3413   18.6446 H         6 CUB7        0.0000 
     29 O          48.5512   67.2157   18.5937 O.2       2 ALA2        0.0000 
     30 CZ         49.0443   65.3845   19.5442 C.ar      4 PHE5        0.0000 
     31 O          47.8266   66.2589   19.4934 O.2       2 ALA2        0.0000 
     32 O          46.6088   67.1332   19.4425 O.2       2 ALA2        0.0000 
     33 CZ         47.1019   65.3020   20.3930 C.ar      4 PHE5        0.0000 
     34 O          45.8842   66.1764   20.3422 O.2       2 ALA2        0.0000 
     35 N          44.6665   67.0508   20.2913 N.2       2 ALA2        0.0000 
     36 CZ         47.5950   63.4708   21.3435 C.ar      4 PHE5        0.0000 
     37 DU         46.3773   64.3452   21.2927 H         6 CUB7        0.0000 
     38 DU         45.1596   65.2196   21.2418 H         6 CUB7        0.0000 
     39 O          43.9418   66.0939   21.1910 O.2       2 ALA2        0.0000 
     40 O          42.7241   66.9683   21.1401 O.2       2 ALA2        0.0000 
     41 CZ         48.0881   61.6396   22.2940 C.ar      4 PHE5        0.0000 
     42 CZ         46.8704   62.5139   22.2432 C.ar      4 PHE5        0.0000 
     43 CZ         45.6527   63.3883   22.1923 C.ar      4 PHE5        0.0000 
     44 DU         44.4350   64.2627   22.1415 H         6 CUB7        0.0000 
     45 DU         43.2172   65.1371   22.0906 H         6 CUB7        0.0000 
     46 N          41.9995   66.0115   22.0398 N.2       2 ALA2        0.0000 
     47 N          48.5812   59.8083   23.2445 N.2       2 ALA2        0.0000 
     48 CZ         47.3635   60.6827   23.1937 C.ar      4 PHE5        0.0000 
     49 CZ         46.1458   61.5571   23.1428 C.ar      4 PHE5        0.0000 
     50 CZ         44.9281   62.4315   23.0920 C.ar      4 PHE5        0.0000 
     51 CA         43.7103   63.3059   23.0411 C.3       5 GLY6        0.0000 
     52 CA         42.4926   64.1802   22.9903 C.3       5 GLY6        0.0000 
     53 CA         47.8566   58.8515   24.1442 C.3       5 GLY6        0.0000 
     54 CZ         46.6389   59.7259   24.0933 C.ar      4 PHE5        0.0000 
     55 O          50.9855   68.0531   18.9441 O.2       2 ALA2        0.0000 
     56 CA         49.7678   68.9275   18.8933 C.3       5 GLY6        0.0000 
     57 O          48.5501   69.8019   18.8424 O.2       2 ALA2        0.0000 
     58 CZ         51.4786   66.2219   19.8946 C.ar      4 PHE5        0.0000 
     59 DU         50.2609   67.0962   19.8438 H         6 CUB7        0.0000 
     60 O          49.0432   67.9706   19.7929 O.2       2 ALA2        0.0000 
     61 O          47.8254   68.8450   19.7421 O.2       2 ALA2        0.0000 
     62 CZ         49.5363   66.1394   20.7434 C.ar      4 PHE5        0.0000 
     63 DU         48.3185   67.0138   20.6926 H         6 CUB7        0.0000 
     64 O          47.1008   67.8882   20.6417 O.2       2 ALA2        0.0000 
     65 N          45.8831   68.7625   20.5909 N.2       2 ALA2        0.0000 
     66 CZ         48.8117   65.1825   21.6431 C.ar      4 PHE5        0.0000 
     67 DU         47.5939   66.0569   21.5922 H         6 CUB7        0.0000 
     68 N          45.1585   67.8057   21.4905 N.2       2 ALA2        0.0000 
     69 N          43.9407   68.6801   21.4397 N.2       2 ALA2        0.0000 
     70 O          42.7230   69.5545   21.3888 O.2       2 ALA2        0.0000 
     71 CZ         48.0870   64.2257   22.5427 C.ar      4 PHE5        0.0000 
     72 DU         46.8693   65.1001   22.4919 H         6 CUB7        0.0000 
     73 DU         45.6516   65.9745   22.4410 H         6 CUB7        0.0000 
     74 DU         44.4338   66.8489   22.3902 H         6 CUB7        0.0000 
     75 O          43.2161   67.7232   22.3393 O.2       2 ALA2        0.0000 
     76 N          49.7979   61.5201   23.5441 N.2       2 ALA2        0.0000 
     77 CZ         48.5801   62.3945   23.4932 C.ar      4 PHE5        0.0000 
     78 CZ         47.3624   63.2689   23.4424 C.ar      4 PHE5        0.0000 
     79 CZ         46.1447   64.1432   23.3915 C.ar      4 PHE5        0.0000 
     80 CZ         44.9269   65.0176   23.3407 C.ar      4 PHE5        0.0000 
     81 DU         43.7092   65.8920   23.2898 H         6 CUB7        0.0000 
     82 N          42.4915   66.7664   23.2390 N.2       2 ALA2        0.0000 
     83 N          49.0732   60.5632   24.4437 N.2       2 ALA2        0.0000 
     84 CZ         47.8555   61.4376   24.3929 C.ar      4 PHE5        0.0000 
     85 CZ         44.2023   64.0608   24.2403 C.ar      4 PHE5        0.0000 
     86 CA         42.9846   64.9352   24.1895 C.3       5 GLY6        0.0000 
     87 N          41.7669   65.8095   24.1386 N.2       2 ALA2        0.0000 
     88 N          41.0422   64.8527   25.0383 N.2       2 ALA2        0.0000 
     89 O          50.2598   69.6824   20.0925 O.2       2 ALA2        0.0000 
     90 CA         49.0421   70.5568   20.0416 C.3       5 GLY6        0.0000 
     91 O          51.9706   66.9768   21.0938 O.2       2 ALA2        0.0000 
     92 O          50.7529   67.8512   21.0430 O.2       2 ALA2        0.0000 
     93 O          49.5352   68.7255   20.9921 O.2       2 ALA2        0.0000 
     94 CA         48.3174   69.5999   20.9413 C.3       5 GLY6        0.0000 
     95 NZ         47.0997   70.4743   20.8904 N.2       3 LYS4        0.0000 
     96 O          51.2460   66.0199   21.9935 O.2       2 ALA2        0.0000 
     97 O          50.0283   66.8943   21.9426 O.2       2 ALA2        0.0000 
     98 DU         48.8105   67.7687   21.8918 H         6 CUB7        0.0000 
     99 DU         47.5928   68.6431   21.8409 H         6 CUB7        0.0000 
    100 CA         46.3751   69.5175   21.7901 C.3       5 GLY6        0.0000 
    101 N          45.1573   70.3918   21.7392 N.2       2 ALA2        0.0000 
    102 CZ         49.3036   65.9375   22.8423 C.ar      4 PHE5        0.0000 
    103 DU         48.0859   66.8118   22.7914 H         6 CUB7        0.0000 
    104 DU         46.8682   67.6862   22.7406 H         6 CUB7        0.0000 
    105 DU         45.6504   68.5606   22.6897 H         6 CUB7        0.0000 
    106 N          44.4327   69.4350   22.6389 N.2       2 ALA2        0.0000 
    107 O          43.2150   70.3094   22.5880 O.2       2 ALA2        0.0000 
    108 CZ         49.7967   64.1062   23.7928 C.ar      4 PHE5        0.0000 
    109 O          48.5790   64.9806   23.7419 O.2       2 ALA2        0.0000 
    110 DU         47.3613   65.8550   23.6911 H         6 CUB7        0.0000 
    111 DU         46.1436   66.7294   23.6402 H         6 CUB7        0.0000 
    112 DU         44.9258   67.6038   23.5894 H         6 CUB7        0.0000 
    113 OG         43.7081   68.4782   23.5385 O.2       1 SER1        0.0000 
    114 O          42.4904   69.3525   23.4877 O.2       2 ALA2        0.0000 
    115 O          50.2898   62.2750   24.7433 O.2       2 ALA2        0.0000 
    116 CZ         49.0721   63.1494   24.6924 C.ar      4 PHE5        0.0000 
    117 CZ         47.8544   64.0238   24.6416 C.ar      4 PHE5        0.0000 
    118 CZ         46.6367   64.8982   24.5907 C.ar      4 PHE5        0.0000 
    119 CZ         45.4189   65.7725   24.5399 C.ar      4 PHE5        0.0000 
    120 OG         44.2012   66.6469   24.4890 O.2       1 SER1        0.0000 
    121 OG         42.9835   67.5213   24.4382 O.2       1 SER1        0.0000 
    122 CZ         43.4766   65.6901   25.3887 C.ar      4 PHE5        0.0000 
    123 OG         42.2588   66.5645   25.3378 O.2       1 SER1        0.0000 
    124 CZ         42.7519   64.7332   26.2883 C.ar      4 PHE5        0.0000 
    125 CA         41.5342   65.6076   26.2374 C.3       5 GLY6        0.0000 
    126 O          50.0271   69.4805   22.1913 O.2       2 ALA2        0.0000 
    127 CA         48.8094   70.3548   22.1405 C.3       5 GLY6        0.0000 
    128 O          50.5202   67.6492   23.1418 O.2       2 ALA2        0.0000 
    129 N          49.3025   68.5236   23.0910 N.2       2 ALA2        0.0000 
    130 O          48.0848   69.3980   23.0401 O.2       2 ALA2        0.0000 
    131 O          51.0134   65.8180   24.0923 O.2       2 ALA2        0.0000 
    132 CA         49.7956   66.6924   24.0415 C.3       5 GLY6        0.0000 
    133 CA         48.5779   67.5668   23.9906 C.3       5 GLY6        0.0000 
    134 O          47.3602   68.4411   23.9398 O.2       2 ALA2        0.0000 
    135 O          46.1424   69.3155   23.8889 O.2       2 ALA2        0.0000 
    136 CA         44.9247   70.1899   23.8380 C.3       5 GLY6        0.0000 
    137 N          43.7070   71.0643   23.7872 N.2       2 ALA2        0.0000 
    138 O          42.4892   71.9387   23.7363 O.2       2 ALA2        0.0000 
    139 O          41.2715   72.8131   23.6855 O.2       2 ALA2        0.0000 
    140 CA         47.8533   66.6099   24.8903 C.3       5 GLY6        0.0000 
    141 CA         46.6355   67.4843   24.8394 C.3       5 GLY6        0.0000 
    142 O          45.4178   68.3587   24.7885 O.2       2 ALA2        0.0000 
    143 OG         44.2001   69.2331   24.7377 O.2       1 SER1        0.0000 
    144 OG         42.9823   70.1075   24.6868 O.2       1 SER1        0.0000 
    145 OG         41.7646   70.9818   24.6360 O.2       1 SER1        0.0000 
    146 O          40.5469   71.8562   24.5851 O.2       2 ALA2        0.0000 
    147 CZ         45.9109   66.5275   25.7390 C.ar      4 PHE5        0.0000 
    148 OG         44.6932   67.4018   25.6882 O.2       1 SER1        0.0000 
    149 OG         43.9686   66.4450   26.5878 O.2       1 SER1        0.0000 
    150 N          43.7059   73.6504   24.0359 N.2       2 ALA2        0.0000 
    151 CA         45.4167   70.9448   25.0372 C.3       5 GLY6        0.0000 
    152 CA         44.1990   71.8192   24.9864 C.3       5 GLY6        0.0000 
    153 NZ         42.9812   72.6936   24.9355 N.2       3 LYS4        0.0000 
    154 NZ         41.7635   73.5680   24.8847 N.2       3 LYS4        0.0000 
    155 CA         45.9098   69.1136   25.9877 C.3       5 GLY6        0.0000 
    156 CZ         42.2566   71.7368   25.8352 C.ar      4 PHE5        0.0000 
    157 CZ         41.0389   72.6111   25.7843 C.ar      4 PHE5        0.0000 
    158 NZ         43.4732   73.4485   26.1347 N.2       3 LYS4        0.0000 
@<TRIPOS>BOND
@<TRIPOS>SUBSTRUCTURE
     1 SER1      113 GROUP   
     2 ALA2        1 GROUP   
     3 LYS4       27 GROUP   
     4 PHE5        4 GROUP   
     5 GLY6        2 GROUP   
     6 CUB7        7 GROUP   
@<TRIPOS>SET

