#    Name: 2i8t_GDD_1_INTS_M
#    Modification time : Tue Mar 25 17:33:10 2014

@<TRIPOS>MOLECULE
2i8t_GDD_1_INTS_M
   77     0    12     0     0
SMALL
NO_CHARGES


@<TRIPOS>ATOM
      1 O          49.7025   59.2865   23.4790 O.2       1 ALC1        0.0000 
      2 O          48.3670   59.5990   22.9590 O.2       9 ALL1        0.0000 
      3 O          51.0380   58.9740   23.9990 O.2       5 ALP1        0.0000 
      4 O          50.2695   60.1065   24.0670 O.2       1 ALC1        0.0000 
      5 O          49.5010   61.2390   24.1350 O.2       9 ALL1        0.0000 
      6 N          51.7980   61.8540   25.1230 N.am      2 SEC2        0.0000 
      7 N          50.7080   62.7500   25.3250 N.am     10 SEL2        0.0000 
      8 N          52.8880   60.9580   24.9210 N.am      6 SEP2        0.0000 
      9 N          50.9315   63.5860   26.4215 N.am      2 SEC2        0.0000 
     10 N          51.1550   64.4220   27.5180 N.am      6 SEP2        0.0000 
     11 N          49.0020   65.3370   25.7810 N.am      2 SEC2        0.0000 
     12 N          48.6100   64.8510   24.4130 N.am     10 SEL2        0.0000 
     13 N          49.3940   65.8230   27.1490 N.am      6 SEP2        0.0000 
     14 O          42.4610   65.1950   19.4230 O.2       1 ALC1        0.0000 
     15 O          43.3370   64.5130   20.5680 O.2       9 ALL1        0.0000 
     16 O          41.5850   65.8770   18.2780 O.2       5 ALP1        0.0000 
     17 CA         44.8355   67.8430   18.7280 C.3       4 GLC5        0.0000 
     18 CA         45.8230   67.1720   20.6300 C.3      12 GLL5        0.0000 
     19 CA         43.8480   68.5140   16.8260 C.3       8 GLP5        0.0000 
     20 N          47.7760   69.9425   24.3790 N.am      2 SEC2        0.0000 
     21 N          47.4010   68.9170   23.4460 N.am     10 SEL2        0.0000 
     22 N          48.1510   70.9680   25.3120 N.am      6 SEP2        0.0000 
     23 NZ         41.7715   70.6895   21.7700 N.4       3 LYC4        0.0000 
     24 NZ         43.2170   70.3020   22.0880 N.4      11 LYL4        0.0000 
     25 NZ         39.3330   70.2920   21.8430 N.4       7 LYP4        0.0000 
     26 N          41.7715   70.6895   21.7700 N.am      2 SEC2        0.0000 
     27 N          43.2170   70.3020   22.0880 N.am     10 SEL2        0.0000 
     28 N          40.3260   71.0770   21.4520 N.am      6 SEP2        0.0000 
     29 N          42.3235   68.6340   25.3975 N.am      2 SEC2        0.0000 
     30 N          42.7380   68.5100   24.1050 N.am     10 SEL2        0.0000 
     31 N          41.9090   68.7580   26.6900 N.am      6 SEP2        0.0000 
     32 CA         38.4630   71.7670   23.1520 C.3       4 GLC5        0.0000 
     33 CA         39.2990   71.5750   25.1210 C.3      12 GLL5        0.0000 
     34 CA         37.6270   71.9590   21.1830 C.3       8 GLP5        0.0000 
     35 CA         38.8150   69.6825   25.9325 C.3       4 GLC5        0.0000 
     36 CA         38.3310   67.7900   26.7440 C.3       8 GLP5        0.0000 
     37 CA         37.2910   71.4275   24.7020 C.3       4 GLC5        0.0000 
     38 CA         35.2830   71.2800   24.2830 C.3       8 GLP5        0.0000 
     39 CA         38.6840   73.6060   25.3530 C.3       4 GLC5        0.0000 
     40 CA         38.0690   75.6370   25.5850 C.3       8 GLP5        0.0000 
     41 CA         38.1215   71.8030   26.6720 C.3       4 GLC5        0.0000 
     42 CA         36.9440   72.0310   28.2230 C.3       8 GLP5        0.0000 
     43 CA         40.2340   70.7110   26.8875 C.3       4 GLC5        0.0000 
     44 CA         41.1690   69.8470   28.6540 C.3       8 GLP5        0.0000 
     45 CA         44.3635   74.4450   23.6100 C.3       4 GLC5        0.0000 
     46 CA         43.2150   73.3420   24.9240 C.3      12 GLL5        0.0000 
     47 CA         45.5120   75.5480   22.2960 C.3       8 GLP5        0.0000 
     48 O          43.1640   75.5470   24.8595 O.2       1 ALC1        0.0000 
     49 O          42.8490   74.5420   24.2290 O.2       9 ALL1        0.0000 
     50 O          43.4790   76.5520   25.4900 O.2       5 ALP1        0.0000 
     51 N          44.1160   74.1835   27.9775 N.am      2 SEC2        0.0000 
     52 N          42.9770   74.3530   27.1150 N.am     10 SEL2        0.0000 
     53 N          45.2550   74.0140   28.8400 N.am      6 SEP2        0.0000 
     54 O          43.2280   75.4525   26.3025 O.2       1 ALC1        0.0000 
     55 O          42.9770   74.3530   27.1150 O.2       9 ALL1        0.0000 
     56 N          40.1375   74.1950   28.1925 N.am      2 SEC2        0.0000 
     57 N          40.2940   73.1380   27.3330 N.am     10 SEL2        0.0000 
     58 N          39.9810   75.2520   29.0520 N.am      6 SEP2        0.0000 
     59 N          38.8260   73.1800   27.5005 N.am      2 SEC2        0.0000 
     60 N          37.3580   73.2220   27.6680 N.am      6 SEP2        0.0000 
     61 CA         45.2670   63.6390   24.2435 C.3       4 GLC5        0.0000 
     62 CA         44.5320   64.9670   22.6470 C.3      12 GLL5        0.0000 
     63 CA         45.3890   62.7070   26.0490 C.3       8 GLP5        0.0000 
     64 CA         45.0307   72.5708   24.0838 C.3       4 GLC5        0.0000 
     65 CA         42.8080   72.1770   24.0270 C.3      12 GLL5        0.0000 
     66 CA         47.0500   72.3820   23.6920 C.3       8 GLP5        0.0000 
     67 CA         40.0008   74.2385   25.2080 C.3       4 GLC5        0.0000 
     68 CA         40.7810   71.8810   25.3010 C.3      12 GLL5        0.0000 
     69 CA         39.0900   75.9630   24.7120 C.3       8 GLP5        0.0000 
     70 CA         41.5483   71.0395   26.7375 C.3       4 GLC5        0.0000 
     71 CA         41.0420   73.1470   26.1070 C.3      12 GLL5        0.0000 
     72 CA         42.1850   69.5650   27.7710 C.3       8 GLP5        0.0000 
     73 CA         44.5883   73.3562   26.8483 C.3       4 GLC5        0.0000 
     74 CA         42.5520   73.2550   26.2950 C.3      12 GLL5        0.0000 
     75 CA         46.2930   73.4140   28.0870 C.3       8 GLP5        0.0000 
     76 CA         43.1628   71.6968   26.7938 C.3       4 GLC5        0.0000 
     77 CA         43.4420   70.0950   27.9780 C.3       8 GLP5        0.0000 
@<TRIPOS>BOND
@<TRIPOS>SUBSTRUCTURE
     1 ALC1        1 GROUP        1 X    ALC  0     ROOT ALC X 1
     2 SEC2        6 GROUP        1 X    SEC  0     **** SEC X 2
     3 LYC4       23 GROUP        1 X    LYC  0     **** LYC X 4
     4 GLC5       17 GROUP        1 X    GLC  0     **** GLC X 6
     5 ALP1        3 GROUP        1 Y    ALP  0     ROOT ALP Y 8
     6 SEP2        8 GROUP        1 Y    SEP  0     **** SEP Y 9
     7 LYP4       25 GROUP        1 Y    LYP  0     **** LYP Y 11
     8 GLP5       19 GROUP        1 Y    GLP  0     **** GLP Y 13
     9 ALL1        2 GROUP        1 Z    ALL  0     ROOT ALL Z 15
    10 SEL2        7 GROUP        1 Z    SEL  0     **** SEL Z 16
    11 LYL4       24 GROUP        1 Z    LYL  0     **** LYL Z 18
    12 GLL5       18 GROUP        1 Z    GLL  0     **** GLL Z 20
@<TRIPOS>SET

