#    Name: 2i8t_GDD_1_ligand
#    Modification time : Tue Mar 25 17:33:10 2014

@<TRIPOS>MOLECULE
2i8t_GDD_1_ligand
   62    65     1     0     0
SMALL
NO_CHARGES


@<TRIPOS>ATOM
      1 N2         48.3670   59.5990   22.9590 N.pl3     1 GDD820      0.0000 
      2 C2         48.4650   60.8960   23.3410 C.2       1 GDD820      0.0000 
      3 N1         49.5010   61.2390   24.1350 N.am      1 GDD820      0.0000 
      4 N3         47.5450   61.7900   22.9270 N.2       1 GDD820      0.0000 
      5 C4         47.6650   63.0760   23.3280 C.2       1 GDD820      0.0000 
      6 C5         48.7690   63.5310   24.2000 C.2       1 GDD820      0.0000 
      7 C6         49.7300   62.4830   24.6030 C.2       1 GDD820      0.0000 
      8 O6         50.7080   62.7500   25.3250 O.2       1 GDD820      0.0000 
      9 N7         48.6100   64.8510   24.4130 N.2       1 GDD820      0.0000 
     10 C8         47.5030   65.2210   23.7360 C.2       1 GDD820      0.0000 
     11 N9         46.9460   64.1740   23.1100 N.pl3     1 GDD820      0.0000 
     12 C1'        45.7580   64.1750   22.2290 C.3       1 GDD820      0.0000 
     13 C2'        44.5320   64.9670   22.6470 C.3       1 GDD820      0.0000 
     14 O2'        43.6180   64.0540   23.2510 O.3       1 GDD820      0.0000 
     15 C3'        44.0680   65.5020   21.3000 C.3       1 GDD820      0.0000 
     16 O3'        43.3370   64.5130   20.5680 O.3       1 GDD820      0.0000 
     17 C4'        45.3400   65.7350   20.5030 C.3       1 GDD820      0.0000 
     18 O4'        46.2860   64.8370   21.0750 O.3       1 GDD820      0.0000 
     19 C5'        45.8230   67.1720   20.6300 C.3       1 GDD820      0.0000 
     20 O5'        45.9430   67.4680   22.0190 O.3       1 GDD820      0.0000 
     21 PA         46.2100   68.9640   22.5280 P.3       1 GDD820      0.0000 
     22 O1A        47.4010   68.9170   23.4460 O.co2     1 GDD820      0.0000 
     23 O2A        46.2030   69.9420   21.3810 O.co2     1 GDD820      0.0000 
     24 O3A        45.0450   69.3340   23.5750 O.3       1 GDD820      0.0000 
     25 PB         43.4710   69.6380   23.4150 P.3       1 GDD820      0.0000 
     26 O2B        43.2170   70.3020   22.0880 O.co2     1 GDD820      0.0000 
     27 O3B        42.7380   68.5100   24.1050 O.co2     1 GDD820      0.0000 
     28 O1B        43.4070   70.9230   24.4010 O.3       1 GDD820      0.0000 
     29 C11        42.8080   72.1770   24.0270 C.3       1 GDD820      0.0000 
     30 O51        41.3890   72.0120   24.0180 O.3       1 GDD820      0.0000 
     31 C51        40.7810   71.8810   25.3010 C.3       1 GDD820      0.0000 
     32 C61        39.2990   71.5750   25.1210 C.3       1 GDD820      0.0000 
     33 O6A        38.6950   72.5620   24.2770 O.3       1 GDD820      0.0000 
     34 C21        43.2150   73.3420   24.9240 C.3       1 GDD820      0.0000 
     35 O21        42.8490   74.5420   24.2290 O.3       1 GDD820      0.0000 
     36 C31        42.5520   73.2550   26.2950 C.3       1 GDD820      0.0000 
     37 O31        42.9770   74.3530   27.1150 O.3       1 GDD820      0.0000 
     38 C41        41.0420   73.1470   26.1070 C.3       1 GDD820      0.0000 
     39 O41        40.2940   73.1380   27.3330 O.3       1 GDD820      0.0000 
     40 H          47.5659   59.3614   22.4096 H         1 GDD820      0.0000 
     41 H          49.1045   58.9946   23.2604 H         1 GDD820      0.0000 
     42 H          50.1925   60.4657   24.4140 H         1 GDD820      0.0000 
     43 H          47.1534   66.1413   23.7081 H         1 GDD820      0.0000 
     44 H          45.4912   63.1794   21.9587 H         1 GDD820      0.0000 
     45 H          44.8431   65.7553   23.2523 H         1 GDD820      0.0000 
     46 H          43.5657   66.4035   21.4143 H         1 GDD820      0.0000 
     47 H          45.1492   65.5006   19.4833 H         1 GDD820      0.0000 
     48 H          45.0971   67.8170   20.1373 H         1 GDD820      0.0000 
     49 H          46.7772   67.2545   20.1121 H         1 GDD820      0.0000 
     50 H          43.1352   72.4354   22.9997 H         1 GDD820      0.0000 
     51 H          41.2325   71.0430   25.8387 H         1 GDD820      0.0000 
     52 H          38.8356   71.5558   26.1150 H         1 GDD820      0.0000 
     53 H          39.2122   70.5693   24.6919 H         1 GDD820      0.0000 
     54 H          44.2903   73.2935   25.0517 H         1 GDD820      0.0000 
     55 H          42.8924   72.2981   26.7346 H         1 GDD820      0.0000 
     56 H          40.7367   73.9869   25.4678 H         1 GDD820      0.0000 
     57 H          43.0260   63.7491   22.5049 H         1 GDD820      0.0000 
     58 H          42.4517   64.9360   20.3748 H         1 GDD820      0.0000 
     59 H          39.4299   73.2065   24.0658 H         1 GDD820      0.0000 
     60 H          42.6679   75.2126   24.9484 H         1 GDD820      0.0000 
     61 H          43.1838   75.0908   26.4725 H         1 GDD820      0.0000 
     62 H          40.1491   72.1706   27.5406 H         1 GDD820      0.0000 
@<TRIPOS>BOND
     1    2    1 1    
     2   40    1 1    
     3   41    1 1    
     4    3    2 1    
     5    4    2 2    
     6    7    3 am   
     7   42    3 1    
     8    5    4 1    
     9    6    5 2    
    10   11    5 1    
    11    7    6 1    
    12    9    6 1    
    13    8    7 2    
    14   10    9 2    
    15   11   10 1    
    16   43   10 1    
    17   12   11 1    
    18   13   12 1    
    19   18   12 1    
    20   44   12 1    
    21   14   13 1    
    22   15   13 1    
    23   45   13 1    
    24   57   14 1    
    25   16   15 1    
    26   17   15 1    
    27   46   15 1    
    28   58   16 1    
    29   18   17 1    
    30   19   17 1    
    31   47   17 1    
    32   20   19 1    
    33   48   19 1    
    34   49   19 1    
    35   21   20 1    
    36   22   21 ar   
    37   23   21 ar   
    38   24   21 1    
    39   25   24 1    
    40   26   25 ar   
    41   27   25 ar   
    42   28   25 1    
    43   29   28 1    
    44   30   29 1    
    45   34   29 1    
    46   50   29 1    
    47   31   30 1    
    48   32   31 1    
    49   38   31 1    
    50   51   31 1    
    51   33   32 1    
    52   52   32 1    
    53   53   32 1    
    54   59   33 1    
    55   35   34 1    
    56   36   34 1    
    57   54   34 1    
    58   60   35 1    
    59   37   36 1    
    60   38   36 1    
    61   55   36 1    
    62   61   37 1    
    63   39   38 1    
    64   56   38 1    
    65   62   39 1    
@<TRIPOS>SUBSTRUCTURE
     1 GDD820      1 GROUP   
@<TRIPOS>SET

