#    Name: 2hzn_KIN_1_INTS_M
#    Modification time : Tue Mar 25 17:15:04 2014

@<TRIPOS>MOLECULE
2hzn_KIN_1_INTS_M
   90     0     9     0     0
SMALL
NO_CHARGES


@<TRIPOS>ATOM
      1 CA         45.5260   31.7870   43.5990 C.3       3 GLC5        0.0000 
      2 CA         47.5410   30.8440   43.6370 C.3       9 GLL5        0.0000 
      3 CA         43.5110   32.7300   43.5610 C.3       6 GLP5        0.0000 
      4 CA         50.3250   21.9055   40.0500 C.3       3 GLC5        0.0000 
      5 CA         49.8230   22.3920   42.1510 C.3       9 GLL5        0.0000 
      6 CA         50.8270   21.4190   37.9490 C.3       6 GLP5        0.0000 
      7 CA         47.2440   19.4850   42.0525 C.3       3 GLC5        0.0000 
      8 CA         47.9230   21.2530   43.1130 C.3       9 GLL5        0.0000 
      9 CA         46.5650   17.7170   40.9920 C.3       6 GLP5        0.0000 
     10 CA         47.0650   21.0090   45.0365 C.3       3 GLC5        0.0000 
     11 CA         46.2070   20.7650   46.9600 C.3       6 GLP5        0.0000 
     12 CA         49.2330   18.3230   42.6010 C.3       3 GLC5        0.0000 
     13 CA         49.4060   19.5470   40.7520 C.3       9 GLL5        0.0000 
     14 CA         49.0600   17.0990   44.4500 C.3       6 GLP5        0.0000 
     15 CA         47.3440   18.0780   37.6245 C.3       3 GLC5        0.0000 
     16 CA         48.1360   19.5210   38.7130 C.3       9 GLL5        0.0000 
     17 CA         46.5520   16.6350   36.5360 C.3       6 GLP5        0.0000 
     18 CA         48.6585   19.7965   36.7715 C.3       3 GLC5        0.0000 
     19 CA         49.1810   20.0720   34.8300 C.3       6 GLP5        0.0000 
     20 CA         48.5300   33.2340   38.6300 C.3       3 GLC5        0.0000 
     21 CA         47.9040   31.5700   39.5280 C.3       9 GLL5        0.0000 
     22 CA         49.1560   34.8980   37.7320 C.3       6 GLP5        0.0000 
     23 CA         47.9260   33.4405   40.7255 C.3       3 GLC5        0.0000 
     24 CA         47.9480   35.3110   41.9230 C.3       6 GLP5        0.0000 
     25 CA         49.8785   32.0650   39.9200 C.3       3 GLC5        0.0000 
     26 CA         51.8530   32.5600   40.3120 C.3       6 GLP5        0.0000 
     27 CA         50.5385   31.1640   39.9570 C.3       3 GLC5        0.0000 
     28 CA         49.2240   29.7680   39.6020 C.3       9 GLL5        0.0000 
     29 CA         50.5530   30.2205   38.2665 C.3       3 GLC5        0.0000 
     30 CA         51.8820   30.6730   36.9310 C.3       6 GLP5        0.0000 
     31 CA         50.1015   29.3215   41.5665 C.3       3 GLC5        0.0000 
     32 CA         50.9790   28.8750   43.5310 C.3       6 GLP5        0.0000 
     33 CA         47.2590   27.5590   38.9135 C.3       3 GLC5        0.0000 
     34 CA         47.0530   29.5380   39.1390 C.3       9 GLL5        0.0000 
     35 CA         47.4650   25.5800   38.6880 C.3       6 GLP5        0.0000 
     36 CA         47.5150   27.1385   40.2680 C.3       3 GLC5        0.0000 
     37 CA         47.5650   28.6970   41.8480 C.3       9 GLL5        0.0000 
     38 CA         49.1790   27.9590   40.5340 C.3       3 GLC5        0.0000 
     39 CA         50.7930   27.2210   39.2200 C.3       6 GLP5        0.0000 
     40 O          47.4140   27.0285   45.1545 O.2       1 ALC1        0.0000 
     41 O          47.2070   27.1220   43.7380 O.2       7 ALL1        0.0000 
     42 O          47.6210   26.9350   46.5710 O.2       4 ALP1        0.0000 
     43 N          49.7155   26.6785   41.8155 N.am      2 SEC2        0.0000 
     44 N          48.3390   26.1070   41.9950 N.am      8 SEL2        0.0000 
     45 N          51.0920   27.2500   41.6360 N.am      5 SEP2        0.0000 
     46 N          48.8225   17.9200   36.8155 N.am      2 SEC2        0.0000 
     47 N          48.9790   18.6650   38.1290 N.am      8 SEL2        0.0000 
     48 N          48.6660   17.1750   35.5020 N.am      5 SEP2        0.0000 
     49 CA         48.2900   17.4360   37.6885 C.3       3 GLC5        0.0000 
     50 CA         50.0280   18.2370   38.8410 C.3       9 GLL5        0.0000 
     51 CA         50.1095   18.5835   36.8055 C.3       3 GLC5        0.0000 
     52 CA         50.1910   18.9300   34.7700 C.3       6 GLP5        0.0000 
     53 CA         50.2785   16.6095   40.8995 C.3       3 GLC5        0.0000 
     54 CA         50.2880   18.6480   40.1430 C.3       9 GLL5        0.0000 
     55 CA         50.2690   14.5710   41.6560 C.3       6 GLP5        0.0000 
     56 CA         49.3042   29.9203   43.2425 C.3       3 GLC5        0.0000 
     57 CA         47.7180   31.0870   42.2710 C.3       9 GLL5        0.0000 
     58 CA         45.9510   31.3675   40.8918 C.3       3 GLC5        0.0000 
     59 CA         44.1750   32.1850   39.9640 C.3       6 GLP5        0.0000 
     60 CA         47.8475   22.7835   45.3400 C.3       3 GLC5        0.0000 
     61 CA         48.0740   23.6850   43.3000 C.3       9 GLL5        0.0000 
     62 CA         47.9610   22.4820   47.2530 C.3       6 GLP5        0.0000 
     63 CA         50.2370   24.3468   40.8347 C.3       3 GLC5        0.0000 
     64 CA         49.2950   23.6190   42.5980 C.3       9 GLL5        0.0000 
     65 CA         50.9150   25.6880   39.2950 C.3       6 GLP5        0.0000 
     66 CA         49.0678   20.1555   44.3030 C.3       3 GLC5        0.0000 
     67 CA         49.1480   21.1950   42.4230 C.3       9 GLL5        0.0000 
     68 CA         49.6000   19.0870   45.8380 C.3       6 GLP5        0.0000 
     69 CA         45.8568   21.9730   42.3982 C.3       3 GLC5        0.0000 
     70 CA         44.0550   22.0770   41.4630 C.3       6 GLP5        0.0000 
     71 CA         47.3372   21.5630   38.6865 C.3       3 GLC5        0.0000 
     72 CA         48.3030   19.9870   40.0070 C.3       9 GLL5        0.0000 
     73 CA         46.4550   23.3720   38.0130 C.3       6 GLP5        0.0000 
     74 CA         47.5301   18.6805   40.2691 C.3       3 GLC5        0.0000 
     75 CA         49.6611   20.5315   38.7476 C.3       3 GLC5        0.0000 
     76 CA         45.8344   31.2031   39.6945 C.3       3 GLC5        0.0000 
     77 CA         47.8346   30.6426   37.6369 C.3       3 GLC5        0.0000 
     78 CA         47.8530   31.3480   35.8760 C.3       6 GLP5        0.0000 
     79 CA         49.3084   28.4959   39.3317 C.3       3 GLC5        0.0000 
     80 CA         49.3148   29.1150   42.5695 C.3       3 GLC5        0.0000 
     81 CA         47.7360   30.0130   41.3680 C.3       9 GLL5        0.0000 
     82 CA         46.6403   28.7317   45.4043 C.3       3 GLC5        0.0000 
     83 CA         47.3800   28.4350   43.2180 C.3       9 GLL5        0.0000 
     84 CA         45.8950   28.4820   47.1460 C.3       6 GLP5        0.0000 
     85 CA         49.1823   28.9282   43.5968 C.3       3 GLC5        0.0000 
     86 CA         47.3910   29.5280   44.1070 C.3       9 GLL5        0.0000 
     87 CA         45.7909   27.9930   43.1650 C.3       3 GLC5        0.0000 
     88 CA         44.1500   26.9390   43.0100 C.3       6 GLP5        0.0000 
     89 CA         48.3615   18.0797   40.2420 C.3       3 GLC5        0.0000 
     90 CA         50.4925   19.9307   38.7205 C.3       3 GLC5        0.0000 
@<TRIPOS>BOND
@<TRIPOS>SUBSTRUCTURE
     1 ALC1       40 GROUP        1 X    ALC  0     ROOT ALC X 1
     2 SEC2       43 GROUP        1 X    SEC  0     **** SEC X 2
     3 GLC5        1 GROUP        1 X    GLC  0     **** GLC X 6
     4 ALP1       42 GROUP        1 Y    ALP  0     ROOT ALP Y 8
     5 SEP2       45 GROUP        1 Y    SEP  0     **** SEP Y 9
     6 GLP5        3 GROUP        1 Y    GLP  0     **** GLP Y 13
     7 ALL1       41 GROUP        1 Z    ALL  0     ROOT ALL Z 15
     8 SEL2       44 GROUP        1 Z    SEL  0     **** SEL Z 16
     9 GLL5        2 GROUP        1 Z    GLL  0     **** GLL Z 20
@<TRIPOS>SET

