#    Name: 2hzn_KIN_1_ligand
#    Modification time : Tue Mar 25 17:15:04 2014

@<TRIPOS>MOLECULE
2hzn_KIN_1_ligand
   41    43     1     0     0
SMALL
NO_CHARGES


@<TRIPOS>ATOM
      1 C11        47.5410   30.8440   43.6370 C.ar      1 KIN600      0.0000 
      2 C13        47.7180   31.0870   42.2710 C.ar      1 KIN600      0.0000 
      3 C21        48.0740   23.6850   43.3000 C.ar      1 KIN600      0.0000 
      4 C22        49.2950   23.6190   42.5980 C.ar      1 KIN600      0.0000 
      5 C24        49.8230   22.3920   42.1510 C.ar      1 KIN600      0.0000 
      6 C27        47.9230   21.2530   43.1130 C.ar      1 KIN600      0.0000 
      7 C32        49.4060   19.5470   40.7520 C.ar      1 KIN600      0.0000 
      8 C33        48.3030   19.9870   40.0070 C.ar      1 KIN600      0.0000 
      9 C35        48.1360   19.5210   38.7130 C.ar      1 KIN600      0.0000 
     10 F01        47.9040   31.5700   39.5280 F         1 KIN600      0.0000 
     11 C02        47.9650   30.2390   39.8940 C.3       1 KIN600      0.0000 
     12 F03        49.2240   29.7680   39.6020 F         1 KIN600      0.0000 
     13 F04        47.0530   29.5380   39.1390 F         1 KIN600      0.0000 
     14 C05        47.7360   30.0130   41.3680 C.ar      1 KIN600      0.0000 
     15 C06        47.5650   28.6970   41.8480 C.ar      1 KIN600      0.0000 
     16 C08        47.3800   28.4350   43.2180 C.ar      1 KIN600      0.0000 
     17 C09        47.3910   29.5280   44.1070 C.ar      1 KIN600      0.0000 
     18 N15        47.2070   27.1220   43.7380 N.am      1 KIN600      0.0000 
     19 C17        47.7310   26.0460   43.1030 C.2       1 KIN600      0.0000 
     20 O18        48.3390   26.1070   41.9950 O.2       1 KIN600      0.0000 
     21 N19        47.5430   24.9000   43.7870 N.am      1 KIN600      0.0000 
     22 C26        49.1480   21.1950   42.4230 C.ar      1 KIN600      0.0000 
     23 C29        47.3940   22.4850   43.5540 C.ar      1 KIN600      0.0000 
     24 O31        49.6280   19.9910   42.0130 O.3       1 KIN600      0.0000 
     25 N37        48.9790   18.6650   38.1290 N.ar      1 KIN600      0.0000 
     26 C38        50.0280   18.2370   38.8410 C.ar      1 KIN600      0.0000 
     27 C40        50.2880   18.6480   40.1430 C.ar      1 KIN600      0.0000 
     28 H          47.5202   31.6264   44.3000 H         1 KIN600      0.0000 
     29 H          47.8342   32.0446   41.9290 H         1 KIN600      0.0000 
     30 H          49.8143   24.4916   42.4072 H         1 KIN600      0.0000 
     31 H          50.7028   22.3786   41.6261 H         1 KIN600      0.0000 
     32 H          47.4032   20.3844   43.3000 H         1 KIN600      0.0000 
     33 H          47.6367   20.6414   40.4187 H         1 KIN600      0.0000 
     34 H          47.2912   19.8733   38.1770 H         1 KIN600      0.0000 
     35 H          47.5761   27.9116   41.1788 H         1 KIN600      0.0000 
     36 H          47.2873   29.3581   45.1180 H         1 KIN600      0.0000 
     37 H          46.6678   27.0183   44.6167 H         1 KIN600      0.0000 
     38 H          47.0124   24.8799   44.6742 H         1 KIN600      0.0000 
     39 H          46.5034   22.4986   44.0649 H         1 KIN600      0.0000 
     40 H          50.7090   17.5480   38.4084 H         1 KIN600      0.0000 
     41 H          51.1027   18.3042   40.6468 H         1 KIN600      0.0000 
@<TRIPOS>BOND
     1    2    1 ar   
     2   17    1 ar   
     3   28    1 1    
     4   14    2 ar   
     5   29    2 1    
     6    4    3 ar   
     7   21    3 1    
     8   23    3 ar   
     9    5    4 ar   
    10   30    4 1    
    11   22    5 ar   
    12   31    5 1    
    13   22    6 ar   
    14   23    6 ar   
    15   32    6 1    
    16    8    7 ar   
    17   24    7 1    
    18   27    7 ar   
    19    9    8 ar   
    20   33    8 1    
    21   25    9 ar   
    22   34    9 1    
    23   11   10 1    
    24   12   11 1    
    25   13   11 1    
    26   14   11 1    
    27   15   14 ar   
    28   16   15 ar   
    29   35   15 1    
    30   17   16 ar   
    31   18   16 1    
    32   36   17 1    
    33   19   18 am   
    34   37   18 1    
    35   20   19 2    
    36   21   19 am   
    37   38   21 1    
    38   24   22 1    
    39   39   23 1    
    40   26   25 ar   
    41   27   26 ar   
    42   40   26 1    
    43   41   27 1    
@<TRIPOS>SUBSTRUCTURE
     1 KIN600      1 GROUP   
@<TRIPOS>SET

