#    Name: 2qoc_ANP_1_INTS_M
#    Modification time : Mon Mar 24 22:33:13 2014

@<TRIPOS>MOLECULE
2qoc_ANP_1_INTS_M
   49     0    12     0     0
SMALL
NO_CHARGES


@<TRIPOS>ATOM
      1 N          -5.2490    9.9460   60.7830 N.am      2 SEC2        0.0000 
      2 N          -5.2870    8.6100   60.3020 N.am     10 SEL2        0.0000 
      3 N          -5.2110   11.2820   61.2640 N.am      6 SEP2        0.0000 
      4 Zn         -8.6825    7.5140   59.8525 Zn        3 ZIC7        0.0000 
      5 Zn         -7.4680    7.3390   60.4020 Zn       11 ZIL7        0.0000 
      6 Zn         -9.8970    7.6890   59.3030 Zn        7 ZIP7        0.0000 
      7 N          -5.2145    4.4845   56.3260 N.am      2 SEC2        0.0000 
      8 N          -5.6230    4.4000   57.5610 N.am     10 SEL2        0.0000 
      9 N          -4.8060    4.5690   55.0910 N.am      6 SEP2        0.0000 
     10 Zn         -9.7490    6.9285   58.9805 Zn        3 ZIC7        0.0000 
     11 Zn         -9.6010    6.1680   58.6580 Zn       11 ZIL7        0.0000 
     12 Zn         -9.4260    7.7975   58.0440 Zn        3 ZIC7        0.0000 
     13 Zn         -8.9550    7.9060   56.7850 Zn       11 ZIL7        0.0000 
     14 CA        -12.0690    5.2440   55.4020 C.3       4 GLC5        0.0000 
     15 CA        -10.3900    4.5270   56.3790 C.3      12 GLL5        0.0000 
     16 CA        -13.7480    5.9610   54.4250 C.3       8 GLP5        0.0000 
     17 CA         -6.7985    5.2790   52.8425 C.3       4 GLC5        0.0000 
     18 CA         -8.1100    4.1400   53.9790 C.3      12 GLL5        0.0000 
     19 CA         -5.4870    6.4180   51.7060 C.3       8 GLP5        0.0000 
     20 O          -5.8515    4.1140   54.2355 O.2       1 ALC1        0.0000 
     21 O          -6.8970    3.6590   53.3800 O.2       9 ALL1        0.0000 
     22 O          -4.8060    4.5690   55.0910 O.2       5 ALP1        0.0000 
     23 CA        -11.3690    4.7130   52.5625 C.3       4 GLC5        0.0000 
     24 CA         -9.3810    4.0270   53.1140 C.3      12 GLL5        0.0000 
     25 CA        -13.3570    5.3990   52.0110 C.3       8 GLP5        0.0000 
     26 CA         -7.3330    6.2150   48.0295 C.3       4 GLC5        0.0000 
     27 CA         -9.1100    6.5910   48.9480 C.3      12 GLL5        0.0000 
     28 CA         -5.5560    5.8390   47.1110 C.3       8 GLP5        0.0000 
     29 O          -9.0825    8.2535   47.0270 O.2       1 ALC1        0.0000 
     30 O          -9.1150    7.8190   48.3990 O.2       9 ALL1        0.0000 
     31 O          -9.0500    8.6880   45.6550 O.2       5 ALP1        0.0000 
     32 N          -8.2425    5.4160   46.9525 N.am      2 SEC2        0.0000 
     33 N          -8.9780    5.4830   48.1990 N.am     10 SEL2        0.0000 
     34 N          -7.5070    5.3490   45.7060 N.am      6 SEP2        0.0000 
     35 CA        -10.6400    5.6425   48.3725 C.3       4 GLC5        0.0000 
     36 CA         -8.9710    4.2400   48.7450 C.3      12 GLL5        0.0000 
     37 CA        -12.3090    7.0450   48.0000 C.3       8 GLP5        0.0000 
     38 CA         -7.5425    4.6020   47.3690 C.3       4 GLC5        0.0000 
     39 CA         -6.1140    4.9640   45.9930 C.3       8 GLP5        0.0000 
     40 CA        -11.3045    5.2185   51.4495 C.3       4 GLC5        0.0000 
     41 CA         -9.2520    5.0380   50.8880 C.3      12 GLL5        0.0000 
     42 CA         -7.3695    5.7280   51.2970 C.3       4 GLC5        0.0000 
     43 CA        -11.6628    2.6645   55.6043 C.3       4 GLC5        0.0000 
     44 CA         -9.9810    3.5690   55.2840 C.3      12 GLL5        0.0000 
     45 CA        -13.1400    1.2810   55.3770 C.3       8 GLP5        0.0000 
     46 CA        -10.7508    6.7725   48.8330 C.3       4 GLC5        0.0000 
     47 CA         -9.2750    6.4090   50.3840 C.3      12 GLL5        0.0000 
     48 CA         -7.6852    7.5615   50.1965 C.3       4 GLC5        0.0000 
     49 CA         -6.1780    8.6230   50.7270 C.3       8 GLP5        0.0000 
@<TRIPOS>BOND
@<TRIPOS>SUBSTRUCTURE
     1 ALC1       20 GROUP        1 X    ALC  0     ROOT ALC X 1
     2 SEC2        1 GROUP        1 X    SEC  0     **** SEC X 2
     3 ZIC7        4 GROUP        1 X    ZIC  0     **** ZIC X 5
     4 GLC5       14 GROUP        1 X    GLC  0     **** GLC X 6
     5 ALP1       22 GROUP        1 Y    ALP  0     ROOT ALP Y 8
     6 SEP2        3 GROUP        1 Y    SEP  0     **** SEP Y 9
     7 ZIP7        6 GROUP        1 Y    ZIP  0     **** ZIP Y 12
     8 GLP5       16 GROUP        1 Y    GLP  0     **** GLP Y 13
     9 ALL1       21 GROUP        1 Z    ALL  0     ROOT ALL Z 15
    10 SEL2        2 GROUP        1 Z    SEL  0     **** SEL Z 16
    11 ZIL7        5 GROUP        1 Z    ZIL  0     **** ZIL Z 19
    12 GLL5       15 GROUP        1 Z    GLL  0     **** GLL Z 20
@<TRIPOS>SET

