#    Name: 2qoc_ANP_1_ligand
#    Modification time : Mon Mar 24 22:33:14 2014

@<TRIPOS>MOLECULE
2qoc_ANP_1_ligand
   42    44     1     0     0
SMALL
NO_CHARGES


@<TRIPOS>ATOM
      1 PG         -5.9490    7.2720   60.4510 P.3       1 ANP949      0.0000 
      2 O1G        -5.2870    8.6100   60.3020 O.co2     1 ANP949      0.0000 
      3 O2G        -5.4790    6.5100   61.6590 O.co2     1 ANP949      0.0000 
      4 O3G        -7.4680    7.3390   60.4020 O.co2     1 ANP949      0.0000 
      5 PB         -6.5620    5.2950   58.3490 P.3       1 ANP949      0.0000 
      6 O2B        -5.6230    4.4000   57.5610 O.co2     1 ANP949      0.0000 
      7 N3B        -5.3630    6.2390   59.1710 N.4       1 ANP949      0.0000 
      8 PA         -8.9670    6.5060   57.3180 P.3       1 ANP949      0.0000 
      9 O1A        -9.6010    6.1680   58.6580 O.co2     1 ANP949      0.0000 
     10 O2A        -8.9550    7.9060   56.7850 O.co2     1 ANP949      0.0000 
     11 O3A        -7.5210    5.7720   57.1380 O.3       1 ANP949      0.0000 
     12 O5'        -9.8210    5.8070   56.1490 O.3       1 ANP949      0.0000 
     13 C5'       -10.3900    4.5270   56.3790 C.3       1 ANP949      0.0000 
     14 C4'        -9.9810    3.5690   55.2840 C.3       1 ANP949      0.0000 
     15 O4'       -10.4340    4.0990   54.0350 O.3       1 ANP949      0.0000 
     16 C3'        -8.4790    3.3580   55.2060 C.3       1 ANP949      0.0000 
     17 O3'        -8.1630    1.9750   55.0320 O.3       1 ANP949      0.0000 
     18 C2'        -8.1100    4.1400   53.9790 C.3       1 ANP949      0.0000 
     19 O2'        -6.8970    3.6590   53.3800 O.3       1 ANP949      0.0000 
     20 C1'        -9.3810    4.0270   53.1140 C.3       1 ANP949      0.0000 
     21 N9         -9.4170    5.1590   52.1880 N.pl3     1 ANP949      0.0000 
     22 C8         -9.5180    6.4500   52.5250 C.2       1 ANP949      0.0000 
     23 N7         -9.4430    7.2360   51.4250 N.2       1 ANP949      0.0000 
     24 C5         -9.2750    6.4090   50.3840 C.ar      1 ANP949      0.0000 
     25 C6         -9.1100    6.5910   48.9480 C.ar      1 ANP949      0.0000 
     26 N6         -9.1150    7.8190   48.3990 N.pl3     1 ANP949      0.0000 
     27 N1         -8.9780    5.4830   48.1990 N.ar      1 ANP949      0.0000 
     28 C2         -8.9710    4.2400   48.7450 C.ar      1 ANP949      0.0000 
     29 N3         -9.1130    3.9900   50.0600 N.ar      1 ANP949      0.0000 
     30 C4         -9.2520    5.0380   50.8880 C.ar      1 ANP949      0.0000 
     31 H         -11.4898    4.5690   56.4000 H         1 ANP949      0.0000 
     32 H         -10.0621    4.1034   57.3407 H         1 ANP949      0.0000 
     33 H         -10.4527    2.6103   55.4705 H         1 ANP949      0.0000 
     34 H          -8.0308    3.8024   56.0469 H         1 ANP949      0.0000 
     35 H          -8.0380    5.1840   54.2852 H         1 ANP949      0.0000 
     36 H          -9.3406    3.1029   52.6071 H         1 ANP949      0.0000 
     37 H          -9.6308    6.7887   53.4385 H         1 ANP949      0.0000 
     38 H          -8.9899    7.8583   47.4076 H         1 ANP949      0.0000 
     39 H          -9.2434    8.5831   49.0312 H         1 ANP949      0.0000 
     40 H          -8.8441    3.4084   48.0833 H         1 ANP949      0.0000 
     41 H          -7.5471    1.9474   54.2446 H         1 ANP949      0.0000 
     42 H          -6.1659    3.9820   53.9810 H         1 ANP949      0.0000 
@<TRIPOS>BOND
     1    2    1 ar   
     2    3    1 ar   
     3    4    1 ar   
     4    7    1 1    
     5    6    5 ar   
     6    7    5 1    
     7   11    5 1    
     8    9    8 ar   
     9   10    8 ar   
    10   11    8 1    
    11   12    8 1    
    12   13   12 1    
    13   14   13 1    
    14   31   13 1    
    15   32   13 1    
    16   15   14 1    
    17   16   14 1    
    18   33   14 1    
    19   20   15 1    
    20   17   16 1    
    21   18   16 1    
    22   34   16 1    
    23   41   17 1    
    24   19   18 1    
    25   20   18 1    
    26   35   18 1    
    27   42   19 1    
    28   21   20 1    
    29   36   20 1    
    30   22   21 1    
    31   30   21 1    
    32   23   22 2    
    33   37   22 1    
    34   24   23 1    
    35   25   24 ar   
    36   30   24 ar   
    37   26   25 1    
    38   27   25 ar   
    39   38   26 1    
    40   39   26 1    
    41   28   27 ar   
    42   29   28 ar   
    43   40   28 1    
    44   30   29 ar   
@<TRIPOS>SUBSTRUCTURE
     1 ANP949      1 GROUP   
@<TRIPOS>SET

