#    Name: 3tvw_07H_3_INTS_M
#    Modification time : Mon Mar 24 21:04:11 2014

@<TRIPOS>MOLECULE
3tvw_07H_3_INTS_M
   61     0     6     0     0
SMALL
NO_CHARGES


@<TRIPOS>ATOM
      1 CA         43.5740  -51.4080   26.4645 C.3       2 GLC5        0.0000 
      2 CA         42.5250  -49.8270   25.5430 C.3       6 GLL5        0.0000 
      3 CA         44.6230  -52.9890   27.3860 C.3       4 GLP5        0.0000 
      4 CA         40.4000  -46.5145   24.6885 C.3       2 GLC5        0.0000 
      5 CA         42.0240  -47.4570   25.5650 C.3       6 GLL5        0.0000 
      6 CA         38.7760  -45.5720   23.8120 C.3       4 GLP5        0.0000 
      7 CA         45.6230  -48.8790   24.4770 C.3       2 GLC5        0.0000 
      8 CA         44.5970  -48.1230   22.9060 C.3       6 GLL5        0.0000 
      9 CA         46.6490  -49.6350   26.0480 C.3       4 GLP5        0.0000 
     10 CA         42.3730  -44.6085   19.6170 C.3       2 GLC5        0.0000 
     11 CA         43.6020  -46.0400   18.5370 C.3       6 GLL5        0.0000 
     12 CA         41.1440  -43.1770   20.6970 C.3       4 GLP5        0.0000 
     13 CA         45.7235  -43.6290   16.6305 C.3       2 GLC5        0.0000 
     14 CA         45.9380  -45.1870   18.0560 C.3       6 GLL5        0.0000 
     15 CA         45.5090  -42.0710   15.2050 C.3       4 GLP5        0.0000 
     16 N          46.7575  -45.8555   15.0695 N.am      1 SEC2        0.0000 
     17 N          45.3910  -45.6790   15.4400 N.am      5 SEL2        0.0000 
     18 N          48.1240  -46.0320   14.6990 N.am      3 SEP2        0.0000 
     19 CA         43.3435  -49.0465   14.0525 C.3       2 GLC5        0.0000 
     20 CA         42.8520  -47.8530   15.6920 C.3       6 GLL5        0.0000 
     21 CA         43.8350  -50.2400   12.4130 C.3       4 GLP5        0.0000 
     22 CA         39.8360  -48.8980   15.3790 C.3       2 GLC5        0.0000 
     23 CA         41.6300  -48.2380   15.1530 C.3       6 GLL5        0.0000 
     24 CA         38.0420  -49.5580   15.6050 C.3       4 GLP5        0.0000 
     25 CA         42.0315  -49.5035   13.6475 C.3       2 GLC5        0.0000 
     26 CA         42.4330  -50.7690   12.1420 C.3       4 GLP5        0.0000 
     27 CA         39.7020  -46.1265   15.8495 C.3       2 GLC5        0.0000 
     28 CA         40.7850  -47.2960   14.5680 C.3       6 GLL5        0.0000 
     29 CA         38.6190  -44.9570   17.1310 C.3       4 GLP5        0.0000 
     30 CA         39.0890  -47.8695   14.6810 C.3       2 GLC5        0.0000 
     31 CA         37.3930  -48.4430   14.7940 C.3       4 GLP5        0.0000 
     32 CA         41.3165  -42.4610   12.4480 C.3       2 GLC5        0.0000 
     33 CA         40.6970  -43.5130   13.7670 C.3       6 GLL5        0.0000 
     34 CA         41.9360  -41.4090   11.1290 C.3       4 GLP5        0.0000 
     35 CA         44.8388  -49.5169   25.4755 C.3       2 GLC5        0.0000 
     36 CA         43.6330  -48.3260   24.0070 C.3       6 GLL5        0.0000 
     37 CA         44.2347  -47.4858   26.2293 C.3       2 GLC5        0.0000 
     38 CA         42.9290  -47.2080   24.5320 C.3       6 GLL5        0.0000 
     39 CA         45.9930  -47.6390   27.4100 C.3       4 GLP5        0.0000 
     40 CA         42.9072  -45.9303   26.3942 C.3       2 GLC5        0.0000 
     41 CA         43.3380  -44.5280   27.7400 C.3       4 GLP5        0.0000 
     42 CA         47.2257  -47.5965   22.1457 C.3       2 GLC5        0.0000 
     43 CA         44.8870  -46.8630   22.5650 C.3       6 GLL5        0.0000 
     44 CA         49.0640  -48.4330   22.2790 C.3       4 GLP5        0.0000 
     45 CA         42.7890  -47.8905   19.1775 C.3       2 GLC5        0.0000 
     46 CA         44.2100  -46.7820   19.7390 C.3       6 GLL5        0.0000 
     47 CA         41.6720  -49.3700   19.2170 C.3       4 GLP5        0.0000 
     48 CA         47.1778  -46.8803   17.7415 C.3       2 GLC5        0.0000 
     49 CA         46.3890  -46.0120   19.2740 C.3       6 GLL5        0.0000 
     50 CA         48.1920  -48.1610   16.8180 C.3       4 GLP5        0.0000 
     51 CA         41.9565  -48.7078   17.3197 C.3       2 GLC5        0.0000 
     52 CA         40.7597  -44.8582   16.0613 C.3       2 GLC5        0.0000 
     53 CA         41.1670  -45.9450   14.5030 C.3       6 GLL5        0.0000 
     54 CA         39.7500  -43.9670   17.3320 C.3       4 GLP5        0.0000 
     55 CA         40.1265  -44.0790   15.5888 C.3       2 GLC5        0.0000 
     56 CA         40.3090  -44.8690   13.9240 C.3       6 GLL5        0.0000 
     57 CA         42.2460  -44.9540   13.0263 C.3       2 GLC5        0.0000 
     58 CA         43.9890  -45.7170   12.2070 C.3       4 GLP5        0.0000 
     59 CA         39.7670  -44.6575   11.9447 C.3       2 GLC5        0.0000 
     60 CA         39.0310  -45.1240   10.0440 C.3       4 GLP5        0.0000 
     61 CA         42.9149  -46.1043   13.5816 C.3       2 GLC5        0.0000 
@<TRIPOS>BOND
@<TRIPOS>SUBSTRUCTURE
     1 SEC2       16 GROUP        1 X    SEC  0     ROOT SEC X 2
     2 GLC5        1 GROUP        1 X    GLC  0     **** GLC X 6
     3 SEP2       18 GROUP        1 Y    SEP  0     ROOT SEP Y 9
     4 GLP5        3 GROUP        1 Y    GLP  0     **** GLP Y 13
     5 SEL2       17 GROUP        1 Z    SEL  0     ROOT SEL Z 16
     6 GLL5        2 GROUP        1 Z    GLL  0     **** GLL Z 20
@<TRIPOS>SET

