#    Name: 3tvw_07H_3_ligand
#    Modification time : Mon Mar 24 21:04:11 2014

@<TRIPOS>MOLECULE
3tvw_07H_3_ligand
   55    59     1     0     0
SMALL
NO_CHARGES


@<TRIPOS>ATOM
      1 C1         43.6330  -48.3260   24.0070 C.ar      1 07H1        0.0000 
      2 C4         43.4310  -49.6150   24.5190 C.ar      1 07H1        0.0000 
      3 C8         42.5250  -49.8270   25.5430 C.ar      1 07H1        0.0000 
      4 C10        41.8290  -48.7430   26.0590 C.ar      1 07H1        0.0000 
      5 C6         42.0240  -47.4570   25.5650 C.ar      1 07H1        0.0000 
      6 C2         42.9290  -47.2080   24.5320 C.ar      1 07H1        0.0000 
      7 O5         43.0680  -45.9240   24.0470 O.3       1 07H1        0.0000 
      8 C9         44.2610  -45.6750   23.2850 C.3       1 07H1        0.0000 
      9 C7         44.8870  -46.8630   22.5650 C.2       1 07H1        0.0000 
     10 C3         44.5970  -48.1230   22.9060 C.2       1 07H1        0.0000 
     11 C26        45.8880  -46.6570   21.4600 C.3       1 07H1        0.0000 
     12 N23        45.3190  -45.9850   20.2840 N.4       1 07H1        0.0000 
     13 C22        44.2100  -46.7820   19.7390 C.3       1 07H1        0.0000 
     14 C21        43.6020  -46.0400   18.5370 C.3       1 07H1        0.0000 
     15 N19        44.6610  -45.7330   17.5480 N.am      1 07H1        0.0000 
     16 C25        45.9380  -45.1870   18.0560 C.3       1 07H1        0.0000 
     17 C24        46.3890  -46.0120   19.2740 C.3       1 07H1        0.0000 
     18 C18        44.5000  -45.9660   16.2190 C.2       1 07H1        0.0000 
     19 O20        45.3910  -45.6790   15.4400 O.2       1 07H1        0.0000 
     20 C14        43.2260  -46.4900   15.6590 C.ar      1 07H1        0.0000 
     21 C13        42.8520  -47.8530   15.6920 C.ar      1 07H1        0.0000 
     22 C12        41.6300  -48.2380   15.1530 C.ar      1 07H1        0.0000 
     23 C11        40.7850  -47.2960   14.5680 C.ar      1 07H1        0.0000 
     24 C15        41.1670  -45.9450   14.5030 C.ar      1 07H1        0.0000 
     25 C16        42.3720  -45.5540   15.0780 C.ar      1 07H1        0.0000 
     26 C17        40.3090  -44.8690   13.9240 C.2       1 07H1        0.0000 
     27 N27        39.0540  -44.9810   13.5290 N.pl3     1 07H1        0.0000 
     28 N28        38.6230  -43.7110   13.1110 N.2       1 07H1        0.0000 
     29 C29        39.6420  -42.8390   13.2620 C.2       1 07H1        0.0000 
     30 C30        40.6970  -43.5130   13.7670 C.2       1 07H1        0.0000 
     31 H          43.9640  -50.4039   24.1253 H         1 07H1        0.0000 
     32 H          42.3694  -50.7667   25.9149 H         1 07H1        0.0000 
     33 H          41.1492  -48.8929   26.8287 H         1 07H1        0.0000 
     34 H          41.4884  -46.6682   25.9702 H         1 07H1        0.0000 
     35 H          45.0608  -45.2253   23.9403 H         1 07H1        0.0000 
     36 H          44.0745  -44.8780   22.5097 H         1 07H1        0.0000 
     37 H          44.9841  -48.9444   22.4712 H         1 07H1        0.0000 
     38 H          46.3020  -47.6427   21.1702 H         1 07H1        0.0000 
     39 H          46.7380  -46.0691   21.8585 H         1 07H1        0.0000 
     40 H          45.0352  -45.0081   20.4956 H         1 07H1        0.0000 
     41 H          43.4298  -46.9230   20.4825 H         1 07H1        0.0000 
     42 H          44.5592  -47.7534   19.3986 H         1 07H1        0.0000 
     43 H          43.1371  -45.1241   18.8985 H         1 07H1        0.0000 
     44 H          42.8354  -46.6741   18.0943 H         1 07H1        0.0000 
     45 H          45.8186  -44.1536   18.3677 H         1 07H1        0.0000 
     46 H          46.7120  -45.2465   17.2966 H         1 07H1        0.0000 
     47 H          46.5869  -47.0266   18.9439 H         1 07H1        0.0000 
     48 H          47.3024  -45.5738   19.6631 H         1 07H1        0.0000 
     49 H          43.4806  -48.5393   16.1099 H         1 07H1        0.0000 
     50 H          41.3442  -49.2288   15.1852 H         1 07H1        0.0000 
     51 H          39.8784  -47.5855   14.1814 H         1 07H1        0.0000 
     52 H          42.6390  -44.5548   15.0749 H         1 07H1        0.0000 
     53 H          38.4980  -45.7594   13.5112 H         1 07H1        0.0000 
     54 H          39.6204  -41.9005   13.0472 H         1 07H1        0.0000 
     55 H          41.5560  -43.1790   13.9896 H         1 07H1        0.0000 
@<TRIPOS>BOND
     1    2    1 ar   
     2    6    1 ar   
     3   10    1 1    
     4    3    2 ar   
     5   31    2 1    
     6    4    3 ar   
     7   32    3 1    
     8    5    4 ar   
     9   33    4 1    
    10    6    5 ar   
    11   34    5 1    
    12    7    6 1    
    13    8    7 1    
    14    9    8 1    
    15   35    8 1    
    16   36    8 1    
    17   10    9 2    
    18   11    9 1    
    19   37   10 1    
    20   12   11 1    
    21   38   11 1    
    22   39   11 1    
    23   13   12 1    
    24   17   12 1    
    25   40   12 1    
    26   14   13 1    
    27   41   13 1    
    28   42   13 1    
    29   15   14 1    
    30   43   14 1    
    31   44   14 1    
    32   16   15 1    
    33   18   15 am   
    34   17   16 1    
    35   45   16 1    
    36   46   16 1    
    37   47   17 1    
    38   48   17 1    
    39   19   18 2    
    40   20   18 1    
    41   21   20 ar   
    42   25   20 ar   
    43   22   21 ar   
    44   49   21 1    
    45   23   22 ar   
    46   50   22 1    
    47   24   23 ar   
    48   51   23 1    
    49   25   24 ar   
    50   26   24 1    
    51   52   25 1    
    52   27   26 1    
    53   30   26 2    
    54   28   27 1    
    55   53   27 1    
    56   29   28 2    
    57   30   29 1    
    58   54   29 1    
    59   55   30 1    
@<TRIPOS>SUBSTRUCTURE
     1 07H1        1 GROUP   
@<TRIPOS>SET

