#    Name: 3agc_RCC_1_INTS_M
#    Modification time : Mon Apr  7 19:02:18 2014

@<TRIPOS>MOLECULE
3agc_RCC_1_INTS_M
   91     0     9     0     0
SMALL
NO_CHARGES


@<TRIPOS>ATOM
      1 O         -11.2485   10.2995  -13.0815 O.2       1 ALC1        0.0000 
      2 O         -11.5810   11.3300  -14.3580 O.2       7 ALL1        0.0000 
      3 O         -10.9160    9.2690  -11.8050 O.2       4 ALP1        0.0000 
      4 O         -10.3045   10.7945  -13.3590 O.2       1 ALC1        0.0000 
      5 O          -9.0280   10.2590  -12.3600 O.2       4 ALP1        0.0000 
      6 CA        -11.9590   13.1465  -12.3565 C.3       3 GLC5        0.0000 
      7 CA        -11.4190   12.7030  -14.4400 C.3       9 GLL5        0.0000 
      8 CA        -12.4990   13.5900  -10.2730 C.3       6 GLP5        0.0000 
      9 N         -17.4025    4.9990  -13.2050 N.am      2 SEC2        0.0000 
     10 N         -16.6680    5.1490  -14.2250 N.am      8 SEL2        0.0000 
     11 N         -18.1370    4.8490  -12.1850 N.am      5 SEP2        0.0000 
     12 N         -16.5050    4.0145  -14.8680 N.am      2 SEC2        0.0000 
     13 N         -16.3420    2.8800  -15.5110 N.am      5 SEP2        0.0000 
     14 CA         -4.1300    7.9565  -15.9480 C.3       3 GLC5        0.0000 
     15 CA         -5.8170    6.8570  -14.9500 C.3       9 GLL5        0.0000 
     16 CA         -2.4430    9.0560  -16.9460 C.3       6 GLP5        0.0000 
     17 CA         -5.9155    6.9265  -13.1665 C.3       3 GLC5        0.0000 
     18 CA         -6.0140    6.9960  -11.3830 C.3       6 GLP5        0.0000 
     19 CA        -16.0290    4.8545  -17.6680 C.3       3 GLC5        0.0000 
     20 CA        -15.9620    6.2040  -16.2340 C.3       9 GLL5        0.0000 
     21 CA        -16.0960    3.5050  -19.1020 C.3       6 GLP5        0.0000 
     22 CA         -5.0490    5.8365  -13.2000 C.3       3 GLC5        0.0000 
     23 CA         -5.2420    5.6750  -15.0910 C.3       9 GLL5        0.0000 
     24 CA         -4.8560    5.9980  -11.3090 C.3       6 GLP5        0.0000 
     25 CA         -4.4450    4.0585  -14.4515 C.3       3 GLC5        0.0000 
     26 CA         -3.6480    2.4420  -13.8120 C.3       6 GLP5        0.0000 
     27 CA         -5.6910   18.0035  -14.9145 C.3       3 GLC5        0.0000 
     28 CA         -7.0750   16.7270  -15.2350 C.3       9 GLL5        0.0000 
     29 CA         -4.3070   19.2800  -14.5940 C.3       6 GLP5        0.0000 
     30 CA         -5.2295   16.3090  -15.3625 C.3       3 GLC5        0.0000 
     31 CA         -3.3840   15.8910  -15.4900 C.3       6 GLP5        0.0000 
     32 CA         -6.9145   17.7740  -16.9570 C.3       3 GLC5        0.0000 
     33 CA         -6.7540   18.8210  -18.6790 C.3       6 GLP5        0.0000 
     34 CA        -18.6795   12.9110  -12.0200 C.3       3 GLC5        0.0000 
     35 CA        -18.3610   11.3890  -13.3530 C.3       9 GLL5        0.0000 
     36 CA        -18.9980   14.4330  -10.6870 C.3       6 GLP5        0.0000 
     37 CA        -17.6065   11.0830  -11.4140 C.3       3 GLC5        0.0000 
     38 CA        -16.8520   10.7770   -9.4750 C.3       6 GLP5        0.0000 
     39 CA        -11.6960    4.4790  -14.9580 C.3       3 GLC5        0.0000 
     40 CA        -10.8810    6.2540  -14.5120 C.3       9 GLL5        0.0000 
     41 CA        -12.5110    2.7040  -15.4040 C.3       6 GLP5        0.0000 
     42 CA        -14.1300    7.2045  -11.6275 C.3       3 GLC5        0.0000 
     43 CA        -13.6980    5.7790  -12.8840 C.3       9 GLL5        0.0000 
     44 CA        -14.5620    8.6300  -10.3710 C.3       6 GLP5        0.0000 
     45 CA        -12.8630    5.4195  -11.3490 C.3       3 GLC5        0.0000 
     46 CA        -12.0280    5.0600   -9.8140 C.3       6 GLP5        0.0000 
     47 CA        -15.1890    4.5330  -11.9930 C.3       3 GLC5        0.0000 
     48 CA        -16.6800    3.2870  -11.1020 C.3       6 GLP5        0.0000 
     49 CA        -13.1045    4.2415  -14.1440 C.3       3 GLC5        0.0000 
     50 CA         -8.4455    2.7385  -14.2840 C.3       3 GLC5        0.0000 
     51 CA         -8.2040    4.6230  -14.8850 C.3       9 GLL5        0.0000 
     52 CA         -8.6870    0.8540  -13.6830 C.3       6 GLP5        0.0000 
     53 CA         -4.9235   15.2730  -16.5515 C.3       3 GLC5        0.0000 
     54 CA         -6.4630   14.6550  -17.6130 C.3       9 GLL5        0.0000 
     55 CA         -7.5495   15.3015  -18.9455 C.3       3 GLC5        0.0000 
     56 CA         -8.6360   15.9480  -20.2780 C.3       6 GLP5        0.0000 
     57 CA         -5.7610   15.5890  -18.9190 C.3       3 GLC5        0.0000 
     58 CA         -5.0590   16.5230  -20.2250 C.3       6 GLP5        0.0000 
     59 CA         -4.9015   13.6925  -18.0690 C.3       3 GLC5        0.0000 
     60 CA         -3.3400   12.7300  -18.5250 C.3       6 GLP5        0.0000 
     61 CA        -12.5160   16.1405  -14.1350 C.3       3 GLC5        0.0000 
     62 CA        -13.0270   14.7130  -15.0180 C.3       9 GLL5        0.0000 
     63 CA        -12.0050   17.5680  -13.2520 C.3       6 GLP5        0.0000 
     64 CA        -12.6480   16.4675  -16.1110 C.3       3 GLC5        0.0000 
     65 CA        -12.2690   18.2220  -17.2040 C.3       6 GLP5        0.0000 
     66 CA        -14.2022    8.3293  -12.5030 C.3       3 GLC5        0.0000 
     67 CA        -13.3920    8.6300  -14.5780 C.3       9 GLL5        0.0000 
     68 CA        -13.3865    5.5160  -15.9400 C.3       3 GLC5        0.0000 
     69 CA        -14.2930    7.4270  -14.6920 C.3       9 GLL5        0.0000 
     70 CA        -12.9390    4.1780  -17.3930 C.3       6 GLP5        0.0000 
     71 CA         -6.9085    6.7830  -13.0813 C.3       3 GLC5        0.0000 
     72 CA         -8.3150    6.0990  -14.7650 C.3       9 GLL5        0.0000 
     73 CA        -12.9810   12.1720  -16.8458 C.3       3 GLC5        0.0000 
     74 CA        -12.6510   13.2950  -14.7980 C.3       9 GLL5        0.0000 
     75 CA        -12.8600   11.5580  -18.8260 C.3       6 GLP5        0.0000 
     76 CA        -14.1762    5.4565  -16.7800 C.3       3 GLC5        0.0000 
     77 CA        -14.8650    7.2660  -16.1000 C.3       9 GLL5        0.0000 
     78 CA         -7.4017   16.8200  -13.3125 C.3       3 GLC5        0.0000 
     79 CA         -8.0800   15.6630  -14.8690 C.3       9 GLL5        0.0000 
     80 CA         -7.2260   17.4450  -11.5730 C.3       6 GLP5        0.0000 
     81 CA         -5.8230    5.9060  -16.7982 C.3       3 GLC5        0.0000 
     82 CA         -7.2910    7.0410  -14.7940 C.3       9 GLL5        0.0000 
     83 CA         -5.7480    5.5000  -18.6150 C.3       6 GLP5        0.0000 
     84 CA        -13.5569   11.0772  -16.8940 C.3       3 GLC5        0.0000 
     85 CA        -12.9240   11.1320  -14.6760 C.3       9 GLL5        0.0000 
     86 CA        -14.0577   14.1267  -13.4474 C.3       3 GLC5        0.0000 
     87 CA        -13.5530   12.2770  -14.9330 C.3       9 GLL5        0.0000 
     88 CA        -15.0510   14.5040  -11.9530 C.3       6 GLP5        0.0000 
     89 CA         -9.4333   14.6904  -17.5108 C.3       3 GLC5        0.0000 
     90 CA         -9.1820   13.4100  -15.3400 C.3       9 GLL5        0.0000 
     91 CA        -10.5940   15.7490  -18.7670 C.3       6 GLP5        0.0000 
@<TRIPOS>BOND
@<TRIPOS>SUBSTRUCTURE
     1 ALC1        1 GROUP        1 X    ALC  0     ROOT ALC X 1
     2 SEC2        9 GROUP        1 X    SEC  0     **** SEC X 2
     3 GLC5        6 GROUP        1 X    GLC  0     **** GLC X 6
     4 ALP1        3 GROUP        1 Y    ALP  0     ROOT ALP Y 8
     5 SEP2       11 GROUP        1 Y    SEP  0     **** SEP Y 9
     6 GLP5        8 GROUP        1 Y    GLP  0     **** GLP Y 13
     7 ALL1        2 GROUP        1 Z    ALL  0     ROOT ALL Z 15
     8 SEL2       10 GROUP        1 Z    SEL  0     **** SEL Z 16
     9 GLL5        7 GROUP        1 Z    GLL  0     **** GLL Z 20
@<TRIPOS>SET

