#    Name: 3agc_RCC_1_ligand
#    Modification time : Mon Apr  7 19:02:18 2014

@<TRIPOS>MOLECULE
3agc_RCC_1_ligand
   81    85     1     0     0
SMALL
NO_CHARGES


@<TRIPOS>ATOM
      1 NA        -12.1530    8.2610  -14.2460 N.2       1 RCC1000     0.0000 
      2 NB         -9.2870    8.1530  -14.5230 N.am      1 RCC1000     0.0000 
      3 OB         -7.3270    9.3900  -14.6180 O.2       1 RCC1000     0.0000 
      4 NC         -9.0700   12.4100  -16.2670 N.pl3     1 RCC1000     0.0000 
      5 OC         -8.4030   10.7670  -18.3840 O.2       1 RCC1000     0.0000 
      6 ND        -11.5810   11.3300  -14.3580 N.pl3     1 RCC1000     0.0000 
      7 C1A       -13.3920    8.6300  -14.5780 C.2       1 RCC1000     0.0000 
      8 O1A       -17.7380    6.9720  -14.8430 O.co2     1 RCC1000     0.0000 
      9 C1B        -9.5020    6.8140  -14.5990 C.2       1 RCC1000     0.0000 
     10 C1C        -8.1070   12.7440  -17.1600 C.2       1 RCC1000     0.0000 
     11 C1D       -11.4190   12.7030  -14.4400 C.2       1 RCC1000     0.0000 
     12 O1D       -16.0290    9.6610  -13.1820 O.2       1 RCC1000     0.0000 
     13 C2A       -14.2930    7.4270  -14.6920 C.3       1 RCC1000     0.0000 
     14 O2A       -16.6680    5.1490  -14.2250 O.co2     1 RCC1000     0.0000 
     15 C2B        -8.3150    6.0990  -14.7650 C.2       1 RCC1000     0.0000 
     16 C2C        -7.5420   13.9660  -16.8670 C.2       1 RCC1000     0.0000 
     17 C2D       -12.6510   13.2950  -14.7980 C.2       1 RCC1000     0.0000 
     18 O2D       -17.5810   10.8440  -14.4190 O.3       1 RCC1000     0.0000 
     19 C3A       -13.3750    6.2810  -14.2820 C.3       1 RCC1000     0.0000 
     20 C3B        -7.2910    7.0410  -14.7940 C.2       1 RCC1000     0.0000 
     21 C3C        -8.2590   14.4070  -15.6510 C.2       1 RCC1000     0.0000 
     22 C3D       -13.5530   12.2770  -14.9330 C.2       1 RCC1000     0.0000 
     23 C4A       -12.0330    6.9370  -14.3340 C.2       1 RCC1000     0.0000 
     24 C4B        -7.9420    8.2590  -14.6420 C.2       1 RCC1000     0.0000 
     25 C4C        -9.1820   13.4100  -15.3400 C.2       1 RCC1000     0.0000 
     26 C4D       -12.9240   11.1320  -14.6760 C.2       1 RCC1000     0.0000 
     27 CAA       -14.8650    7.2660  -16.1000 C.3       1 RCC1000     0.0000 
     28 CAB        -5.8170    6.8570  -14.9500 C.2       1 RCC1000     0.0000 
     29 CAC        -8.0800   15.6630  -14.8690 C.3       1 RCC1000     0.0000 
     30 CAD       -14.8830   12.0670  -15.2520 C.2       1 RCC1000     0.0000 
     31 CBA       -15.9620    6.2040  -16.2340 C.3       1 RCC1000     0.0000 
     32 CBB        -5.2420    5.6750  -15.0910 C.2       1 RCC1000     0.0000 
     33 CBC        -7.0750   16.7270  -15.2350 C.3       1 RCC1000     0.0000 
     34 CBD       -15.1480   10.5970  -15.1880 C.3       1 RCC1000     0.0000 
     35 OBD       -15.7480   12.9720  -15.5450 O.2       1 RCC1000     0.0000 
     36 CED       -18.3610   11.3890  -13.3530 C.3       1 RCC1000     0.0000 
     37 CGA       -16.8530    6.1030  -15.0140 C.2       1 RCC1000     0.0000 
     38 CGD       -16.2380   10.3210  -14.1890 C.2       1 RCC1000     0.0000 
     39 CHA       -13.7950   10.0600  -14.7960 C.2       1 RCC1000     0.0000 
     40 CHB       -10.8810    6.2540  -14.5120 C.2       1 RCC1000     0.0000 
     41 CHC        -7.7940   11.8180  -18.2770 C.2       1 RCC1000     0.0000 
     42 CHD       -10.1310   13.4430  -14.1670 C.3       1 RCC1000     0.0000 
     43 CMA       -13.6980    5.7790  -12.8840 C.3       1 RCC1000     0.0000 
     44 CMB        -8.2040    4.6230  -14.8850 C.3       1 RCC1000     0.0000 
     45 CMC        -6.4630   14.6550  -17.6130 C.3       1 RCC1000     0.0000 
     46 CMD       -13.0270   14.7130  -15.0180 C.3       1 RCC1000     0.0000 
     47 H          -9.9143    8.8318  -14.4152 H         1 RCC1000     0.0000 
     48 H          -9.5950   11.6012  -16.2768 H         1 RCC1000     0.0000 
     49 H         -10.9525   10.6921  -14.1440 H         1 RCC1000     0.0000 
     50 H         -15.0713    7.5121  -13.9688 H         1 RCC1000     0.0000 
     51 H         -13.4327    5.5201  -14.9999 H         1 RCC1000     0.0000 
     52 H         -14.0414    7.0145  -16.7941 H         1 RCC1000     0.0000 
     53 H         -15.2708    8.2390  -16.4347 H         1 RCC1000     0.0000 
     54 H          -5.2714    7.7535  -14.9381 H         1 RCC1000     0.0000 
     55 H          -7.8904   15.3750  -13.7705 H         1 RCC1000     0.0000 
     56 H          -9.1065   16.1766  -14.7796 H         1 RCC1000     0.0000 
     57 H         -15.4869    5.2288  -16.4212 H         1 RCC1000     0.0000 
     58 H         -16.5760    6.4415  -17.1162 H         1 RCC1000     0.0000 
     59 H         -15.3991   10.2544  -16.1556 H         1 RCC1000     0.0000 
     60 H         -10.9067    5.1853  -14.6072 H         1 RCC1000     0.0000 
     61 H          -7.0355   12.1742  -18.9053 H         1 RCC1000     0.0000 
     62 H          -9.6378   12.9987  -13.2892 H         1 RCC1000     0.0000 
     63 H         -10.3614   14.4896  -13.9166 H         1 RCC1000     0.0000 
     64 H          -6.1400   16.3723  -15.2298 H         1 RCC1000     0.0000 
     65 H          -7.2427   17.0978  -16.1485 H         1 RCC1000     0.0000 
     66 H          -7.1001   17.4967  -14.5971 H         1 RCC1000     0.0000 
     67 H         -18.5249   10.7165  -12.6313 H         1 RCC1000     0.0000 
     68 H         -17.9103   12.1731  -12.9262 H         1 RCC1000     0.0000 
     69 H         -19.2560   11.7024  -13.6703 H         1 RCC1000     0.0000 
     70 H         -13.0953    5.0295  -12.6100 H         1 RCC1000     0.0000 
     71 H         -13.5992    6.5002  -12.1984 H         1 RCC1000     0.0000 
     72 H         -14.6363    5.4393  -12.8189 H         1 RCC1000     0.0000 
     73 H          -7.2542    4.3296  -14.9933 H         1 RCC1000     0.0000 
     74 H          -8.5646    4.1566  -14.0773 H         1 RCC1000     0.0000 
     75 H          -8.7100    4.2755  -15.6744 H         1 RCC1000     0.0000 
     76 H          -5.6250   14.1101  -17.6418 H         1 RCC1000     0.0000 
     77 H          -6.7255   14.8393  -18.5602 H         1 RCC1000     0.0000 
     78 H          -6.2271   15.5337  -17.1980 H         1 RCC1000     0.0000 
     79 H         -12.8816   15.2672  -14.1984 H         1 RCC1000     0.0000 
     80 H         -12.4913   15.1296  -15.7525 H         1 RCC1000     0.0000 
     81 H         -13.9906   14.8072  -15.2683 H         1 RCC1000     0.0000 
@<TRIPOS>BOND
     1    7    1 1    
     2   23    1 2    
     3    9    2 1    
     4   24    2 am   
     5   47    2 1    
     6   24    3 2    
     7   10    4 1    
     8   25    4 1    
     9   48    4 1    
    10   41    5 2    
    11   11    6 1    
    12   26    6 1    
    13   49    6 1    
    14   13    7 1    
    15   39    7 2    
    16   37    8 ar   
    17   15    9 1    
    18   40    9 2    
    19   16   10 2    
    20   41   10 1    
    21   17   11 2    
    22   42   11 1    
    23   38   12 2    
    24   19   13 1    
    25   27   13 1    
    26   50   13 1    
    27   37   14 ar   
    28   20   15 2    
    29   44   15 1    
    30   21   16 1    
    31   45   16 1    
    32   22   17 1    
    33   46   17 1    
    34   36   18 1    
    35   38   18 1    
    36   23   19 1    
    37   43   19 1    
    38   51   19 1    
    39   24   20 1    
    40   28   20 1    
    41   25   21 2    
    42   29   21 1    
    43   26   22 2    
    44   30   22 1    
    45   40   23 1    
    46   42   25 1    
    47   39   26 1    
    48   31   27 1    
    49   52   27 1    
    50   53   27 1    
    51   32   28 2    
    52   54   28 1    
    53   33   29 1    
    54   55   29 1    
    55   56   29 1    
    56   34   30 1    
    57   35   30 2    
    58   37   31 1    
    59   57   31 1    
    60   58   31 1    
    61   64   33 1    
    62   65   33 1    
    63   66   33 1    
    64   38   34 1    
    65   39   34 1    
    66   59   34 1    
    67   67   36 1    
    68   68   36 1    
    69   69   36 1    
    70   60   40 1    
    71   61   41 1    
    72   62   42 1    
    73   63   42 1    
    74   70   43 1    
    75   71   43 1    
    76   72   43 1    
    77   73   44 1    
    78   74   44 1    
    79   75   44 1    
    80   76   45 1    
    81   77   45 1    
    82   78   45 1    
    83   79   46 1    
    84   80   46 1    
    85   81   46 1    
@<TRIPOS>SUBSTRUCTURE
     1 RCC1000     1 GROUP   
@<TRIPOS>SET

