#    Name: 3oe5_611_1_INTS_M
#    Modification time : Tue Mar 25 04:12:12 2014

@<TRIPOS>MOLECULE
3oe5_611_1_INTS_M
   93     0    15     0     0
SMALL
NO_CHARGES


@<TRIPOS>ATOM
      1 CA         21.7525  -28.7190   13.9230 C.3       5 GLC5        0.0000 
      2 CA         20.4640  -30.3290   13.3220 C.3      15 GLL5        0.0000 
      3 CA         23.0410  -27.1090   14.5240 C.3      10 GLP5        0.0000 
      4 CA         17.6390  -28.5090   13.2055 C.3       5 GLC5        0.0000 
      5 CA         18.0680  -30.6670   13.2010 C.3      15 GLL5        0.0000 
      6 CA         17.2100  -26.3510   13.2100 C.3      10 GLP5        0.0000 
      7 CA         18.4970  -27.8835   12.7330 C.3       5 GLC5        0.0000 
      8 CA         19.7840  -29.4160   12.2560 C.3      15 GLL5        0.0000 
      9 CA         19.0565  -31.5985    9.9745 C.3       5 GLC5        0.0000 
     10 CA         19.9180  -30.0030   10.9160 C.3      15 GLL5        0.0000 
     11 CA         18.1950  -33.1940    9.0330 C.3      10 GLP5        0.0000 
     12 CA         17.0665  -33.0430   11.3565 C.3       5 GLC5        0.0000 
     13 CA         16.9500  -31.6140   12.1580 C.3      15 GLL5        0.0000 
     14 CA         17.1830  -34.4720   10.5550 C.3      10 GLP5        0.0000 
     15 O          19.5280  -29.2000   15.3140 O.2       1 ALC1        0.0000 
     16 O          20.4770  -29.6200   14.5590 O.2      11 ALL1        0.0000 
     17 O          18.5790  -28.7800   16.0690 O.2       6 ALP1        0.0000 
     18 O          19.3795  -30.2390   15.5805 O.2       1 ALC1        0.0000 
     19 O          18.2820  -30.8580   16.6020 O.2       6 ALP1        0.0000 
     20 O          18.8310  -31.5350   15.5675 O.2       1 ALC1        0.0000 
     21 O          19.3800  -32.2120   14.5330 O.2      11 ALL1        0.0000 
     22 CA         19.5205  -31.5840    8.8335 C.3       5 GLC5        0.0000 
     23 CA         20.8460  -29.9740    8.6340 C.3      15 GLL5        0.0000 
     24 CA         20.5760  -28.9990    6.7845 C.3       5 GLC5        0.0000 
     25 CA         20.3060  -28.0240    4.9350 C.3      10 GLP5        0.0000 
     26 CA         24.0155  -29.4160    8.1330 C.3       5 GLC5        0.0000 
     27 CA         23.6680  -28.8490    6.2960 C.3      15 GLL5        0.0000 
     28 CA         24.3630  -29.9830    9.9700 C.3      10 GLP5        0.0000 
     29 CA         21.9870  -28.4365    5.6155 C.3       5 GLC5        0.0000 
     30 CA         26.6455  -26.1170    3.7865 C.3       5 GLC5        0.0000 
     31 CA         25.7430  -27.2900    5.1300 C.3      15 GLL5        0.0000 
     32 CA         27.5480  -24.9440    2.4430 C.3      10 GLP5        0.0000 
     33 CA         25.0500  -30.2780    7.3140 C.3       5 GLC5        0.0000 
     34 CA         24.6620  -29.4660    5.5410 C.3      15 GLL5        0.0000 
     35 CA         25.4380  -31.0900    9.0870 C.3      10 GLP5        0.0000 
     36 NZ         21.4435  -26.8985    6.6140 N.4       3 LYC4        0.0000 
     37 NZ         22.7820  -26.7460    7.1910 N.4      13 LYL4        0.0000 
     38 NZ         20.1050  -27.0510    6.0370 N.4       8 LYP4        0.0000 
     39 Zn         22.8410  -25.6990    7.0350 Zn        4 ZIC7        0.0000 
     40 Zn         22.7820  -26.7460    7.1910 Zn       14 ZIL7        0.0000 
     41 Zn         22.9000  -24.6520    6.8790 Zn        9 ZIP7        0.0000 
     42 N          21.4435  -26.8985    6.6140 N.am      2 SEC2        0.0000 
     43 N          22.7820  -26.7460    7.1910 N.am     12 SEL2        0.0000 
     44 N          20.1050  -27.0510    6.0370 N.am      7 SEP2        0.0000 
     45 Zn         23.8560  -25.0045    6.4835 Zn        4 ZIC7        0.0000 
     46 Zn         24.8120  -25.3570    6.0880 Zn       14 ZIL7        0.0000 
     47 N          24.2995  -25.0640    4.8570 N.am      2 SEC2        0.0000 
     48 N          24.8120  -25.3570    6.0880 N.am     12 SEL2        0.0000 
     49 N          23.7870  -24.7710    3.6260 N.am      7 SEP2        0.0000 
     50 O          25.9330  -25.1305    6.4700 O.2       1 ALC1        0.0000 
     51 O          24.8120  -25.3570    6.0880 O.2      11 ALL1        0.0000 
     52 O          27.0540  -24.9040    6.8520 O.2       6 ALP1        0.0000 
     53 CA         13.7095  -32.3755   14.1635 C.3       5 GLC5        0.0000 
     54 CA         12.9550  -31.4860   12.5640 C.3      15 GLL5        0.0000 
     55 CA         14.4640  -33.2650   15.7630 C.3      10 GLP5        0.0000 
     56 CA         11.6435  -31.9465   13.9395 C.3       5 GLC5        0.0000 
     57 CA         10.3320  -32.4070   15.3150 C.3      10 GLP5        0.0000 
     58 CA         11.3895  -30.0450   12.4850 C.3       5 GLC5        0.0000 
     59 CA          9.8240  -28.6040   12.4060 C.3      10 GLP5        0.0000 
     60 N          11.3070  -30.4070   13.7045 N.am      2 SEC2        0.0000 
     61 N          12.6990  -30.3950   13.3610 N.am     12 SEL2        0.0000 
     62 N           9.9150  -30.4190   14.0480 N.am      7 SEP2        0.0000 
     63 CA         14.1390  -31.4710   14.7680 C.3       5 GLC5        0.0000 
     64 CA         13.8140  -29.6770   13.7730 C.3      15 GLL5        0.0000 
     65 CA         11.8190  -29.1405   13.0895 C.3       5 GLC5        0.0000 
     66 CA         13.6200  -29.0425   11.7990 C.3       5 GLC5        0.0000 
     67 CA         13.4260  -28.4080    9.8250 C.3      10 GLP5        0.0000 
     68 CA         16.1645  -28.1840   13.3195 C.3       5 GLC5        0.0000 
     69 CA         15.1190  -30.0170   13.4290 C.3      15 GLL5        0.0000 
     70 CA         16.6345  -32.3588   13.8528 C.3       5 GLC5        0.0000 
     71 CA         15.7600  -33.5770   15.0260 C.3      10 GLP5        0.0000 
     72 CA         16.7490  -29.6538   11.4332 C.3       5 GLC5        0.0000 
     73 CA         15.9890  -28.1670   10.1870 C.3      10 GLP5        0.0000 
     74 CA         18.5260  -28.8392   10.4490 C.3       5 GLC5        0.0000 
     75 CA         17.2010  -27.9690    9.3120 C.3      10 GLP5        0.0000 
     76 CA         22.5630  -29.8455    9.6483 C.3       5 GLC5        0.0000 
     77 CA         20.6800  -29.4420   10.0190 C.3      15 GLL5        0.0000 
     78 CA         18.9820  -28.8385    9.3193 C.3       5 GLC5        0.0000 
     79 CA         15.6265  -29.3727   11.6000 C.3       5 GLC5        0.0000 
     80 CA         15.4090  -31.1400   12.5970 C.3      15 GLL5        0.0000 
     81 CA         24.4950  -27.5640    3.7020 C.3       5 GLC5        0.0000 
     82 CA         24.7670  -26.7260    5.9020 C.3      15 GLL5        0.0000 
     83 CA         23.7350  -28.1200    1.8880 C.3      10 GLP5        0.0000 
     84 CA         25.8570  -27.9930    7.2127 C.3       5 GLC5        0.0000 
     85 CA         26.2400  -28.1360    9.1850 C.3      10 GLP5        0.0000 
     86 CA         24.4180  -29.2734    3.6774 C.3       5 GLC5        0.0000 
     87 CA         25.6930  -28.6920    4.9650 C.3      15 GLL5        0.0000 
     88 CA         23.9070  -29.6220    1.9130 C.3      10 GLP5        0.0000 
     89 CA         13.5105  -30.0465   11.0933 C.3       5 GLC5        0.0000 
     90 CA         14.2350  -31.8840   12.1590 C.3      15 GLL5        0.0000 
     91 CA         14.9787  -29.3570   15.5205 C.3       5 GLC5        0.0000 
     92 CA         15.4910  -28.8670   17.4400 C.3      10 GLP5        0.0000 
     93 CA         15.3652  -32.1707   13.9647 C.3       5 GLC5        0.0000 
@<TRIPOS>BOND
@<TRIPOS>SUBSTRUCTURE
     1 ALC1       15 GROUP        1 X    ALC  0     ROOT ALC X 1
     2 SEC2       42 GROUP        1 X    SEC  0     **** SEC X 2
     3 LYC4       36 GROUP        1 X    LYC  0     **** LYC X 4
     4 ZIC7       39 GROUP        1 X    ZIC  0     **** ZIC X 5
     5 GLC5        1 GROUP        1 X    GLC  0     **** GLC X 6
     6 ALP1       17 GROUP        1 Y    ALP  0     ROOT ALP Y 8
     7 SEP2       44 GROUP        1 Y    SEP  0     **** SEP Y 9
     8 LYP4       38 GROUP        1 Y    LYP  0     **** LYP Y 11
     9 ZIP7       41 GROUP        1 Y    ZIP  0     **** ZIP Y 12
    10 GLP5        3 GROUP        1 Y    GLP  0     **** GLP Y 13
    11 ALL1       16 GROUP        1 Z    ALL  0     ROOT ALL Z 15
    12 SEL2       43 GROUP        1 Z    SEL  0     **** SEL Z 16
    13 LYL4       37 GROUP        1 Z    LYL  0     **** LYL Z 18
    14 ZIL7       40 GROUP        1 Z    ZIL  0     **** ZIL Z 19
    15 GLL5        2 GROUP        1 Z    GLL  0     **** GLL Z 20
@<TRIPOS>SET

