#    Name: 3oe5_611_1_ligand
#    Modification time : Tue Mar 25 04:12:12 2014

@<TRIPOS>MOLECULE
3oe5_611_1_ligand
   49    51     1     0     0
SMALL
NO_CHARGES


@<TRIPOS>ATOM
      1 C1         20.4640  -30.3290   13.3220 C.3       1 611223      0.0000 
      2 C2         19.3870  -31.4330   13.3300 C.3       1 611223      0.0000 
      3 C3         18.0680  -30.6670   13.2010 C.3       1 611223      0.0000 
      4 O4         18.4230  -29.4060   12.6160 O.3       1 611223      0.0000 
      5 C5         19.7840  -29.4160   12.2560 C.3       1 611223      0.0000 
      6 C6         19.9180  -30.0030   10.9160 C.2       1 611223      0.0000 
      7 S7         16.9500  -31.6140   12.1580 S.3       1 611223      0.0000 
      8 O8         20.4770  -29.6200   14.5590 O.3       1 611223      0.0000 
      9 O9         19.3800  -32.2120   14.5330 O.3       1 611223      0.0000 
     10 C10        20.6800  -29.4420   10.0190 C.2       1 611223      0.0000 
     11 C11        15.4090  -31.1400   12.5970 C.ar      1 611223      0.0000 
     12 C12        20.8460  -29.9740    8.6340 C.3       1 611223      0.0000 
     13 N13        21.7980  -29.2190    7.8600 N.am      1 611223      0.0000 
     14 C14        22.6140  -29.7000    6.9040 C.2       1 611223      0.0000 
     15 C15        23.6680  -28.8490    6.2960 C.ar      1 611223      0.0000 
     16 C16        23.6930  -27.4400    6.5000 C.ar      1 611223      0.0000 
     17 C17        24.7670  -26.7260    5.9020 C.ar      1 611223      0.0000 
     18 C18        25.7430  -27.2900    5.1300 C.ar      1 611223      0.0000 
     19 C19        25.6930  -28.6920    4.9650 C.ar      1 611223      0.0000 
     20 C20        24.6620  -29.4660    5.5410 C.ar      1 611223      0.0000 
     21 N21        26.6930  -29.3600    4.1620 N.pl3     1 611223      0.0000 
     22 O22        22.7820  -26.7460    7.1910 O.co2     1 611223      0.0000 
     23 O23        24.8120  -25.3570    6.0880 O.3       1 611223      0.0000 
     24 O24        22.5040  -30.9010    6.5190 O.2       1 611223      0.0000 
     25 O25        27.4960  -28.7420    3.5140 O.2       1 611223      0.0000 
     26 O26        26.6580  -30.5820    4.1530 O.2       1 611223      0.0000 
     27 C27        14.2350  -31.8840   12.1590 C.ar      1 611223      0.0000 
     28 C28        12.9550  -31.4860   12.5640 C.ar      1 611223      0.0000 
     29 N29        12.6990  -30.3950   13.3610 N.ar      1 611223      0.0000 
     30 C30        13.8140  -29.6770   13.7730 C.ar      1 611223      0.0000 
     31 C31        15.1190  -30.0170   13.4290 C.ar      1 611223      0.0000 
     32 H          21.3279  -30.6801   12.9529 H         1 611223      0.0000 
     33 H          19.5062  -32.0178   12.4459 H         1 611223      0.0000 
     34 H          17.5809  -30.6123   14.1193 H         1 611223      0.0000 
     35 H          20.2247  -28.4630   12.3179 H         1 611223      0.0000 
     36 H          19.3733  -30.8698   10.7541 H         1 611223      0.0000 
     37 H          21.2378  -28.5685   10.2041 H         1 611223      0.0000 
     38 H          19.8534  -29.9760    8.1366 H         1 611223      0.0000 
     39 H          21.1545  -31.0384    8.7007 H         1 611223      0.0000 
     40 H          21.8328  -28.1713    8.0963 H         1 611223      0.0000 
     41 H          26.4716  -26.7522    4.6908 H         1 611223      0.0000 
     42 H          24.6531  -30.4802    5.3984 H         1 611223      0.0000 
     43 H          14.3723  -32.6928   11.5564 H         1 611223      0.0000 
     44 H          12.1369  -32.0702   12.2292 H         1 611223      0.0000 
     45 H          13.6652  -28.8281   14.3793 H         1 611223      0.0000 
     46 H          15.9110  -29.4498   13.7782 H         1 611223      0.0000 
     47 H          19.5135  -29.4766   14.7851 H         1 611223      0.0000 
     48 H          18.9513  -31.6244   15.2192 H         1 611223      0.0000 
     49 H          25.4969  -25.2154    6.8028 H         1 611223      0.0000 
@<TRIPOS>BOND
     1    2    1 1    
     2    5    1 1    
     3    8    1 1    
     4   32    1 1    
     5    3    2 1    
     6    9    2 1    
     7   33    2 1    
     8    4    3 1    
     9    7    3 1    
    10   34    3 1    
    11    5    4 1    
    12    6    5 1    
    13   35    5 1    
    14   10    6 2    
    15   36    6 1    
    16   11    7 1    
    17   47    8 1    
    18   48    9 1    
    19   12   10 1    
    20   37   10 1    
    21   27   11 ar   
    22   31   11 ar   
    23   13   12 1    
    24   38   12 1    
    25   39   12 1    
    26   14   13 am   
    27   40   13 1    
    28   15   14 1    
    29   24   14 2    
    30   16   15 ar   
    31   20   15 ar   
    32   17   16 ar   
    33   22   16 ar   
    34   18   17 ar   
    35   23   17 1    
    36   19   18 ar   
    37   41   18 1    
    38   20   19 ar   
    39   21   19 1    
    40   42   20 1    
    41   25   21 2    
    42   26   21 2    
    43   49   23 1    
    44   28   27 ar   
    45   43   27 1    
    46   29   28 ar   
    47   44   28 1    
    48   30   29 ar   
    49   31   30 ar   
    50   45   30 1    
    51   46   31 1    
@<TRIPOS>SUBSTRUCTURE
     1 611223      1 GROUP   
@<TRIPOS>SET

