#    Name: 1s2i_BP1_1_INTS_M
#    Modification time : Tue Mar 25 01:52:44 2014

@<TRIPOS>MOLECULE
1s2i_BP1_1_INTS_M
    6     0     3     0     0
SMALL
NO_CHARGES


@<TRIPOS>ATOM
      1 CA         -0.4030   -7.1270  -23.8405 C.3       1 GLC5        0.0000 
      2 CA          1.0510   -7.3310  -22.3010 C.3       3 GLL5        0.0000 
      3 CA         -1.8570   -6.9230  -25.3800 C.3       2 GLP5        0.0000 
      4 CA          2.7757   -3.2923  -23.4775 C.3       1 GLC5        0.0000 
      5 CA          1.8380   -4.3630  -24.4600 C.3       3 GLL5        0.0000 
      6 CA          4.0310   -1.8610  -23.0240 C.3       2 GLP5        0.0000 
@<TRIPOS>BOND
@<TRIPOS>SUBSTRUCTURE
     1 GLC5        1 GROUP        1 X    GLC  0     ROOT GLC X 6
     2 GLP5        3 GROUP        1 Y    GLP  0     ROOT GLP Y 13
     3 GLL5        2 GROUP        1 Z    GLL  0     ROOT GLL Z 20
@<TRIPOS>SET

