#    Name: 1s2i_BP1_1_ligand
#    Modification time : Tue Mar 25 01:52:44 2014

@<TRIPOS>MOLECULE
1s2i_BP1_1_ligand
   13    14     1     0     0
SMALL
NO_CHARGES


@<TRIPOS>ATOM
      1 N9          1.3150   -3.0750  -24.3550 N.2       1 BP11245     0.0000 
      2 C4          1.8380   -4.3630  -24.4600 C.ar      1 BP11245     0.0000 
      3 N3          2.7730   -4.8590  -25.3870 N.ar      1 BP11245     0.0000 
      4 C2          3.0760   -6.1920  -25.2070 C.ar      1 BP11245     0.0000 
      5 N1          2.5230   -7.0110  -24.2120 N.ar      1 BP11245     0.0000 
      6 C6          1.5890   -6.4920  -23.2950 C.ar      1 BP11245     0.0000 
      7 BR          1.0510   -7.3310  -22.3010 Br        1 BP11245     0.0000 
      8 C5          1.2030   -5.0840  -23.4020 C.ar      1 BP11245     0.0000 
      9 N7          0.3260   -4.2630  -22.6740 N.pl3     1 BP11245     0.0000 
     10 C8          0.4460   -3.0960  -23.2960 C.2       1 BP11245     0.0000 
     11 H           3.7788   -6.6402  -25.8655 H         1 BP11245     0.0000 
     12 H          -0.1846   -4.5189  -21.9505 H         1 BP11245     0.0000 
     13 H          -0.0623   -2.2636  -23.0218 H         1 BP11245     0.0000 
@<TRIPOS>BOND
     1    2    1 1    
     2   10    1 2    
     3    3    2 ar   
     4    8    2 ar   
     5    4    3 ar   
     6    5    4 ar   
     7   11    4 1    
     8    6    5 ar   
     9    7    6 1    
    10    8    6 ar   
    11    9    8 1    
    12   10    9 1    
    13   12    9 1    
    14   13   10 1    
@<TRIPOS>SUBSTRUCTURE
     1 BP11245     1 GROUP   
@<TRIPOS>SET

