#    Name: 4ajn_88V_2_INTS_M
#    Modification time : Tue Mar 25 05:37:53 2014

@<TRIPOS>MOLECULE
4ajn_88V_2_INTS_M
   99     0    12     0     0
SMALL
NO_CHARGES


@<TRIPOS>ATOM
      1 CA         -4.3495    7.4975   11.8865 C.3       4 GLC5        0.0000 
      2 CA         -2.2880    7.2870   11.1710 C.3      12 GLL5        0.0000 
      3 CA         -6.4110    7.7080   12.6020 C.3       8 GLP5        0.0000 
      4 CA          0.1275    8.0070   13.1470 C.3       4 GLC5        0.0000 
      5 CA         -1.2020    8.0960   11.4490 C.3      12 GLL5        0.0000 
      6 CA          1.4570    7.9180   14.8450 C.3       8 GLP5        0.0000 
      7 CA        -14.1840   -3.2410   10.3675 C.3       4 GLC5        0.0000 
      8 CA        -15.3990   -1.3970   10.2500 C.3      12 GLL5        0.0000 
      9 CA        -12.9690   -5.0850   10.4850 C.3       8 GLP5        0.0000 
     10 CA        -16.3375   -1.7575   11.8085 C.3       4 GLC5        0.0000 
     11 CA        -17.2760   -2.1180   13.3670 C.3       8 GLP5        0.0000 
     12 CA         -5.8300   -1.4880   11.4710 C.3       4 GLC5        0.0000 
     13 CA         -5.6830   -1.1200    9.2950 C.3      12 GLL5        0.0000 
     14 CA         -5.9770   -1.8560   13.6470 C.3       8 GLP5        0.0000 
     15 CA         -1.2615    4.0870   10.5115 C.3       4 GLC5        0.0000 
     16 CA         -3.0870    4.0800    9.7990 C.3      12 GLL5        0.0000 
     17 CA          0.5640    4.0940   11.2240 C.3       8 GLP5        0.0000 
     18 CA          2.2860   11.2115    8.3655 C.3       4 GLC5        0.0000 
     19 CA          1.3950    9.9940    9.7620 C.3      12 GLL5        0.0000 
     20 CA          3.1770   12.4290    6.9690 C.3       8 GLP5        0.0000 
     21 O          -7.1360   -2.9350   10.7930 O.2       1 ALC1        0.0000 
     22 O          -7.8130   -1.7110   10.2100 O.2       9 ALL1        0.0000 
     23 O          -6.4590   -4.1590   11.3760 O.2       5 ALP1        0.0000 
     24 O          -5.4675    3.2405    8.2660 O.2       1 ALC1        0.0000 
     25 O          -4.1220    3.2050    9.2610 O.2       9 ALL1        0.0000 
     26 O          -6.8130    3.2760    7.2710 O.2       5 ALP1        0.0000 
     27 O          -5.9415    2.2320    8.0420 O.2       1 ALC1        0.0000 
     28 O          -5.0700    1.1880    8.8130 O.2       9 ALL1        0.0000 
     29 N          -7.9995    1.4260    9.2135 N.am      2 SEC2        0.0000 
     30 N          -7.7020    0.1130    8.8720 N.am     10 SEL2        0.0000 
     31 N          -8.2970    2.7390    9.5550 N.am      6 SEP2        0.0000 
     32 NZ          3.6965   12.6915   10.7885 N.4       3 LYC4        0.0000 
     33 NZ          2.4960   12.0590   10.3560 N.4      11 LYL4        0.0000 
     34 NZ          6.0490   12.6670   11.0310 N.4       7 LYP4        0.0000 
     35 N           1.6940   13.0870    9.3985 N.am      2 SEC2        0.0000 
     36 N           2.4960   12.0590   10.3560 N.am     10 SEL2        0.0000 
     37 N           0.8920   14.1150    8.4410 N.am      6 SEP2        0.0000 
     38 N           3.6965   12.6915   10.7885 N.am      2 SEC2        0.0000 
     39 N           4.8970   13.3240   11.2210 N.am      6 SEP2        0.0000 
     40 NZ          0.2750   12.8500    9.3305 N.4       3 LYC4        0.0000 
     41 NZ         -0.3420   11.5850   10.2200 N.4      11 LYL4        0.0000 
     42 NZ         -0.2870   14.5760    8.1150 N.4       7 LYP4        0.0000 
     43 N          -0.8565   12.7365    9.3375 N.am      2 SEC2        0.0000 
     44 N          -0.3420   11.5850   10.2200 N.am     10 SEL2        0.0000 
     45 N          -1.3710   13.8880    8.4550 N.am      6 SEP2        0.0000 
     46 N           0.2750   12.8500    9.3305 N.am      2 SEC2        0.0000 
     47 N          -1.7180   11.1770   10.0890 N.am      2 SEC2        0.0000 
     48 N          -3.0940   10.7690    9.9580 N.am      6 SEP2        0.0000 
     49 NZ          4.8635   10.8355   10.2360 N.4       3 LYC4        0.0000 
     50 NZ          3.6930   10.1920   10.0610 N.4      11 LYL4        0.0000 
     51 N           4.8635   10.8355   10.2360 N.am      2 SEC2        0.0000 
     52 N           3.6930   10.1920   10.0610 N.am     10 SEL2        0.0000 
     53 N           6.0340   11.4790   10.4110 N.am      6 SEP2        0.0000 
     54 N           3.8050    8.9100    9.7695 N.am      2 SEC2        0.0000 
     55 N           3.9170    7.6280    9.4780 N.am      6 SEP2        0.0000 
     56 NZ          0.3935   12.4680    8.2985 N.4       3 LYC4        0.0000 
     57 NZ         -0.1050   10.8210    8.1560 N.4      11 LYL4        0.0000 
     58 N          -0.4905   11.1625    6.9230 N.am      2 SEC2        0.0000 
     59 N          -0.1050   10.8210    8.1560 N.am     10 SEL2        0.0000 
     60 N          -0.8760   11.5040    5.6900 N.am      6 SEP2        0.0000 
     61 N          -0.7380   12.3545    8.3055 N.am      2 SEC2        0.0000 
     62 N           0.3935   12.4680    8.2985 N.am      2 SEC2        0.0000 
     63 CA        -12.9350   -3.1190    9.7285 C.3       4 GLC5        0.0000 
     64 CA        -12.9010   -1.1530    8.9720 C.3      12 GLL5        0.0000 
     65 CA        -13.4135    0.6420    8.5765 C.3       4 GLC5        0.0000 
     66 CA        -13.9260    2.4370    8.1810 C.3       8 GLP5        0.0000 
     67 CA         -1.9155    7.4577   13.3510 C.3       4 GLC5        0.0000 
     68 CA         -2.0860    7.2240   15.3920 C.3       8 GLP5        0.0000 
     69 CA         -2.2085    5.7560    7.9093 C.3       4 GLC5        0.0000 
     70 CA         -1.1750    6.4500    9.2510 C.3      12 GLL5        0.0000 
     71 CA         -2.6830    5.0600    6.1600 C.3       8 GLP5        0.0000 
     72 CA        -10.0907   -1.5553   14.0427 C.3       4 GLC5        0.0000 
     73 CA         -9.5820   -2.0920   11.8140 C.3      12 GLL5        0.0000 
     74 CA         -9.9310   -1.0010   16.0930 C.3       8 GLP5        0.0000 
     75 CA         -9.6208   -3.9493   12.5132 C.3       4 GLC5        0.0000 
     76 CA        -10.9190   -2.1270   12.1710 C.3      12 GLL5        0.0000 
     77 CA         -8.9910   -5.7890   13.0340 C.3       8 GLP5        0.0000 
     78 CA        -12.1887   -3.5275   11.0927 C.3       4 GLC5        0.0000 
     79 CA         -9.6848   -0.4143   12.0927 C.3       4 GLC5        0.0000 
     80 CA         -9.1190    1.2810   12.1930 C.3       8 GLP5        0.0000 
     81 CA         -7.6833   -1.8850   12.4087 C.3       4 GLC5        0.0000 
     82 CA         -9.3983   -0.1500   11.1217 C.3       4 GLC5        0.0000 
     83 CA        -10.1580   -1.4260    9.5740 C.3      12 GLL5        0.0000 
     84 CA          1.6935    7.5095   12.0675 C.3       4 GLC5        0.0000 
     85 CA         -0.0910    8.1040   10.6240 C.3      12 GLL5        0.0000 
     86 CA          2.8920    6.4620   13.3680 C.3       8 GLP5        0.0000 
     87 CA        -10.4082   -0.1788   11.3900 C.3       4 GLC5        0.0000 
     88 CA        -11.4970   -1.4640    9.9440 C.3      12 GLL5        0.0000 
     89 CA        -10.9651   -3.3327    9.2621 C.3       4 GLC5        0.0000 
     90 CA         -9.1970   -1.7360   10.5270 C.3      12 GLL5        0.0000 
     91 CA        -11.3430   -5.1430    8.5270 C.3       8 GLP5        0.0000 
     92 CA        -11.8954   -0.3430   12.2076 C.3       4 GLC5        0.0000 
     93 CA        -12.3380    1.0310   13.5930 C.3       8 GLP5        0.0000 
     94 CA         -2.9812    4.9358    7.9707 C.3       4 GLC5        0.0000 
     95 CA         -3.4890   -1.3548    9.3447 C.3       4 GLC5        0.0000 
     96 CA         -5.0150   -0.1790    8.3260 C.3      12 GLL5        0.0000 
     97 CA         -1.6290   -2.0600    9.8790 C.3       8 GLP5        0.0000 
     98 CA         -0.3135    5.6856   10.7851 C.3       4 GLC5        0.0000 
     99 CA         -2.2930    6.4540   10.0660 C.3      12 GLL5        0.0000 
@<TRIPOS>BOND
@<TRIPOS>SUBSTRUCTURE
     1 ALC1       21 GROUP        1 X    ALC  0     ROOT ALC X 1
     2 SEC2       29 GROUP        1 X    SEC  0     **** SEC X 2
     3 LYC4       32 GROUP        1 X    LYC  0     **** LYC X 4
     4 GLC5        1 GROUP        1 X    GLC  0     **** GLC X 6
     5 ALP1       23 GROUP        1 Y    ALP  0     ROOT ALP Y 8
     6 SEP2       31 GROUP        1 Y    SEP  0     **** SEP Y 9
     7 LYP4       34 GROUP        1 Y    LYP  0     **** LYP Y 11
     8 GLP5        3 GROUP        1 Y    GLP  0     **** GLP Y 13
     9 ALL1       22 GROUP        1 Z    ALL  0     ROOT ALL Z 15
    10 SEL2       30 GROUP        1 Z    SEL  0     **** SEL Z 16
    11 LYL4       33 GROUP        1 Z    LYL  0     **** LYL Z 18
    12 GLL5        2 GROUP        1 Z    GLL  0     **** GLL Z 20
@<TRIPOS>SET

