#    Name: 4ajn_88V_2_ligand
#    Modification time : Tue Mar 25 05:37:53 2014

@<TRIPOS>MOLECULE
4ajn_88V_2_ligand
   59    61     1     0     0
SMALL
NO_CHARGES


@<TRIPOS>ATOM
      1 C23        -2.2880    7.2870   11.1710 C.ar      1 88V1333     0.0000 
      2 C27        -1.1750    6.4500    9.2510 C.ar      1 88V1333     0.0000 
      3 C24        -1.2020    8.0960   11.4490 C.ar      1 88V1333     0.0000 
      4 C26        -0.0950    7.2690    9.5190 C.ar      1 88V1333     0.0000 
      5 C5        -10.9190   -2.1270   12.1710 C.ar      1 88V1333     0.0000 
      6 C6         -9.5820   -2.0920   11.8140 C.ar      1 88V1333     0.0000 
      7 C8        -10.1580   -1.4260    9.5740 C.ar      1 88V1333     0.0000 
      8 C22        -2.2930    6.4540   10.0660 C.ar      1 88V1333     0.0000 
      9 C25        -0.0910    8.1040   10.6240 C.ar      1 88V1333     0.0000 
     10 C4        -11.8980   -1.8130   11.2300 C.ar      1 88V1333     0.0000 
     11 C7         -9.1970   -1.7360   10.5270 C.ar      1 88V1333     0.0000 
     12 C9        -11.4970   -1.4640    9.9440 C.ar      1 88V1333     0.0000 
     13 C2        -13.9110   -1.4810   10.3400 C.2       1 88V1333     0.0000 
     14 C12        -7.1620   -0.8400    9.4270 C.2       1 88V1333     0.0000 
     15 C30         2.5850   10.8700   10.0890 C.2       1 88V1333     0.0000 
     16 C33         0.2170   10.8710    9.4090 C.2       1 88V1333     0.0000 
     17 C17        -3.9590    1.8700    9.1700 C.2       1 88V1333     0.0000 
     18 C1        -15.3990   -1.3970   10.2500 C.3       1 88V1333     0.0000 
     19 C21        -3.4720    5.5430    9.7640 C.3       1 88V1333     0.0000 
     20 C28         1.0810    9.0100   10.9100 C.3       1 88V1333     0.0000 
     21 C14        -5.6830   -1.1200    9.2950 C.3       1 88V1333     0.0000 
     22 C20        -3.0870    4.0800    9.7990 C.3       1 88V1333     0.0000 
     23 C15        -5.0150   -0.1790    8.3260 C.3       1 88V1333     0.0000 
     24 C29         1.3950    9.9940    9.7620 C.3       1 88V1333     0.0000 
     25 N3        -13.2790   -1.8080   11.4390 N.2       1 88V1333     0.0000 
     26 N11        -7.8130   -1.7110   10.2100 N.am      1 88V1333     0.0000 
     27 N19        -4.1220    3.2050    9.2610 N.am      1 88V1333     0.0000 
     28 N16        -5.0700    1.1880    8.8130 N.am      1 88V1333     0.0000 
     29 O13        -7.7020    0.1130    8.8720 O.2       1 88V1333     0.0000 
     30 O31         2.4960   12.0590   10.3560 O.co2     1 88V1333     0.0000 
     31 O34        -0.3420   11.5850   10.2200 O.co2     1 88V1333     0.0000 
     32 O18        -2.8970    1.3100    9.4350 O.2       1 88V1333     0.0000 
     33 O32         3.6930   10.1920   10.0610 O.co2     1 88V1333     0.0000 
     34 O35        -0.1050   10.8210    8.1560 O.co2     1 88V1333     0.0000 
     35 S10       -12.9010   -1.1530    8.9720 S.3       1 88V1333     0.0000 
     36 H          -3.1130    7.3042   11.8007 H         1 88V1333     0.0000 
     37 H          -1.1480    5.8213    8.4252 H         1 88V1333     0.0000 
     38 H          -1.2196    8.7060   12.2879 H         1 88V1333     0.0000 
     39 H           0.7255    7.2595    8.8843 H         1 88V1333     0.0000 
     40 H         -11.1938   -2.3838   13.1279 H         1 88V1333     0.0000 
     41 H          -8.8575   -2.3338   12.5132 H         1 88V1333     0.0000 
     42 H          -9.8880   -1.1761    8.6240 H         1 88V1333     0.0000 
     43 H          -3.8710    5.7901    8.7725 H         1 88V1333     0.0000 
     44 H          -4.2651    5.7277   10.4990 H         1 88V1333     0.0000 
     45 H           1.9801    8.4040   11.1008 H         1 88V1333     0.0000 
     46 H           0.8837    9.5949   11.8217 H         1 88V1333     0.0000 
     47 H          -5.5402   -2.1542    8.9553 H         1 88V1333     0.0000 
     48 H          -5.2082   -1.0254   10.2803 H         1 88V1333     0.0000 
     49 H          -2.8568    3.8071   10.8475 H         1 88V1333     0.0000 
     50 H          -2.1433    3.9562    9.2324 H         1 88V1333     0.0000 
     51 H          -5.5174   -0.2657    7.3516 H         1 88V1333     0.0000 
     52 H          -3.9728   -0.5014    8.1876 H         1 88V1333     0.0000 
     53 H           1.6533    9.3997    8.8754 H         1 88V1333     0.0000 
     54 H          -7.2355   -2.5090   10.6741 H         1 88V1333     0.0000 
     55 H          -4.9989    3.6716    8.9493 H         1 88V1333     0.0000 
     56 H          -6.0155    1.6190    8.8736 H         1 88V1333     0.0000 
     57 H         -15.7015   -1.1378    9.3328 H         1 88V1333     0.0000 
     58 H         -15.8341   -2.2711   10.4660 H         1 88V1333     0.0000 
     59 H         -15.7718   -0.7195   10.8840 H         1 88V1333     0.0000 
@<TRIPOS>BOND
     1    3    1 ar   
     2    8    1 ar   
     3   36    1 1    
     4    4    2 ar   
     5    8    2 ar   
     6   37    2 1    
     7    9    3 ar   
     8   38    3 1    
     9    9    4 ar   
    10   39    4 1    
    11    6    5 ar   
    12   10    5 ar   
    13   40    5 1    
    14   11    6 ar   
    15   41    6 1    
    16   11    7 ar   
    17   12    7 ar   
    18   42    7 1    
    19   19    8 1    
    20   20    9 1    
    21   12   10 ar   
    22   25   10 1    
    23   26   11 1    
    24   35   12 1    
    25   18   13 1    
    26   25   13 2    
    27   35   13 1    
    28   21   14 1    
    29   26   14 am   
    30   29   14 2    
    31   24   15 1    
    32   30   15 ar   
    33   33   15 ar   
    34   24   16 1    
    35   31   16 ar   
    36   34   16 ar   
    37   27   17 am   
    38   28   17 am   
    39   32   17 2    
    40   57   18 1    
    41   58   18 1    
    42   59   18 1    
    43   22   19 1    
    44   43   19 1    
    45   44   19 1    
    46   24   20 1    
    47   45   20 1    
    48   46   20 1    
    49   23   21 1    
    50   47   21 1    
    51   48   21 1    
    52   27   22 1    
    53   49   22 1    
    54   50   22 1    
    55   28   23 1    
    56   51   23 1    
    57   52   23 1    
    58   53   24 1    
    59   54   26 1    
    60   55   27 1    
    61   56   28 1    
@<TRIPOS>SUBSTRUCTURE
     1 88V1333     1 GROUP   
@<TRIPOS>SET

