#    Name: 1AKW_1_CAVITY_N1_ALL.mol2
#    Modification time : Mon Mar 10 13:20:54 2014

@<TRIPOS>MOLECULE
1AKW_1_CAVITY_N1_ALL.mol2
   89     0     6     0     0
SMALL
NO_CHARGES


@<TRIPOS>ATOM
      1 CA         -5.7170   40.4641   26.4237 C.3       5 GLY6        0.0000 
      2 CA         -5.6885   39.2735   27.3356 C.3       5 GLY6        0.0000 
      3 O          -6.2726   39.6086   25.3240 O.2       2 ALA2        0.0000 
      4 CA         -6.2442   38.4179   26.2359 C.3       5 GLY6        0.0000 
      5 CA         -6.2157   37.2273   27.1478 C.3       5 GLY6        0.0000 
      6 OG         -9.6350   35.6660   17.8140 O.2       1 SER1        0.0000 
      7 CZ         -4.2955   38.9565   26.8783 C.ar      4 PHE5        0.0000 
      8 N          -4.2386   36.5752   28.7021 N.2       2 ALA2        0.0000 
      9 O          -4.8796   39.2916   24.8667 O.2       2 ALA2        0.0000 
     10 CA         -4.8512   38.1010   25.7786 C.3       5 GLY6        0.0000 
     11 CA         -4.8227   36.9103   26.6905 C.3       5 GLY6        0.0000 
     12 CZ         -5.4353   38.4361   23.7670 C.ar      4 PHE5        0.0000 
     13 CA         -5.4068   37.2454   24.6789 C.3       5 GLY6        0.0000 
     14 CZ         -7.0738   34.6788   21.3799 C.ar      4 PHE5        0.0000 
     15 CA         -7.0454   33.4882   22.2918 C.3       5 GLY6        0.0000 
     16 CZ         -7.6579   35.0140   19.3683 C.ar      4 PHE5        0.0000 
     17 OG         -7.6295   33.8233   20.2802 O.2       1 SER1        0.0000 
     18 CZ         -7.6010   32.6327   21.1921 C.ar      4 PHE5        0.0000 
     19 CZ         -7.5726   31.4421   22.1040 C.ar      4 PHE5        0.0000 
     20 CZ         -8.2420   35.3491   17.3567 C.ar      4 PHE5        0.0000 
     21 OG         -8.2136   34.1584   18.2686 O.2       1 SER1        0.0000 
     22 CZ         -8.1851   32.9678   19.1805 C.ar      4 PHE5        0.0000 
     23 DU         -8.7977   34.4935   16.2570 H         6 CUB7        0.0000 
     24 CZ         -3.4582   37.7840   25.3214 C.ar      4 PHE5        0.0000 
     25 CZ         -3.4297   36.5934   26.2333 C.ar      4 PHE5        0.0000 
     26 CA         -4.0423   38.1191   23.3098 C.3       5 GLY6        0.0000 
     27 CA         -4.0138   36.9285   24.2217 C.3       5 GLY6        0.0000 
     28 CA         -4.5979   37.2636   22.2101 C.3       5 GLY6        0.0000 
     29 CA         -4.5695   36.0730   23.1220 C.3       5 GLY6        0.0000 
     30 CZ         -5.1536   36.4081   21.1104 C.ar      4 PHE5        0.0000 
     31 O          -5.1252   35.2174   22.0223 O.2       2 ALA2        0.0000 
     32 CZ         -5.7093   35.5525   20.0107 C.ar      4 PHE5        0.0000 
     33 O          -5.6808   34.3619   20.9226 O.2       2 ALA2        0.0000 
     34 CZ         -6.2934   35.8876   17.9991 C.ar      4 PHE5        0.0000 
     35 N          -6.2649   34.6970   18.9110 N.2       2 ALA2        0.0000 
     36 N          -6.2365   33.5064   19.8229 N.2       2 ALA2        0.0000 
     37 CA         -6.2080   32.3157   20.7348 C.3       5 GLY6        0.0000 
     38 CA         -6.8490   35.0321   16.8994 C.3       5 GLY6        0.0000 
     39 N          -6.8206   33.8415   17.8113 N.2       2 ALA2        0.0000 
     40 NZ         -7.4900   37.7485   13.0640 N.2       3 LYS4        0.0000 
     41 NZ         -7.4616   36.5578   13.9759 N.2       3 LYS4        0.0000 
     42 CA         -7.4331   35.3672   14.8878 C.3       5 GLY6        0.0000 
     43 DU         -7.4047   34.1766   15.7997 H         6 CUB7        0.0000 
     44 CZ         -7.3762   32.9859   16.7116 C.ar      4 PHE5        0.0000 
     45 DU         -8.0172   35.7023   12.8762 H         6 CUB7        0.0000 
     46 DU         -7.9888   34.5117   13.7881 H         6 CUB7        0.0000 
     47 DU         -7.9603   33.3210   14.7000 H         6 CUB7        0.0000 
     48 CZ         -7.9319   32.1304   15.6119 C.ar      4 PHE5        0.0000 
     49 CA         -2.6208   36.6115   23.7644 C.3       5 GLY6        0.0000 
     50 N          -3.2050   36.9466   21.7528 N.2       2 ALA2        0.0000 
     51 CA         -3.1765   35.7560   22.6647 C.3       5 GLY6        0.0000 
     52 CA         -3.7891   37.2817   19.7412 C.3       5 GLY6        0.0000 
     53 N          -3.7606   36.0911   20.6531 N.2       2 ALA2        0.0000 
     54 O          -3.7322   34.9005   21.5650 O.2       2 ALA2        0.0000 
     55 O          -4.3447   36.4262   18.6415 O.2       2 ALA2        0.0000 
     56 O          -4.9004   35.5707   17.5418 O.2       2 ALA2        0.0000 
     57 CA         -5.4845   35.9058   15.5302 C.3       5 GLY6        0.0000 
     58 CA         -5.4560   34.7152   16.4421 C.3       5 GLY6        0.0000 
     59 N          -5.4276   33.5245   17.3540 N.2       2 ALA2        0.0000 
     60 N          -6.0686   36.2409   13.5186 N.2       2 ALA2        0.0000 
     61 N          -6.0401   35.0503   14.4305 N.2       2 ALA2        0.0000 
     62 DU         -6.0117   33.8596   15.3424 H         6 CUB7        0.0000 
     63 CZ         -5.9832   32.6690   16.2543 C.ar      4 PHE5        0.0000 
     64 CA         -6.6527   36.5760   11.5070 C.3       5 GLY6        0.0000 
     65 N          -6.6242   35.3854   12.4189 N.2       2 ALA2        0.0000 
     66 O          -6.5958   34.1947   13.3308 O.2       2 ALA2        0.0000 
     67 DU         -6.5673   33.0041   14.2427 H         6 CUB7        0.0000 
     68 CZ         -6.5389   31.8135   15.1547 C.ar      4 PHE5        0.0000 
     69 N          -7.2083   35.7205   10.4073 N.2       2 ALA2        0.0000 
     70 O          -7.1799   34.5298   11.3192 O.2       2 ALA2        0.0000 
     71 O          -7.1514   33.3392   12.2311 O.2       2 ALA2        0.0000 
     72 OG         -7.1230   32.1486   13.1431 O.2       1 SER1        0.0000 
     73 OG         -7.0946   30.9579   14.0550 O.2       1 SER1        0.0000 
     74 CA         -4.0630   34.3982   15.9848 C.3       5 GLY6        0.0000 
     75 N          -4.6471   34.7333   13.9732 N.2       2 ALA2        0.0000 
     76 CA         -4.6187   33.5427   14.8852 C.3       5 GLY6        0.0000 
     77 CZ         -4.5902   32.3520   15.7971 C.ar      4 PHE5        0.0000 
     78 N          -5.2312   35.0684   11.9616 N.2       2 ALA2        0.0000 
     79 O          -5.2028   33.8778   12.8736 O.2       2 ALA2        0.0000 
     80 O          -5.1743   32.6871   13.7855 O.2       2 ALA2        0.0000 
     81 CZ         -5.1459   31.4965   14.6974 C.ar      4 PHE5        0.0000 
     82 O          -5.7300   31.8316   12.6858 O.2       2 ALA2        0.0000 
     83 OG         -5.7016   30.6410   13.5977 O.2       1 SER1        0.0000 
     84 N          -3.2257   33.2257   14.4279 N.2       2 ALA2        0.0000 
     85 CA         -3.8098   33.5608   12.4163 C.3       5 GLY6        0.0000 
     86 CA         -3.7813   32.3702   13.3282 C.3       5 GLY6        0.0000 
     87 CA         -3.7529   31.1795   14.2401 C.3       5 GLY6        0.0000 
     88 CA         -4.3370   31.5147   12.2285 C.3       5 GLY6        0.0000 
     89 OG         -4.3086   30.3240   13.1404 O.2       1 SER1        0.0000 
@<TRIPOS>BOND
@<TRIPOS>SUBSTRUCTURE
     1 SER1        6 GROUP   
     2 ALA2        3 GROUP   
     3 LYS4       40 GROUP   
     4 PHE5        7 GROUP   
     5 GLY6        1 GROUP   
     6 CUB7       23 GROUP   
@<TRIPOS>SET

