#    Name: 1akw_FMN_1_INTS_M
#    Modification time : Mon Mar 24 18:29:39 2014

@<TRIPOS>MOLECULE
1akw_FMN_1_INTS_M
   71     0     9     0     0
SMALL
NO_CHARGES


@<TRIPOS>ATOM
      1 N          -4.0930   37.3070   17.0630 N.am      2 SEC2        0.0000 
      2 N          -4.2130   36.2990   18.2440 N.am      8 SEL2        0.0000 
      3 N          -3.9730   38.3150   15.8820 N.am      5 SEP2        0.0000 
      4 N          -3.1810   38.0575   17.0870 N.am      2 SEC2        0.0000 
      5 N          -2.3890   37.8000   18.2920 N.am      8 SEL2        0.0000 
      6 N          -1.0055   38.1745   18.3920 N.am      2 SEC2        0.0000 
      7 N           0.3780   38.5490   18.4920 N.am      5 SEP2        0.0000 
      8 O          -2.0545   37.7495   20.8895 O.2       1 ALC1        0.0000 
      9 O          -3.1770   36.9490   20.3410 O.2       7 ALL1        0.0000 
     10 O          -0.9320   38.5500   21.4380 O.2       4 ALP1        0.0000 
     11 N          -5.3330   33.8770   22.2870 N.am      2 SEC2        0.0000 
     12 N          -5.8900   34.5820   21.0130 N.am      8 SEL2        0.0000 
     13 N          -4.7760   33.1720   23.5610 N.am      5 SEP2        0.0000 
     14 CA         -6.9540   34.3915   22.4255 C.3       3 GLC5        0.0000 
     15 CA         -6.9130   33.9520   20.3070 C.3       9 GLL5        0.0000 
     16 CA         -6.9950   34.8310   24.5440 C.3       6 GLP5        0.0000 
     17 CA         -7.8350   33.4005   22.9225 C.3       3 GLC5        0.0000 
     18 CA         -7.8550   33.2420   21.1040 C.3       9 GLL5        0.0000 
     19 CA         -7.8150   33.5590   24.7410 C.3       6 GLP5        0.0000 
     20 CA         -8.2555   30.9635   20.3120 C.3       3 GLC5        0.0000 
     21 CA         -9.9110   31.9230   21.1630 C.3       9 GLL5        0.0000 
     22 CA         -6.6000   30.0040   19.4610 C.3       6 GLP5        0.0000 
     23 CA         -8.8630   32.7410   22.9520 C.3       3 GLC5        0.0000 
     24 CA         -8.7350   31.0045   18.3090 C.3       3 GLC5        0.0000 
     25 CA        -10.0810   32.1400   18.2820 C.3       9 GLL5        0.0000 
     26 CA         -7.3890   29.8690   18.3360 C.3       6 GLP5        0.0000 
     27 CA         -6.1555   36.7535   16.4055 C.3       3 GLC5        0.0000 
     28 CA         -5.9800   34.9500   16.7580 C.3       9 GLL5        0.0000 
     29 CA         -6.3310   38.5570   16.0530 C.3       6 GLP5        0.0000 
     30 CA         -7.0570   36.2430   18.1230 C.3       3 GLC5        0.0000 
     31 CA         -8.1340   37.5360   19.4880 C.3       6 GLP5        0.0000 
     32 O          -3.6350   33.2850   17.9135 O.2       1 ALC1        0.0000 
     33 O          -3.9360   33.6090   16.5550 O.2       7 ALL1        0.0000 
     34 O          -3.3340   32.9610   19.2720 O.2       4 ALP1        0.0000 
     35 CA         -2.7670   33.4530   12.8330 C.3       3 GLC5        0.0000 
     36 CA         -4.4430   33.0190   13.8050 C.3       9 GLL5        0.0000 
     37 CA         -1.0910   33.8870   11.8610 C.3       6 GLP5        0.0000 
     38 N          -5.1965   32.8890   11.1805 N.am      2 SEC2        0.0000 
     39 N          -4.5980   33.3770   12.4100 N.am      8 SEL2        0.0000 
     40 N          -5.7950   32.4010    9.9510 N.am      5 SEP2        0.0000 
     41 CA         -5.0065   30.4040   15.4805 C.3       3 GLC5        0.0000 
     42 CA         -4.5060   31.5910   13.9900 C.3       9 GLL5        0.0000 
     43 CA         -5.5070   29.2170   16.9710 C.3       6 GLP5        0.0000 
     44 N          -3.3785   27.1450   14.0625 N.am      2 SEC2        0.0000 
     45 N          -3.4330   28.5040   14.2550 N.am      8 SEL2        0.0000 
     46 N          -3.3240   25.7860   13.8700 N.am      5 SEP2        0.0000 
     47 N          -4.5900   27.5295   13.4310 N.am      2 SEC2        0.0000 
     48 N          -5.7470   26.5550   12.6070 N.am      5 SEP2        0.0000 
     49 N          -2.5075   28.9440   15.0695 N.am      2 SEC2        0.0000 
     50 N          -1.5820   29.3840   15.8840 N.am      5 SEP2        0.0000 
     51 N          -1.8205   27.9730   11.5295 N.am      2 SEC2        0.0000 
     52 N          -1.8710   29.1220   12.0910 N.am      8 SEL2        0.0000 
     53 N          -1.7700   26.8240   10.9680 N.am      5 SEP2        0.0000 
     54 N          -1.3810   29.5155   10.9625 N.am      2 SEC2        0.0000 
     55 N          -0.8910   29.9090    9.8340 N.am      5 SEP2        0.0000 
     56 N          -0.7225   29.8820   12.1455 N.am      2 SEC2        0.0000 
     57 N           0.4260   30.6420   12.2000 N.am      5 SEP2        0.0000 
     58 N          -5.1315   27.7670   12.1975 N.am      2 SEC2        0.0000 
     59 N          -4.5160   28.9790   11.7880 N.am      8 SEL2        0.0000 
     60 N          -5.7955   29.0895   11.6705 N.am      2 SEC2        0.0000 
     61 N          -7.0750   29.2000   11.5530 N.am      5 SEP2        0.0000 
     62 N          -4.0325   29.0450   10.4355 N.am      2 SEC2        0.0000 
     63 N          -3.5490   29.1110    9.0830 N.am      5 SEP2        0.0000 
     64 CA         -5.6520   32.6595   21.2227 C.3       3 GLC5        0.0000 
     65 CA         -3.9200   31.7220   21.7400 C.3       6 GLP5        0.0000 
     66 CA         -4.0533   35.4355   15.8615 C.3       3 GLC5        0.0000 
     67 CA         -2.4560   36.5500   15.2670 C.3       6 GLP5        0.0000 
     68 CA         -3.6890   34.9797   14.7372 C.3       3 GLC5        0.0000 
     69 CA         -5.4010   33.8000   14.6100 C.3       9 GLL5        0.0000 
     70 CA         -2.9107   31.5270   14.7688 C.3       3 GLC5        0.0000 
     71 CA         -1.3470   30.7490   15.6400 C.3       6 GLP5        0.0000 
@<TRIPOS>BOND
@<TRIPOS>SUBSTRUCTURE
     1 ALC1        8 GROUP        1 X    ALC  0     ROOT ALC X 1
     2 SEC2        1 GROUP        1 X    SEC  0     **** SEC X 2
     3 GLC5       14 GROUP        1 X    GLC  0     **** GLC X 6
     4 ALP1       10 GROUP        1 Y    ALP  0     ROOT ALP Y 8
     5 SEP2        3 GROUP        1 Y    SEP  0     **** SEP Y 9
     6 GLP5       16 GROUP        1 Y    GLP  0     **** GLP Y 13
     7 ALL1        9 GROUP        1 Z    ALL  0     ROOT ALL Z 15
     8 SEL2        2 GROUP        1 Z    SEL  0     **** SEL Z 16
     9 GLL5       15 GROUP        1 Z    GLL  0     **** GLL Z 20
@<TRIPOS>SET

