#    Name: 1akw_FMN_1_ligand
#    Modification time : Mon Mar 24 18:29:39 2014

@<TRIPOS>MOLECULE
1akw_FMN_1_ligand
   50    52     1     0     0
SMALL
NO_CHARGES


@<TRIPOS>ATOM
      1 N1         -4.2130   36.2990   18.2440 N.2       1 FMN149      0.0000 
      2 C2         -3.2510   36.9960   18.9590 C.2       1 FMN149      0.0000 
      3 O2         -2.3890   37.8000   18.2920 O.2       1 FMN149      0.0000 
      4 N3         -3.1770   36.9490   20.3410 N.am      1 FMN149      0.0000 
      5 C4         -4.0500   36.1500   21.0580 C.2       1 FMN149      0.0000 
      6 O4         -3.8830   36.1220   22.4230 O.2       1 FMN149      0.0000 
      7 C4A        -5.0310   35.4060   20.3250 C.2       1 FMN149      0.0000 
      8 N5         -5.8900   34.5820   21.0130 N.2       1 FMN149      0.0000 
      9 C5A        -6.9130   33.9520   20.3070 C.ar      1 FMN149      0.0000 
     10 C6         -7.8550   33.2420   21.1040 C.ar      1 FMN149      0.0000 
     11 C7         -8.9200   32.6470   20.4080 C.ar      1 FMN149      0.0000 
     12 C7M        -9.9110   31.9230   21.1630 C.3       1 FMN149      0.0000 
     13 C8         -9.0110   32.7570   19.0140 C.ar      1 FMN149      0.0000 
     14 C8M       -10.0810   32.1400   18.2820 C.3       1 FMN149      0.0000 
     15 C9         -8.0570   33.4550   18.2480 C.ar      1 FMN149      0.0000 
     16 C9A        -6.9690   34.0750   18.9150 C.ar      1 FMN149      0.0000 
     17 N10        -6.0340   34.7810   18.1620 N.pl3     1 FMN149      0.0000 
     18 C10        -5.1070   35.4870   18.9180 C.2       1 FMN149      0.0000 
     19 C1'        -5.9800   34.9500   16.7580 C.3       1 FMN149      0.0000 
     20 C2'        -5.3210   33.6920   16.1540 C.3       1 FMN149      0.0000 
     21 O2'        -3.9360   33.6090   16.5550 O.3       1 FMN149      0.0000 
     22 C3'        -5.4010   33.8000   14.6100 C.3       1 FMN149      0.0000 
     23 O3'        -6.7470   33.4530   14.2750 O.3       1 FMN149      0.0000 
     24 C4'        -4.4430   33.0190   13.8050 C.3       1 FMN149      0.0000 
     25 O4'        -4.5980   33.3770   12.4100 O.3       1 FMN149      0.0000 
     26 C5'        -4.5060   31.5910   13.9900 C.3       1 FMN149      0.0000 
     27 O5'        -3.4330   31.0060   13.2410 O.3       1 FMN149      0.0000 
     28 P          -3.3280   29.3950   12.8670 P.3       1 FMN149      0.0000 
     29 O1P        -3.4330   28.5040   14.2550 O.co2     1 FMN149      0.0000 
     30 O2P        -1.8710   29.1220   12.0910 O.co2     1 FMN149      0.0000 
     31 O3P        -4.5160   28.9790   11.7880 O.co2     1 FMN149      0.0000 
     32 H          -2.4686   37.5116   20.8371 H         1 FMN149      0.0000 
     33 H          -7.7571   33.1770   22.0881 H         1 FMN149      0.0000 
     34 H          -8.1417   33.5157   17.2420 H         1 FMN149      0.0000 
     35 H          -5.3752   35.8063   16.4636 H         1 FMN149      0.0000 
     36 H          -6.9682   35.0452   16.3107 H         1 FMN149      0.0000 
     37 H          -5.8801   32.8371   16.4558 H         1 FMN149      0.0000 
     38 H          -5.2751   34.8842   14.3797 H         1 FMN149      0.0000 
     39 H          -3.4131   33.3659   14.1082 H         1 FMN149      0.0000 
     40 H          -5.4718   31.2069   13.6408 H         1 FMN149      0.0000 
     41 H          -4.4112   31.3432   15.0538 H         1 FMN149      0.0000 
     42 H          -9.5088   31.1584   21.6666 H         1 FMN149      0.0000 
     43 H         -10.3674   32.5078   21.8336 H         1 FMN149      0.0000 
     44 H         -10.6231   31.5429   20.5727 H         1 FMN149      0.0000 
     45 H         -10.0031   32.3068   17.2991 H         1 FMN149      0.0000 
     46 H         -10.0957   31.1484   18.4108 H         1 FMN149      0.0000 
     47 H         -10.9746   32.4860   18.5681 H         1 FMN149      0.0000 
     48 H          -3.9618   33.4181   17.5363 H         1 FMN149      0.0000 
     49 H          -6.9905   34.0611   13.5194 H         1 FMN149      0.0000 
     50 H          -3.7081   33.1890   11.9943 H         1 FMN149      0.0000 
@<TRIPOS>BOND
     1    2    1 1    
     2   18    1 2    
     3    3    2 2    
     4    4    2 am   
     5    5    4 am   
     6   32    4 1    
     7    6    5 2    
     8    7    5 1    
     9    8    7 2    
    10   18    7 1    
    11    9    8 1    
    12   10    9 ar   
    13   16    9 ar   
    14   11   10 ar   
    15   33   10 1    
    16   12   11 1    
    17   13   11 ar   
    18   42   12 1    
    19   43   12 1    
    20   44   12 1    
    21   14   13 1    
    22   15   13 ar   
    23   45   14 1    
    24   46   14 1    
    25   47   14 1    
    26   16   15 ar   
    27   34   15 1    
    28   17   16 1    
    29   18   17 1    
    30   19   17 1    
    31   20   19 1    
    32   35   19 1    
    33   36   19 1    
    34   21   20 1    
    35   22   20 1    
    36   37   20 1    
    37   48   21 1    
    38   23   22 1    
    39   24   22 1    
    40   38   22 1    
    41   49   23 1    
    42   25   24 1    
    43   26   24 1    
    44   39   24 1    
    45   50   25 1    
    46   27   26 1    
    47   40   26 1    
    48   41   26 1    
    49   28   27 1    
    50   29   28 ar   
    51   30   28 ar   
    52   31   28 ar   
@<TRIPOS>SUBSTRUCTURE
     1 FMN149      1 GROUP   
@<TRIPOS>SET

