#    Name: 1c1b_GCA_1_INTS_M
#    Modification time : Mon Mar 24 20:06:48 2014

@<TRIPOS>MOLECULE
1c1b_GCA_1_INTS_M
   71     0     6     0     0
SMALL
NO_CHARGES


@<TRIPOS>ATOM
      1 CA         -2.4060  -31.6625   27.8050 C.3       2 GLC5        0.0000 
      2 CA         -1.6340  -33.5770   28.6310 C.3       6 GLL5        0.0000 
      3 CA         -3.1780  -29.7480   26.9790 C.3       4 GLP5        0.0000 
      4 CA          4.0075  -31.6775   26.4560 C.3       2 GLC5        0.0000 
      5 CA          2.1610  -32.1470   27.1670 C.3       6 GLL5        0.0000 
      6 CA          5.8540  -31.2080   25.7450 C.3       4 GLP5        0.0000 
      7 CA          2.0850  -32.6025   25.2165 C.3       2 GLC5        0.0000 
      8 CA          2.0090  -33.0580   23.2660 C.3       4 GLP5        0.0000 
      9 CA          2.9960  -33.2240   28.6285 C.3       2 GLC5        0.0000 
     10 CA          3.8310  -34.3010   30.0900 C.3       4 GLP5        0.0000 
     11 CA          2.8890  -30.6800   28.0000 C.3       2 GLC5        0.0000 
     12 CA          3.6170  -29.2130   28.8330 C.3       4 GLP5        0.0000 
     13 CA         -1.9405  -33.6530   31.2790 C.3       2 GLC5        0.0000 
     14 CA         -1.4860  -32.0490   30.6190 C.3       6 GLL5        0.0000 
     15 CA         -2.3950  -35.2570   31.9390 C.3       4 GLP5        0.0000 
     16 CA         -3.3685  -31.6910   30.5780 C.3       2 GLC5        0.0000 
     17 CA         -5.2510  -31.3330   30.5370 C.3       4 GLP5        0.0000 
     18 CA         -0.6380  -30.4620   30.9130 C.3       2 GLC5        0.0000 
     19 CA          0.2100  -28.8750   31.2070 C.3       4 GLP5        0.0000 
     20 CA         -3.2720  -36.5300   27.1180 C.3       2 GLC5        0.0000 
     21 CA         -1.8510  -35.2170   26.7160 C.3       6 GLL5        0.0000 
     22 CA         -4.6930  -37.8430   27.5200 C.3       4 GLP5        0.0000 
     23 CA         -0.9705  -33.5510   24.4875 C.3       2 GLC5        0.0000 
     24 CA         -1.8490  -35.2980   25.1760 C.3       6 GLL5        0.0000 
     25 CA         -0.0920  -31.8040   23.7990 C.3       4 GLP5        0.0000 
     26 CA         -2.1275  -37.3760   22.8425 C.3       2 GLC5        0.0000 
     27 CA         -1.0640  -36.2410   24.4640 C.3       6 GLL5        0.0000 
     28 CA         -3.1910  -38.5110   21.2210 C.3       4 GLP5        0.0000 
     29 CA         -2.7675  -38.1050   26.7505 C.3       2 GLC5        0.0000 
     30 CA         -0.8420  -38.3670   25.9810 C.3       6 GLL5        0.0000 
     31 CA         -0.7475  -38.1040   27.8570 C.3       2 GLC5        0.0000 
     32 CA         -0.6530  -37.8410   29.7330 C.3       4 GLP5        0.0000 
     33 CA         -1.1695  -40.3060   27.0380 C.3       2 GLC5        0.0000 
     34 CA         -1.4970  -42.2450   28.0950 C.3       4 GLP5        0.0000 
     35 CA         -1.8925  -39.9190   25.3320 C.3       2 GLC5        0.0000 
     36 CA         -2.9430  -41.4710   24.6830 C.3       4 GLP5        0.0000 
     37 CA          1.5815  -34.9140   24.4490 C.3       2 GLC5        0.0000 
     38 CA          1.1540  -36.7700   25.6320 C.3       6 GLL5        0.0000 
     39 CA          2.2475  -37.1410   26.8515 C.3       2 GLC5        0.0000 
     40 CA          3.3410  -37.5120   28.0710 C.3       4 GLP5        0.0000 
     41 O          -2.0165  -35.5390   20.9555 O.2       1 ALC1        0.0000 
     42 O          -2.0030  -35.3520   22.4160 O.2       5 ALL1        0.0000 
     43 O          -2.0300  -35.7260   19.4950 O.2       3 ALP1        0.0000 
     44 CA         -1.7895  -32.5555   24.4705 C.3       2 GLC5        0.0000 
     45 CA         -3.4870  -33.3070   25.1420 C.3       6 GLL5        0.0000 
     46 CA         -4.0825  -31.6895   26.0830 C.3       2 GLC5        0.0000 
     47 CA         -4.6780  -30.0720   27.0240 C.3       4 GLP5        0.0000 
     48 CA         -5.7860  -33.3840   27.0660 C.3       2 GLC5        0.0000 
     49 CA         -5.8530  -33.3800   24.9530 C.3       6 GLL5        0.0000 
     50 CA         -5.7190  -33.3880   29.1790 C.3       4 GLP5        0.0000 
     51 CA         -5.2655  -31.7260   25.9885 C.3       2 GLC5        0.0000 
     52 CA         -8.3795  -34.6665   26.9285 C.3       2 GLC5        0.0000 
     53 CA         -7.1000  -34.1060   25.4230 C.3       6 GLL5        0.0000 
     54 CA         -9.6590  -35.2270   28.4340 C.3       4 GLP5        0.0000 
     55 CA         -6.5930  -34.4100   27.2455 C.3       2 GLC5        0.0000 
     56 CA         -6.0860  -34.7140   29.0680 C.3       4 GLP5        0.0000 
     57 CA         -1.0660  -36.2492   28.4055 C.3       2 GLC5        0.0000 
     58 CA         -1.1070  -34.0980   27.4400 C.3       6 GLL5        0.0000 
     59 CA          0.0396  -32.5282   25.6191 C.3       2 GLC5        0.0000 
     60 CA         -1.9998  -30.6225   29.0762 C.3       2 GLC5        0.0000 
     61 CA         -0.9250  -32.6030   29.3420 C.3       6 GLL5        0.0000 
     62 CA         -2.7940  -28.9190   28.1720 C.3       4 GLP5        0.0000 
     63 CA         -3.2572  -36.7733   24.9390 C.3       2 GLC5        0.0000 
     64 CA         -5.0580  -37.7770   25.0580 C.3       4 GLP5        0.0000 
     65 CA          1.3377  -38.7711   24.5758 C.3       2 GLC5        0.0000 
     66 CA          2.3450  -40.2350   23.5710 C.3       4 GLP5        0.0000 
     67 CA         -5.7672  -35.7600   25.1230 C.3       2 GLC5        0.0000 
     68 CA         -7.6562  -31.9385   24.9445 C.3       2 GLC5        0.0000 
     69 CA         -8.8360  -30.1340   24.7010 C.3       4 GLP5        0.0000 
     70 CA         -7.8298  -33.5375   23.9125 C.3       2 GLC5        0.0000 
     71 CA         -9.1830  -33.3320   22.6370 C.3       4 GLP5        0.0000 
@<TRIPOS>BOND
@<TRIPOS>SUBSTRUCTURE
     1 ALC1       41 GROUP        1 X    ALC  0     ROOT ALC X 1
     2 GLC5        1 GROUP        1 X    GLC  0     **** GLC X 6
     3 ALP1       43 GROUP        1 Y    ALP  0     ROOT ALP Y 8
     4 GLP5        3 GROUP        1 Y    GLP  0     **** GLP Y 13
     5 ALL1       42 GROUP        1 Z    ALL  0     ROOT ALL Z 15
     6 GLL5        2 GROUP        1 Z    GLL  0     **** GLL Z 20
@<TRIPOS>SET

