#    Name: 1c1b_GCA_1_ligand
#    Modification time : Mon Mar 24 20:06:48 2014

@<TRIPOS>MOLECULE
1c1b_GCA_1_ligand
   50    51     1     0     0
SMALL
NO_CHARGES


@<TRIPOS>ATOM
      1 C1         -1.1070  -34.0980   27.4400 C.ar      1 GCA999      0.0000 
      2 C2          0.1280  -33.6220   26.9630 C.ar      1 GCA999      0.0000 
      3 C3          0.8320  -32.6450   27.6770 C.ar      1 GCA999      0.0000 
      4 C4          0.3040  -32.1390   28.8670 C.ar      1 GCA999      0.0000 
      5 C5         -0.9250  -32.6030   29.3420 C.ar      1 GCA999      0.0000 
      6 C6         -1.6340  -33.5770   28.6310 C.ar      1 GCA999      0.0000 
      7 CP          2.1610  -32.1470   27.1670 C.3       1 GCA999      0.0000 
      8 CQ         -1.4860  -32.0490   30.6190 C.3       1 GCA999      0.0000 
      9 CG         -1.8510  -35.2170   26.7160 C.3       1 GCA999      0.0000 
     10 C7         -1.8490  -35.2980   25.1760 C.2       1 GCA999      0.0000 
     11 C12        -1.0640  -36.2410   24.4640 C.2       1 GCA999      0.0000 
     12 CF         -0.1440  -37.3220   25.0770 C.3       1 GCA999      0.0000 
     13 CH         -0.8420  -38.3670   25.9810 C.3       1 GCA999      0.0000 
     14 CI          1.1540  -36.7700   25.6320 C.3       1 GCA999      0.0000 
     15 C11        -1.1340  -36.2710   23.0080 C.2       1 GCA999      0.0000 
     16 O11        -0.4690  -37.0230   22.2980 O.2       1 GCA999      0.0000 
     17 N8         -2.6950  -34.3950   24.4720 N.am      1 GCA999      0.0000 
     18 C9         -2.7970  -34.4190   23.0730 C.2       1 GCA999      0.0000 
     19 O9         -3.5670  -33.6880   22.4490 O.2       1 GCA999      0.0000 
     20 N10        -2.0030  -35.3520   22.4160 N.am      1 GCA999      0.0000 
     21 CA         -3.4870  -33.3070   25.1420 C.3       1 GCA999      0.0000 
     22 OB         -4.7010  -33.7930   25.7060 O.3       1 GCA999      0.0000 
     23 CC         -5.8530  -33.3800   24.9530 C.3       1 GCA999      0.0000 
     24 CD         -7.1000  -34.1060   25.4230 C.3       1 GCA999      0.0000 
     25 H           0.5120  -33.9946   26.0874 H         1 GCA999      0.0000 
     26 H           0.8203  -31.4244   29.3939 H         1 GCA999      0.0000 
     27 H          -2.5383  -33.9109   28.9787 H         1 GCA999      0.0000 
     28 H          -2.9308  -35.2031   27.0573 H         1 GCA999      0.0000 
     29 H          -1.4724  -36.2082   27.1121 H         1 GCA999      0.0000 
     30 H           0.1957  -37.9503   24.1418 H         1 GCA999      0.0000 
     31 H          -2.0623  -35.3697   21.3431 H         1 GCA999      0.0000 
     32 H          -3.6833  -32.5139   24.3914 H         1 GCA999      0.0000 
     33 H          -2.8434  -32.8418   25.9168 H         1 GCA999      0.0000 
     34 H          -5.7230  -33.5867   23.8790 H         1 GCA999      0.0000 
     35 H          -6.0300  -32.2978   25.0556 H         1 GCA999      0.0000 
     36 H           2.5539  -31.4529   27.7703 H         1 GCA999      0.0000 
     37 H           2.8313  -32.8855   27.0943 H         1 GCA999      0.0000 
     38 H           2.0797  -31.7346   26.2596 H         1 GCA999      0.0000 
     39 H          -0.8778  -32.2159   31.3951 H         1 GCA999      0.0000 
     40 H          -1.6272  -31.0605   30.5646 H         1 GCA999      0.0000 
     41 H          -2.3694  -32.4593   30.8454 H         1 GCA999      0.0000 
     42 H          -0.1942  -39.0384   26.3410 H         1 GCA999      0.0000 
     43 H          -1.2880  -37.9392   26.7672 H         1 GCA999      0.0000 
     44 H          -1.5461  -38.8756   25.4854 H         1 GCA999      0.0000 
     45 H           1.7267  -37.4903   26.0233 H         1 GCA999      0.0000 
     46 H           1.6965  -36.3155   24.9255 H         1 GCA999      0.0000 
     47 H           0.9929  -36.0984   26.3552 H         1 GCA999      0.0000 
     48 H          -7.0147  -35.0968   25.3180 H         1 GCA999      0.0000 
     49 H          -7.2912  -33.9290   26.3885 H         1 GCA999      0.0000 
     50 H          -7.9097  -33.8252   24.9076 H         1 GCA999      0.0000 
@<TRIPOS>BOND
     1    2    1 ar   
     2    6    1 ar   
     3    9    1 1    
     4    3    2 ar   
     5   25    2 1    
     6    4    3 ar   
     7    7    3 1    
     8    5    4 ar   
     9   26    4 1    
    10    6    5 ar   
    11    8    5 1    
    12   27    6 1    
    13   36    7 1    
    14   37    7 1    
    15   38    7 1    
    16   39    8 1    
    17   40    8 1    
    18   41    8 1    
    19   10    9 1    
    20   28    9 1    
    21   29    9 1    
    22   11   10 2    
    23   17   10 1    
    24   12   11 1    
    25   15   11 1    
    26   13   12 1    
    27   14   12 1    
    28   30   12 1    
    29   42   13 1    
    30   43   13 1    
    31   44   13 1    
    32   45   14 1    
    33   46   14 1    
    34   47   14 1    
    35   16   15 2    
    36   20   15 1    
    37   18   17 1    
    38   21   17 1    
    39   19   18 2    
    40   20   18 1    
    41   31   20 1    
    42   22   21 1    
    43   32   21 1    
    44   33   21 1    
    45   23   22 1    
    46   24   23 1    
    47   34   23 1    
    48   35   23 1    
    49   48   24 1    
    50   49   24 1    
    51   50   24 1    
@<TRIPOS>SUBSTRUCTURE
     1 GCA999      1 GROUP   
@<TRIPOS>SET

