#    Name: 1zxm_ANP_2_INTS_M
#    Modification time : Mon Mar 24 17:56:24 2014

@<TRIPOS>MOLECULE
1zxm_ANP_2_INTS_M
   77     0    15     0     0
SMALL
NO_CHARGES


@<TRIPOS>ATOM
      1 NZ         60.1030   11.6780   25.5635 N.4       3 LYC4        0.0000 
      2 NZ         60.9950   11.7870   27.1730 N.4      13 LYL4        0.0000 
      3 NZ         59.2110   11.5690   23.9540 N.4       8 LYP4        0.0000 
      4 Zn         61.9660   12.0450   27.0975 Zn        4 ZIC7        0.0000 
      5 Zn         60.9950   11.7870   27.1730 Zn       14 ZIL7        0.0000 
      6 Zn         62.9370   12.3030   27.0220 Zn        9 ZIP7        0.0000 
      7 NZ         58.9430   12.0125   25.1440 N.4       3 LYC4        0.0000 
      8 NZ         58.6750   12.4560   26.3340 N.4      13 LYL4        0.0000 
      9 N          58.5530   13.7860   25.9535 N.am      2 SEC2        0.0000 
     10 N          58.6750   12.4560   26.3340 N.am     12 SEL2        0.0000 
     11 N          58.4310   15.1160   25.5730 N.am      7 SEP2        0.0000 
     12 N          57.6050   13.3365   27.0145 N.am      2 SEC2        0.0000 
     13 N          56.5350   14.2170   27.6950 N.am      7 SEP2        0.0000 
     14 N          58.9430   12.0125   25.1440 N.am      2 SEC2        0.0000 
     15 N          59.2110   11.5690   23.9540 N.am      7 SEP2        0.0000 
     16 N          58.9265   11.6665   30.0675 N.am      2 SEC2        0.0000 
     17 N          58.9900   11.7010   28.7310 N.am     12 SEL2        0.0000 
     18 N          58.8630   11.6320   31.4040 N.am      7 SEP2        0.0000 
     19 N          59.7630   10.6840   29.4465 N.am      2 SEC2        0.0000 
     20 N          60.5360    9.6670   30.1620 N.am      7 SEP2        0.0000 
     21 N          58.5645   10.2785   28.1435 N.am      2 SEC2        0.0000 
     22 N          58.1390    8.8560   27.5560 N.am      7 SEP2        0.0000 
     23 Zn         62.6535   13.2100   27.2705 Zn        4 ZIC7        0.0000 
     24 Zn         62.3700   14.1170   27.5190 Zn       14 ZIL7        0.0000 
     25 N          60.4345   16.9660   29.3610 N.am      2 SEC2        0.0000 
     26 N          61.2080   15.9710   28.7070 N.am     12 SEL2        0.0000 
     27 N          59.6610   17.9610   30.0150 N.am      7 SEP2        0.0000 
     28 N          61.2480   17.1630   27.6470 N.am      2 SEC2        0.0000 
     29 N          61.2880   18.3550   26.5870 N.am      7 SEP2        0.0000 
     30 Zn         63.3010   12.5505   28.2390 Zn        4 ZIC7        0.0000 
     31 Zn         63.6650   12.7980   29.4560 Zn       14 ZIL7        0.0000 
     32 N          64.8895   12.2210   28.8530 N.am      2 SEC2        0.0000 
     33 N          63.6650   12.7980   29.4560 N.am     12 SEL2        0.0000 
     34 N          66.1140   11.6440   28.2500 N.am      7 SEP2        0.0000 
     35 N          63.6325   11.2050   30.1610 N.am      2 SEC2        0.0000 
     36 N          63.6000    9.6120   30.8660 N.am      7 SEP2        0.0000 
     37 NZ         62.2115   12.5550   32.7615 N.4       3 LYC4        0.0000 
     38 NZ         62.3060   12.0380   31.3710 N.4      13 LYL4        0.0000 
     39 NZ         62.1170   13.0720   34.1520 N.4       8 LYP4        0.0000 
     40 N          62.9530   10.8250   31.1185 N.am      2 SEC2        0.0000 
     41 N          62.3060   12.0380   31.3710 N.am     12 SEL2        0.0000 
     42 N          62.2115   12.5550   32.7615 N.am      2 SEC2        0.0000 
     43 N          62.1170   13.0720   34.1520 N.am      7 SEP2        0.0000 
     44 CA         64.7825   15.6760   33.3485 C.3       5 GLC5        0.0000 
     45 CA         64.4410   14.6680   31.5450 C.3      15 GLL5        0.0000 
     46 CA         65.1240   16.6840   35.1520 C.3      10 GLP5        0.0000 
     47 CA         64.9720   12.6730   31.7550 C.3       5 GLC5        0.0000 
     48 CA         65.5030   10.6780   31.9650 C.3      10 GLP5        0.0000 
     49 CA         65.9015   16.9485   32.5130 C.3       5 GLC5        0.0000 
     50 CA         64.8190   16.0680   31.1430 C.3      15 GLL5        0.0000 
     51 CA         66.9840   17.8290   33.8830 C.3      10 GLP5        0.0000 
     52 N          62.2680   18.5760   30.3895 N.am      2 SEC2        0.0000 
     53 N          63.1280   17.2700   29.8770 N.am     12 SEL2        0.0000 
     54 N          61.4080   19.8820   30.9020 N.am      7 SEP2        0.0000 
     55 N          64.3285   19.8610   29.5145 N.am      2 SEC2        0.0000 
     56 N          65.2140   19.0100   30.0110 N.am     12 SEL2        0.0000 
     57 N          63.4430   20.7120   29.0180 N.am      7 SEP2        0.0000 
     58 CA         68.6830   17.1740   31.3890 C.3       5 GLC5        0.0000 
     59 CA         66.7420   17.1500   30.4720 C.3      15 GLL5        0.0000 
     60 CA         70.6240   17.1980   32.3060 C.3      10 GLP5        0.0000 
     61 CA         66.8630   17.4895   32.1775 C.3       5 GLC5        0.0000 
     62 CA         68.4405   14.1025   27.4315 C.3       5 GLC5        0.0000 
     63 CA         69.5170   15.6890   28.4950 C.3      15 GLL5        0.0000 
     64 CA         67.3640   12.5160   26.3680 C.3      10 GLP5        0.0000 
     65 CA         72.2170   15.1685   28.9325 C.3       5 GLC5        0.0000 
     66 CA         70.6980   15.8320   27.7890 C.3      15 GLL5        0.0000 
     67 CA         73.7360   14.5050   30.0760 C.3      10 GLP5        0.0000 
     68 O          72.5625   14.6090   26.5755 O.2       1 ALC1        0.0000 
     69 O          71.2750   14.7550   27.2490 O.2      11 ALL1        0.0000 
     70 O          73.8500   14.4630   25.9020 O.2       6 ALP1        0.0000 
     71 CA         70.7775   18.2400   26.0575 C.3       5 GLC5        0.0000 
     72 CA         70.6430   18.2590   28.2330 C.3      15 GLL5        0.0000 
     73 CA         70.9120   18.2210   23.8820 C.3      10 GLP5        0.0000 
     74 CA         70.7860   18.4270   30.0445 C.3       5 GLC5        0.0000 
     75 CA         70.9290   18.5950   31.8560 C.3      10 GLP5        0.0000 
     76 CA         69.9218   16.7353   30.5420 C.3       5 GLC5        0.0000 
     77 CA         68.9220   16.8560   29.0610 C.3      15 GLL5        0.0000 
@<TRIPOS>BOND
@<TRIPOS>SUBSTRUCTURE
     1 ALC1       68 GROUP        1 X    ALC  0     ROOT ALC X 1
     2 SEC2        9 GROUP        1 X    SEC  0     **** SEC X 2
     3 LYC4        1 GROUP        1 X    LYC  0     **** LYC X 4
     4 ZIC7        4 GROUP        1 X    ZIC  0     **** ZIC X 5
     5 GLC5       44 GROUP        1 X    GLC  0     **** GLC X 6
     6 ALP1       70 GROUP        1 Y    ALP  0     ROOT ALP Y 8
     7 SEP2       11 GROUP        1 Y    SEP  0     **** SEP Y 9
     8 LYP4        3 GROUP        1 Y    LYP  0     **** LYP Y 11
     9 ZIP7        6 GROUP        1 Y    ZIP  0     **** ZIP Y 12
    10 GLP5       46 GROUP        1 Y    GLP  0     **** GLP Y 13
    11 ALL1       69 GROUP        1 Z    ALL  0     ROOT ALL Z 15
    12 SEL2       10 GROUP        1 Z    SEL  0     **** SEL Z 16
    13 LYL4        2 GROUP        1 Z    LYL  0     **** LYL Z 18
    14 ZIL7        5 GROUP        1 Z    ZIL  0     **** ZIL Z 19
    15 GLL5       45 GROUP        1 Z    GLL  0     **** GLL Z 20
@<TRIPOS>SET

