#    Name: 1zxm_ANP_2_ligand
#    Modification time : Mon Mar 24 17:56:24 2014

@<TRIPOS>MOLECULE
1zxm_ANP_2_ligand
   43    45     1     0     0
SMALL
NO_CHARGES


@<TRIPOS>ATOM
      1 PG         59.7210   12.4680   27.5390 P.3       1 ANP902      0.0000 
      2 O1G        60.9950   11.7870   27.1730 O.co2     1 ANP902      0.0000 
      3 O2G        58.6750   12.4560   26.3340 O.co2     1 ANP902      0.0000 
      4 O3G        58.9900   11.7010   28.7310 O.co2     1 ANP902      0.0000 
      5 PB         61.3060   14.5110   28.4760 P.3       1 ANP902      0.0000 
      6 O1B        62.3700   14.1170   27.5190 O.co2     1 ANP902      0.0000 
      7 O2B        61.2080   15.9710   28.7070 O.co2     1 ANP902      0.0000 
      8 N3B        59.8290   14.0550   27.9310 N.4       1 ANP902      0.0000 
      9 PA         62.7070   13.1550   30.5010 P.3       1 ANP902      0.0000 
     10 O1A        63.6650   12.7980   29.4560 O.co2     1 ANP902      0.0000 
     11 O2A        62.3060   12.0380   31.3710 O.co2     1 ANP902      0.0000 
     12 O3A        61.3730   13.7340   29.8690 O.3       1 ANP902      0.0000 
     13 O5'        63.1270   14.3760   31.4870 O.3       1 ANP902      0.0000 
     14 C5'        64.4410   14.6680   31.5450 C.3       1 ANP902      0.0000 
     15 C4'        64.8190   16.0680   31.1430 C.3       1 ANP902      0.0000 
     16 O4'        66.2040   16.0060   31.1250 O.3       1 ANP902      0.0000 
     17 C3'        64.4310   16.6610   29.7990 C.3       1 ANP902      0.0000 
     18 O3'        63.1280   17.2700   29.8770 O.3       1 ANP902      0.0000 
     19 C2'        65.5760   17.6690   29.6050 C.3       1 ANP902      0.0000 
     20 O2'        65.2140   19.0100   30.0110 O.3       1 ANP902      0.0000 
     21 C1'        66.7420   17.1500   30.4720 C.3       1 ANP902      0.0000 
     22 N9         67.8220   16.4390   29.6790 N.pl3     1 ANP902      0.0000 
     23 C8         67.7730   15.0850   29.4730 C.2       1 ANP902      0.0000 
     24 N7         68.7850   14.6440   28.7710 N.2       1 ANP902      0.0000 
     25 C5         69.5170   15.6890   28.4950 C.ar      1 ANP902      0.0000 
     26 C6         70.6980   15.8320   27.7890 C.ar      1 ANP902      0.0000 
     27 N6         71.2750   14.7550   27.2490 N.pl3     1 ANP902      0.0000 
     28 N1         71.2730   17.1170   27.6480 N.ar      1 ANP902      0.0000 
     29 C2         70.6430   18.2590   28.2330 C.ar      1 ANP902      0.0000 
     30 N3         69.5090   18.0700   28.9060 N.ar      1 ANP902      0.0000 
     31 C4         68.9220   16.8560   29.0610 C.ar      1 ANP902      0.0000 
     32 H          65.0674   13.9737   30.9025 H         1 ANP902      0.0000 
     33 H          64.8747   14.5077   32.5811 H         1 ANP902      0.0000 
     34 H          64.5221   16.7557   31.9370 H         1 ANP902      0.0000 
     35 H          64.5251   15.9078   29.0705 H         1 ANP902      0.0000 
     36 H          65.8929   17.6223   28.5824 H         1 ANP902      0.0000 
     37 H          67.1101   17.8326   31.1056 H         1 ANP902      0.0000 
     38 H          67.0307   14.5247   29.8337 H         1 ANP902      0.0000 
     39 H          70.6560   14.0349   26.9353 H         1 ANP902      0.0000 
     40 H          72.2740   14.7656   27.2068 H         1 ANP902      0.0000 
     41 H          71.0835   19.1692   28.1132 H         1 ANP902      0.0000 
     42 H          62.6498   16.9642   29.0537 H         1 ANP902      0.0000 
     43 H          64.2385   18.9609   30.2254 H         1 ANP902      0.0000 
@<TRIPOS>BOND
     1    2    1 ar   
     2    3    1 ar   
     3    4    1 ar   
     4    8    1 1    
     5    6    5 ar   
     6    7    5 ar   
     7    8    5 1    
     8   12    5 1    
     9   10    9 ar   
    10   11    9 ar   
    11   12    9 1    
    12   13    9 1    
    13   14   13 1    
    14   15   14 1    
    15   32   14 1    
    16   33   14 1    
    17   16   15 1    
    18   17   15 1    
    19   34   15 1    
    20   21   16 1    
    21   18   17 1    
    22   19   17 1    
    23   35   17 1    
    24   42   18 1    
    25   20   19 1    
    26   21   19 1    
    27   36   19 1    
    28   43   20 1    
    29   22   21 1    
    30   37   21 1    
    31   23   22 1    
    32   31   22 1    
    33   24   23 2    
    34   38   23 1    
    35   25   24 1    
    36   26   25 ar   
    37   31   25 ar   
    38   27   26 1    
    39   28   26 ar   
    40   39   27 1    
    41   40   27 1    
    42   29   28 ar   
    43   30   29 ar   
    44   41   29 1    
    45   31   30 ar   
@<TRIPOS>SUBSTRUCTURE
     1 ANP902      1 GROUP   
@<TRIPOS>SET

