#    Name: 3k99_PFT_3_INTS_M
#    Modification time : Mon Mar 24 19:00:23 2014

@<TRIPOS>MOLECULE
3k99_PFT_3_INTS_M
   46     0     9     0     0
SMALL
NO_CHARGES


@<TRIPOS>ATOM
      1 CA         14.8300   83.4815   94.1075 C.3       3 GLC5        0.0000 
      2 CA         13.3210   83.0220   95.3690 C.3       9 GLL5        0.0000 
      3 CA         16.3390   83.9410   92.8460 C.3       6 GLP5        0.0000 
      4 N          14.1800   80.8590   92.1590 N.am      2 SEC2        0.0000 
      5 N          14.2120   81.4720   93.3290 N.am      8 SEL2        0.0000 
      6 N          14.1480   80.2460   90.9890 N.am      5 SEP2        0.0000 
      7 N          12.6860   81.0365   92.8800 N.am      2 SEC2        0.0000 
      8 N          11.1600   80.6010   92.4310 N.am      5 SEP2        0.0000 
      9 CA         12.4945   79.5160   95.1440 C.3       3 GLC5        0.0000 
     10 CA         14.2240   78.4670   94.5030 C.3       9 GLL5        0.0000 
     11 CA         10.7650   80.5650   95.7850 C.3       6 GLP5        0.0000 
     12 CA         11.1215   82.8680   97.1700 C.3       3 GLC5        0.0000 
     13 CA         12.3590   84.6030   97.4300 C.3       9 GLL5        0.0000 
     14 CA          9.8840   81.1330   96.9100 C.3       6 GLP5        0.0000 
     15 CA         11.2400   84.7585   96.0150 C.3       3 GLC5        0.0000 
     16 CA         10.1210   84.9140   94.6000 C.3       6 GLP5        0.0000 
     17 CA         11.6160   81.8085   98.0595 C.3       3 GLC5        0.0000 
     18 CA         13.3480   82.4840   99.2090 C.3       9 GLL5        0.0000 
     19 N          12.0380   79.6090   93.2620 N.am      2 SEC2        0.0000 
     20 N          12.9160   78.6170   94.0930 N.am      8 SEL2        0.0000 
     21 O          12.2080   77.6150   93.6235 O.2       1 ALC1        0.0000 
     22 O          12.9160   78.6170   94.0930 O.2       7 ALL1        0.0000 
     23 O          11.5000   76.6130   93.1540 O.2       4 ALP1        0.0000 
     24 CA         11.6410   84.0757   95.3525 C.3       3 GLC5        0.0000 
     25 CA         16.6490   80.5100   93.5370 C.3       3 GLC5        0.0000 
     26 CA         15.1310   79.5790   94.6990 C.3       9 GLL5        0.0000 
     27 CA         17.4850   81.5150   92.1620 C.3       6 GLP5        0.0000 
     28 CA         14.6807   77.2387   96.5715 C.3       3 GLC5        0.0000 
     29 CA         14.9800   76.6980   98.5430 C.3       6 GLP5        0.0000 
     30 CA         12.6773   77.0078   95.5675 C.3       3 GLC5        0.0000 
     31 CA         14.5390   77.0920   94.6970 C.3       9 GLL5        0.0000 
     32 CA         10.9730   76.2360   96.5350 C.3       6 GLP5        0.0000 
     33 CA         15.4561   78.6850   92.9720 C.3       3 GLC5        0.0000 
     34 CA         15.3260   78.1430   91.0810 C.3       6 GLP5        0.0000 
     35 CA         10.5412   85.4565   98.0720 C.3       3 GLC5        0.0000 
     36 CA          8.7960   86.2670   97.9780 C.3       6 GLP5        0.0000 
     37 CA         12.0805   81.5207  100.2638 C.3       3 GLC5        0.0000 
     38 CA         12.7200   83.6130   99.7660 C.3       9 GLL5        0.0000 
     39 CA         11.1270   79.9930  101.0400 C.3       6 GLP5        0.0000 
     40 CA         15.2805   77.5983   92.9965 C.3       3 GLC5        0.0000 
     41 CA         16.2295   75.8222   93.5385 C.3       3 GLC5        0.0000 
     42 CA         17.2240   74.5910   92.1650 C.3       6 GLP5        0.0000 
     43 CA         15.6962   77.1287   96.8893 C.3       3 GLC5        0.0000 
     44 CA         15.9310   77.0150   95.1270 C.3       9 GLL5        0.0000 
     45 CA         12.1190   81.5604   96.2714 C.3       3 GLC5        0.0000 
     46 CA         13.4700   82.4360   97.7740 C.3       9 GLL5        0.0000 
@<TRIPOS>BOND
@<TRIPOS>SUBSTRUCTURE
     1 ALC1       21 GROUP        1 X    ALC  0     ROOT ALC X 1
     2 SEC2        4 GROUP        1 X    SEC  0     **** SEC X 2
     3 GLC5        1 GROUP        1 X    GLC  0     **** GLC X 6
     4 ALP1       23 GROUP        1 Y    ALP  0     ROOT ALP Y 8
     5 SEP2        6 GROUP        1 Y    SEP  0     **** SEP Y 9
     6 GLP5        3 GROUP        1 Y    GLP  0     **** GLP Y 13
     7 ALL1       22 GROUP        1 Z    ALL  0     ROOT ALL Z 15
     8 SEL2        5 GROUP        1 Z    SEL  0     **** SEL Z 16
     9 GLL5        2 GROUP        1 Z    GLL  0     **** GLL Z 20
@<TRIPOS>SET

