#    Name: 3k99_PFT_3_ligand
#    Modification time : Mon Mar 24 19:00:23 2014

@<TRIPOS>MOLECULE
3k99_PFT_3_ligand
   32    34     1     0     0
SMALL
NO_CHARGES


@<TRIPOS>ATOM
      1 N1         14.0070   81.6730   95.5340 N.am      1 PFT901      0.0000 
      2 C2         14.4530   80.9220   94.3860 C.2       1 PFT901      0.0000 
      3 C3         13.3210   83.0220   95.3690 C.3       1 PFT901      0.0000 
      4 C4         14.1000   81.3120   97.0470 C.3       1 PFT901      0.0000 
      5 C5         15.1310   79.5790   94.6990 C.ar      1 PFT901      0.0000 
      6 O6         14.2120   81.4720   93.3290 O.2       1 PFT901      0.0000 
      7 C7         13.0010   83.4530   96.8410 C.ar      1 PFT901      0.0000 
      8 C8         13.4700   82.4360   97.7740 C.ar      1 PFT901      0.0000 
      9 C9         14.2240   78.4670   94.5030 C.ar      1 PFT901      0.0000 
     10 C10        16.4950   79.4310   95.1250 C.ar      1 PFT901      0.0000 
     11 C11        12.3590   84.6030   97.4300 C.ar      1 PFT901      0.0000 
     12 C12        13.3480   82.4840   99.2090 C.ar      1 PFT901      0.0000 
     13 C13        14.5390   77.0920   94.6970 C.ar      1 PFT901      0.0000 
     14 O14        12.9160   78.6170   94.0930 O.3       1 PFT901      0.0000 
     15 C15        16.8940   78.1040   95.3440 C.ar      1 PFT901      0.0000 
     16 C16        12.2140   84.6890   98.9020 C.ar      1 PFT901      0.0000 
     17 C17        12.7200   83.6130   99.7660 C.ar      1 PFT901      0.0000 
     18 C18        15.9310   77.0150   95.1270 C.ar      1 PFT901      0.0000 
     19 O19        16.3860   75.7940   95.3510 O.3       1 PFT901      0.0000 
     20 H          12.4127   82.9140   94.8421 H         1 PFT901      0.0000 
     21 H          13.9843   83.7260   94.9460 H         1 PFT901      0.0000 
     22 H          15.1356   81.2130   97.3035 H         1 PFT901      0.0000 
     23 H          13.5659   80.3968   97.2052 H         1 PFT901      0.0000 
     24 H          17.0844   80.2037   95.2476 H         1 PFT901      0.0000 
     25 H          12.0070   85.3492   96.8609 H         1 PFT901      0.0000 
     26 H          13.7001   81.7382   99.7712 H         1 PFT901      0.0000 
     27 H          13.9788   76.3665   94.5778 H         1 PFT901      0.0000 
     28 H          17.8272   77.8681   95.6480 H         1 PFT901      0.0000 
     29 H          11.7659   85.4905   99.3075 H         1 PFT901      0.0000 
     30 H          12.6020   83.7111  100.7711 H         1 PFT901      0.0000 
     31 H          12.6224   77.6997   93.8241 H         1 PFT901      0.0000 
     32 H          17.2436   75.7397   94.8397 H         1 PFT901      0.0000 
@<TRIPOS>BOND
     1    2    1 am   
     2    3    1 1    
     3    4    1 1    
     4    5    2 1    
     5    6    2 2    
     6    7    3 1    
     7   20    3 1    
     8   21    3 1    
     9    8    4 1    
    10   22    4 1    
    11   23    4 1    
    12    9    5 ar   
    13   10    5 ar   
    14    8    7 ar   
    15   11    7 ar   
    16   12    8 ar   
    17   13    9 ar   
    18   14    9 1    
    19   15   10 ar   
    20   24   10 1    
    21   16   11 ar   
    22   25   11 1    
    23   17   12 ar   
    24   26   12 1    
    25   18   13 ar   
    26   27   13 1    
    27   31   14 1    
    28   18   15 ar   
    29   28   15 1    
    30   17   16 ar   
    31   29   16 1    
    32   30   17 1    
    33   19   18 1    
    34   32   19 1    
@<TRIPOS>SUBSTRUCTURE
     1 PFT901      1 GROUP   
@<TRIPOS>SET

