#    Name: 3t4n_ADP_1_INTS_M
#    Modification time : Mon Mar 24 19:06:18 2014

@<TRIPOS>MOLECULE
3t4n_ADP_1_INTS_M
   56     0     9     0     0
SMALL
NO_CHARGES


@<TRIPOS>ATOM
      1 N         -30.9380   64.0190    1.3290 N.am      2 SEC2        0.0000 
      2 N         -30.3820   65.1050    0.2520 N.am      8 SEL2        0.0000 
      3 N         -31.4940   62.9330    2.4060 N.am      5 SEP2        0.0000 
      4 N         -30.3715   66.7465   -0.0460 N.am      2 SEC2        0.0000 
      5 N         -30.3610   68.3880   -0.3440 N.am      5 SEP2        0.0000 
      6 N         -31.1495   65.8265    1.3180 N.am      2 SEC2        0.0000 
      7 N         -31.9170   66.5480    2.3840 N.am      5 SEP2        0.0000 
      8 N         -28.5310   65.5720    1.1235 N.am      2 SEC2        0.0000 
      9 N         -27.9540   64.3820    0.3990 N.am      8 SEL2        0.0000 
     10 N         -29.1080   66.7620    1.8480 N.am      5 SEP2        0.0000 
     11 N         -27.1180   64.7135   -4.8800 N.am      2 SEC2        0.0000 
     12 N         -28.0350   65.7100   -3.9250 N.am      8 SEL2        0.0000 
     13 N         -26.2010   63.7170   -5.8350 N.am      5 SEP2        0.0000 
     14 N         -27.3175   63.1780   -3.2490 N.am      2 SEC2        0.0000 
     15 N         -26.6860   64.2710   -2.2520 N.am      8 SEL2        0.0000 
     16 N         -27.9490   62.0850   -4.2460 N.am      5 SEP2        0.0000 
     17 N         -27.7515   70.8320    1.2040 N.am      2 SEC2        0.0000 
     18 N         -26.6700   70.3960    0.5710 N.am      8 SEL2        0.0000 
     19 N         -28.8330   71.2680    1.8370 N.am      5 SEP2        0.0000 
     20 N         -27.6705   72.3545   -2.0920 N.am      2 SEC2        0.0000 
     21 N         -28.0380   71.1860   -1.5620 N.am      8 SEL2        0.0000 
     22 N         -27.3030   73.5230   -2.6220 N.am      5 SEP2        0.0000 
     23 N         -28.4355   71.2270    0.1375 N.am      2 SEC2        0.0000 
     24 O         -29.0370   71.3000   -0.7790 O.2       1 ALC1        0.0000 
     25 O         -28.0380   71.1860   -1.5620 O.2       7 ALL1        0.0000 
     26 O         -30.0360   71.4140    0.0040 O.2       4 ALP1        0.0000 
     27 CA        -26.2075   71.9345   -7.7900 C.3       3 GLC5        0.0000 
     28 CA        -25.2310   70.2450   -7.2770 C.3       9 GLL5        0.0000 
     29 CA        -27.1840   73.6240   -8.3030 C.3       6 GLP5        0.0000 
     30 CA        -23.4635   70.2310   -8.4835 C.3       3 GLC5        0.0000 
     31 CA        -21.6960   70.2170   -9.6900 C.3       6 GLP5        0.0000 
     32 CA        -26.2645   70.1895   -9.2625 C.3       3 GLC5        0.0000 
     33 CA        -27.2980   70.1340  -11.2480 C.3       6 GLP5        0.0000 
     34 O         -24.9100   70.4550   -9.7125 O.2       1 ALC1        0.0000 
     35 O         -25.5590   69.7650   -8.4970 O.2       7 ALL1        0.0000 
     36 O         -24.2610   71.1450  -10.9280 O.2       4 ALP1        0.0000 
     37 O         -26.0215   68.3200   -8.8045 O.2       1 ALC1        0.0000 
     38 O         -26.4840   66.8750   -9.1120 O.2       4 ALP1        0.0000 
     39 N         -23.4100   71.8225   -8.1180 N.am      2 SEC2        0.0000 
     40 N         -24.2830   71.2030   -7.1180 N.am      8 SEL2        0.0000 
     41 N         -22.5370   72.4420   -9.1180 N.am      5 SEP2        0.0000 
     42 CA        -23.6135   73.1170   -7.0300 C.3       3 GLC5        0.0000 
     43 CA        -23.9510   71.6960   -5.9070 C.3       9 GLL5        0.0000 
     44 CA        -23.2760   74.5380   -8.1530 C.3       6 GLP5        0.0000 
     45 CA        -28.8780   69.0048   -1.8740 C.3       3 GLC5        0.0000 
     46 CA        -27.4140   69.9030   -1.6630 C.3       9 GLL5        0.0000 
     47 CA        -30.5370   68.3940   -2.7590 C.3       6 GLP5        0.0000 
     48 CA        -27.7713   71.0842   -3.5818 C.3       3 GLC5        0.0000 
     49 CA        -28.7920   72.2170   -5.1310 C.3       6 GLP5        0.0000 
     50 CA        -26.8020   71.7119   -0.9798 C.3       3 GLC5        0.0000 
     51 CA        -26.9510   73.6160   -0.2640 C.3       6 GLP5        0.0000 
     52 CA        -27.2440   71.1188   -5.2782 C.3       3 GLC5        0.0000 
     53 CA        -25.9090   69.7300   -6.0670 C.3       9 GLL5        0.0000 
     54 CA        -24.6238   68.7021   -5.4170 C.3       3 GLC5        0.0000 
     55 CA        -25.4830   70.3110   -4.7840 C.3       9 GLL5        0.0000 
     56 CA        -23.7210   67.2550   -5.1060 C.3       6 GLP5        0.0000 
@<TRIPOS>BOND
@<TRIPOS>SUBSTRUCTURE
     1 ALC1       24 GROUP        1 X    ALC  0     ROOT ALC X 1
     2 SEC2        1 GROUP        1 X    SEC  0     **** SEC X 2
     3 GLC5       27 GROUP        1 X    GLC  0     **** GLC X 6
     4 ALP1       26 GROUP        1 Y    ALP  0     ROOT ALP Y 8
     5 SEP2        3 GROUP        1 Y    SEP  0     **** SEP Y 9
     6 GLP5       29 GROUP        1 Y    GLP  0     **** GLP Y 13
     7 ALL1       25 GROUP        1 Z    ALL  0     ROOT ALL Z 15
     8 SEL2        2 GROUP        1 Z    SEL  0     **** SEL Z 16
     9 GLL5       28 GROUP        1 Z    GLL  0     **** GLL Z 20
@<TRIPOS>SET

