#    Name: 3t4n_ADP_1_ligand
#    Modification time : Mon Mar 24 19:06:18 2014

@<TRIPOS>MOLECULE
3t4n_ADP_1_ligand
   39    41     1     0     0
SMALL
NO_CHARGES


@<TRIPOS>ATOM
      1 PB        -29.1960   64.4980   -0.4530 P.3       1 ADP324      0.0000 
      2 O1B       -30.3820   65.1050    0.2520 O.co2     1 ADP324      0.0000 
      3 O2B       -27.9540   64.3820    0.3990 O.co2     1 ADP324      0.0000 
      4 O3B       -29.5270   63.2880   -1.2910 O.co2     1 ADP324      0.0000 
      5 PA        -27.5150   65.4970   -2.5280 P.3       1 ADP324      0.0000 
      6 O1A       -28.0350   65.7100   -3.9250 O.co2     1 ADP324      0.0000 
      7 O2A       -26.6860   64.2710   -2.2520 O.co2     1 ADP324      0.0000 
      8 O3A       -28.7840   65.6090   -1.5410 O.3       1 ADP324      0.0000 
      9 O5'       -26.6500   66.7880   -2.1040 O.3       1 ADP324      0.0000 
     10 C5'       -26.1000   66.9940   -0.7990 C.3       1 ADP324      0.0000 
     11 C4'       -25.7910   68.4850   -0.6070 C.3       1 ADP324      0.0000 
     12 O4'       -25.2160   69.0370   -1.8000 O.3       1 ADP324      0.0000 
     13 C3'       -27.0240   69.3280   -0.3150 C.3       1 ADP324      0.0000 
     14 O3'       -26.6700   70.3960    0.5710 O.3       1 ADP324      0.0000 
     15 C2'       -27.4140   69.9030   -1.6630 C.3       1 ADP324      0.0000 
     16 O2'       -28.0380   71.1860   -1.5620 O.3       1 ADP324      0.0000 
     17 C1'       -26.0870   70.0000   -2.4020 C.3       1 ADP324      0.0000 
     18 N9        -26.2120   69.7010   -3.8520 N.pl3     1 ADP324      0.0000 
     19 C8        -27.0320   68.8070   -4.4520 C.2       1 ADP324      0.0000 
     20 N7        -26.8590   68.8150   -5.7970 N.2       1 ADP324      0.0000 
     21 C5        -25.9090   69.7300   -6.0670 C.ar      1 ADP324      0.0000 
     22 C6        -25.2310   70.2450   -7.2770 C.ar      1 ADP324      0.0000 
     23 N6        -25.5590   69.7650   -8.4970 N.pl3     1 ADP324      0.0000 
     24 N1        -24.2830   71.2030   -7.1180 N.ar      1 ADP324      0.0000 
     25 C2        -23.9510   71.6960   -5.9070 C.ar      1 ADP324      0.0000 
     26 N3        -24.5190   71.2710   -4.7630 N.ar      1 ADP324      0.0000 
     27 C4        -25.4830   70.3110   -4.7840 C.ar      1 ADP324      0.0000 
     28 H         -25.1673   66.4409   -0.6583 H         1 ADP324      0.0000 
     29 H         -26.7973   66.6954   -0.0115 H         1 ADP324      0.0000 
     30 H         -25.1041   68.5974    0.2202 H         1 ADP324      0.0000 
     31 H         -27.7898   68.7142    0.0400 H         1 ADP324      0.0000 
     32 H         -28.0144   69.1793   -2.1734 H         1 ADP324      0.0000 
     33 H         -25.6949   70.9926   -2.2614 H         1 ADP324      0.0000 
     34 H         -27.6672   68.2296   -3.9786 H         1 ADP324      0.0000 
     35 H         -25.8613   68.8123   -8.5283 H         1 ADP324      0.0000 
     36 H         -25.4702   70.4051   -9.2601 H         1 ADP324      0.0000 
     37 H         -23.2077   72.4537   -5.8551 H         1 ADP324      0.0000 
     38 H         -26.7807   71.2291    0.0291 H         1 ADP324      0.0000 
     39 H         -28.9899   70.9927   -1.3243 H         1 ADP324      0.0000 
@<TRIPOS>BOND
     1    2    1 ar   
     2    3    1 ar   
     3    4    1 ar   
     4    8    1 1    
     5    6    5 ar   
     6    7    5 ar   
     7    8    5 1    
     8    9    5 1    
     9   10    9 1    
    10   11   10 1    
    11   28   10 1    
    12   29   10 1    
    13   12   11 1    
    14   13   11 1    
    15   30   11 1    
    16   17   12 1    
    17   14   13 1    
    18   15   13 1    
    19   31   13 1    
    20   38   14 1    
    21   16   15 1    
    22   17   15 1    
    23   32   15 1    
    24   39   16 1    
    25   18   17 1    
    26   33   17 1    
    27   19   18 1    
    28   27   18 1    
    29   20   19 2    
    30   34   19 1    
    31   21   20 1    
    32   22   21 ar   
    33   27   21 ar   
    34   23   22 1    
    35   24   22 ar   
    36   35   23 1    
    37   36   23 1    
    38   25   24 ar   
    39   26   25 ar   
    40   37   25 1    
    41   27   26 ar   
@<TRIPOS>SUBSTRUCTURE
     1 ADP324      1 GROUP   
@<TRIPOS>SET

