#    Name: 3r7c_FAD_2_INTS_M
#    Modification time : Tue Mar 25 11:07:18 2014

@<TRIPOS>MOLECULE
3r7c_FAD_2_INTS_M
  110     0    12     0     0
SMALL
NO_CHARGES


@<TRIPOS>ATOM
      1 N          16.9785   41.4775   60.8720 N.am      2 SEC2        0.0000 
      2 N          16.3120   41.2100   62.0710 N.am     10 SEL2        0.0000 
      3 N          17.6450   41.7450   59.6730 N.am      6 SEP2        0.0000 
      4 CA         16.2860   47.3560   61.0055 C.3       4 GLC5        0.0000 
      5 CA         15.2590   45.8800   61.8590 C.3      12 GLL5        0.0000 
      6 CA         17.3130   48.8320   60.1520 C.3       8 GLP5        0.0000 
      7 N          13.1545   48.5840   60.1940 N.am      2 SEC2        0.0000 
      8 N          12.8500   47.0470   60.3660 N.am     10 SEL2        0.0000 
      9 N          13.4590   50.1210   60.0220 N.am      6 SEP2        0.0000 
     10 CA         16.0895   47.4615   59.8665 C.3       4 GLC5        0.0000 
     11 CA         14.8660   46.0910   59.5810 C.3      12 GLL5        0.0000 
     12 N          14.9840   41.5120   57.4830 N.am      2 SEC2        0.0000 
     13 N          15.1290   43.0570   57.5970 N.am     10 SEL2        0.0000 
     14 N          14.8390   39.9670   57.3690 N.am      6 SEP2        0.0000 
     15 CA         16.5820   44.1290   53.7480 C.3       4 GLC5        0.0000 
     16 CA         16.4350   43.7830   55.5880 C.3      12 GLL5        0.0000 
     17 CA         16.7290   44.4750   51.9080 C.3       8 GLP5        0.0000 
     18 CA         17.8655   42.8040   55.9845 C.3       4 GLC5        0.0000 
     19 CA         19.2960   41.8250   56.3810 C.3       8 GLP5        0.0000 
     20 O          17.4185   42.1980   53.8470 O.2       1 ALC1        0.0000 
     21 O          16.4170   42.6220   54.9600 O.2       9 ALL1        0.0000 
     22 O          18.4200   41.7740   52.7340 O.2       5 ALP1        0.0000 
     23 O          15.5005   41.4425   54.6330 O.2       1 ALC1        0.0000 
     24 O          14.5840   40.2630   54.3060 O.2       5 ALP1        0.0000 
     25 CA         18.5115   46.4215   56.8990 C.3       4 GLC5        0.0000 
     26 CA         17.0180   46.0910   55.6260 C.3      12 GLL5        0.0000 
     27 CA         20.0050   46.7520   58.1720 C.3       8 GLP5        0.0000 
     28 CA         16.8735   45.2830   53.7670 C.3       4 GLC5        0.0000 
     29 CA         16.9095   47.0855   53.9675 C.3       4 GLC5        0.0000 
     30 CA         16.8010   48.0800   52.3090 C.3       8 GLP5        0.0000 
     31 N          16.8295   47.6685   57.2510 N.am      2 SEC2        0.0000 
     32 N          16.3980   46.2280   56.8410 N.am     10 SEL2        0.0000 
     33 N          17.2610   49.1090   57.6610 N.am      6 SEP2        0.0000 
     34 N          22.6080   31.8610   61.1375 N.am      2 SEC2        0.0000 
     35 N          22.1270   32.8800   62.2540 N.am     10 SEL2        0.0000 
     36 N          23.0890   30.8420   60.0210 N.am      6 SEP2        0.0000 
     37 CA         25.3605   36.8840   59.8100 C.3       4 GLC5        0.0000 
     38 CA         23.9730   37.3670   61.4120 C.3      12 GLL5        0.0000 
     39 CA         26.7480   36.4010   58.2080 C.3       8 GLP5        0.0000 
     40 CA         22.6405   36.8585   59.9200 C.3       4 GLC5        0.0000 
     41 CA         21.3080   36.3500   58.4280 C.3       8 GLP5        0.0000 
     42 CA         23.8410   39.9600   59.5020 C.3       4 GLC5        0.0000 
     43 CA         25.3110   39.2660   60.4830 C.3      12 GLL5        0.0000 
     44 CA         22.3710   40.6540   58.5210 C.3       8 GLP5        0.0000 
     45 CA         26.9810   40.2635   60.2670 C.3       4 GLC5        0.0000 
     46 CA         28.6510   41.2610   60.0510 C.3       8 GLP5        0.0000 
     47 CA         26.3665   38.8580   62.2620 C.3       4 GLC5        0.0000 
     48 CA         27.4220   38.4500   64.0410 C.3       8 GLP5        0.0000 
     49 CA         26.0295   37.8335   59.3455 C.3       4 GLC5        0.0000 
     50 CA         24.4305   42.6115   63.3340 C.3       4 GLC5        0.0000 
     51 CA         23.8410   41.0330   62.2840 C.3      12 GLL5        0.0000 
     52 CA         25.0200   44.1900   64.3840 C.3       8 GLP5        0.0000 
     53 CA         22.4735   41.1640   61.3630 C.3       4 GLC5        0.0000 
     54 CA         21.1060   41.2950   60.4420 C.3       8 GLP5        0.0000 
     55 CA         24.8890   40.4815   63.7310 C.3       4 GLC5        0.0000 
     56 CA         25.9370   39.9300   65.1780 C.3       8 GLP5        0.0000 
     57 CA         22.0235   40.3090   64.6420 C.3       4 GLC5        0.0000 
     58 CA         22.5620   39.0530   63.1190 C.3      12 GLL5        0.0000 
     59 CA         21.4850   41.5650   66.1650 C.3       8 GLP5        0.0000 
     60 CA         21.0960   36.8935   66.5385 C.3       4 GLC5        0.0000 
     61 CA         20.4790   38.0110   64.8620 C.3      12 GLL5        0.0000 
     62 CA         21.7130   35.7760   68.2150 C.3       8 GLP5        0.0000 
     63 CA         20.9820   39.7880   65.5135 C.3       4 GLC5        0.0000 
     64 CA         19.3880   37.1020   62.1630 C.3       4 GLC5        0.0000 
     65 CA         19.1670   38.1870   64.0680 C.3      12 GLL5        0.0000 
     66 CA         19.6090   36.0170   60.2580 C.3       8 GLP5        0.0000 
     67 CA         18.0790   36.5280   63.5485 C.3       4 GLC5        0.0000 
     68 CA         16.9910   34.8690   63.0290 C.3       8 GLP5        0.0000 
     69 N          19.8865   39.7835   62.1355 N.am      2 SEC2        0.0000 
     70 N          19.4200   38.3560   62.6880 N.am     10 SEL2        0.0000 
     71 N          20.3530   41.2110   61.5830 N.am      6 SEP2        0.0000 
     72 CA         19.8675   40.4500   65.3250 C.3       4 GLC5        0.0000 
     73 CA         18.2500   39.3350   64.4850 C.3      12 GLL5        0.0000 
     74 CA         19.1570   40.9020   63.2575 C.3       4 GLC5        0.0000 
     75 CA         20.0640   42.4690   62.0300 C.3       8 GLP5        0.0000 
     76 CA         16.8405   42.0785   66.7660 C.3       4 GLC5        0.0000 
     77 CA         16.5470   40.0800   66.2090 C.3      12 GLL5        0.0000 
     78 CA         17.1340   44.0770   67.3230 C.3       8 GLP5        0.0000 
     79 N          14.3270   39.1130   64.8425 N.am      2 SEC2        0.0000 
     80 N          15.5950   40.1950   65.1810 N.am     10 SEL2        0.0000 
     81 N          13.0590   38.0310   64.5040 N.am      6 SEP2        0.0000 
     82 NZ         13.1280   39.3915   64.6415 N.4       3 LYC4        0.0000 
     83 NZ         13.1970   40.7520   64.7790 N.4      11 LYL4        0.0000 
     84 NZ         13.0590   38.0310   64.5040 N.4       7 LYP4        0.0000 
     85 N          13.1280   39.3915   64.6415 N.am      2 SEC2        0.0000 
     86 N          13.1970   40.7520   64.7790 N.am     10 SEL2        0.0000 
     87 NZ         14.8790   42.6695   67.5275 N.4       3 LYC4        0.0000 
     88 NZ         14.4260   42.1670   66.3990 N.4      11 LYL4        0.0000 
     89 NZ         15.4510   42.3050   69.6540 N.4       7 LYP4        0.0000 
     90 N          14.8790   42.6695   67.5275 N.am      2 SEC2        0.0000 
     91 N          14.4260   42.1670   66.3990 N.am     10 SEL2        0.0000 
     92 N          15.3320   43.1720   68.6560 N.am      6 SEP2        0.0000 
     93 CA         13.2602   45.7957   58.0598 C.3       4 GLC5        0.0000 
     94 CA         13.5250   45.8340   60.2400 C.3      12 GLL5        0.0000 
     95 CA         12.3250   45.6290   56.2090 C.3       8 GLP5        0.0000 
     96 CA         17.2295   43.2627   57.4237 C.3       4 GLC5        0.0000 
     97 CA         15.7970   45.1680   57.4200 C.3      12 GLL5        0.0000 
     98 CA         18.6570   41.9790   57.7330 C.3       8 GLP5        0.0000 
     99 CA         14.5205   44.0060   55.9566 C.3       4 GLC5        0.0000 
    100 CA         15.8070   43.9250   56.8090 C.3      12 GLL5        0.0000 
    101 CA         13.0820   43.5010   55.1040 C.3       8 GLP5        0.0000 
    102 CA         21.1217   36.6445   61.4693 C.3       4 GLC5        0.0000 
    103 CA         22.9910   36.8540   62.2510 C.3      12 GLL5        0.0000 
    104 CA         24.0340   36.2006   63.5429 C.3       4 GLC5        0.0000 
    105 CA         25.1880   35.0010   64.6150 C.3       8 GLP5        0.0000 
    106 CA         17.9050   39.4180   67.7758 C.3       4 GLC5        0.0000 
    107 CA         17.5790   39.0240   65.8180 C.3      12 GLL5        0.0000 
    108 CA         18.7470   39.2840   69.5380 C.3       8 GLP5        0.0000 
    109 CA         15.5855   38.4660   64.8367 C.3       4 GLC5        0.0000 
    110 CA         14.1080   37.3800   63.6600 C.3       8 GLP5        0.0000 
@<TRIPOS>BOND
@<TRIPOS>SUBSTRUCTURE
     1 ALC1       20 GROUP        1 X    ALC  0     ROOT ALC X 1
     2 SEC2        1 GROUP        1 X    SEC  0     **** SEC X 2
     3 LYC4       82 GROUP        1 X    LYC  0     **** LYC X 4
     4 GLC5        4 GROUP        1 X    GLC  0     **** GLC X 6
     5 ALP1       22 GROUP        1 Y    ALP  0     ROOT ALP Y 8
     6 SEP2        3 GROUP        1 Y    SEP  0     **** SEP Y 9
     7 LYP4       84 GROUP        1 Y    LYP  0     **** LYP Y 11
     8 GLP5        6 GROUP        1 Y    GLP  0     **** GLP Y 13
     9 ALL1       21 GROUP        1 Z    ALL  0     ROOT ALL Z 15
    10 SEL2        2 GROUP        1 Z    SEL  0     **** SEL Z 16
    11 LYL4       83 GROUP        1 Z    LYL  0     **** LYL Z 18
    12 GLL5        5 GROUP        1 Z    GLL  0     **** GLL Z 20
@<TRIPOS>SET

