#    Name: 3r7c_FAD_2_ligand
#    Modification time : Tue Mar 25 11:07:18 2014

@<TRIPOS>MOLECULE
3r7c_FAD_2_ligand
   84    89     1     0     0
SMALL
NO_CHARGES


@<TRIPOS>ATOM
      1 PA         16.2640   42.3570   63.0320 P.3       1 FAD126      0.0000 
      2 O1A        17.4620   42.4620   63.9630 O.co2     1 FAD126      0.0000 
      3 O2A        16.3120   41.2100   62.0710 O.co2     1 FAD126      0.0000 
      4 O5B        16.1070   43.7000   62.1520 O.3       1 FAD126      0.0000 
      5 C5B        16.0420   44.9590   62.7830 C.3       1 FAD126      0.0000 
      6 C4B        15.2590   45.8800   61.8590 C.3       1 FAD126      0.0000 
      7 O4B        15.8570   45.9660   60.5790 O.3       1 FAD126      0.0000 
      8 C3B        13.8720   45.3210   61.6080 C.3       1 FAD126      0.0000 
      9 O3B        12.9610   45.7780   62.5660 O.3       1 FAD126      0.0000 
     10 C2B        13.5250   45.8340   60.2400 C.3       1 FAD126      0.0000 
     11 O2B        12.8500   47.0470   60.3660 O.3       1 FAD126      0.0000 
     12 C1B        14.8660   46.0910   59.5810 C.3       1 FAD126      0.0000 
     13 N9A        15.1060   45.0330   58.5940 N.pl3     1 FAD126      0.0000 
     14 C8A        14.7110   43.7150   58.7020 C.2       1 FAD126      0.0000 
     15 N7A        15.1290   43.0570   57.5970 N.2       1 FAD126      0.0000 
     16 C5A        15.8070   43.9250   56.8090 C.ar      1 FAD126      0.0000 
     17 C6A        16.4350   43.7830   55.5880 C.ar      1 FAD126      0.0000 
     18 N6A        16.4170   42.6220   54.9600 N.pl3     1 FAD126      0.0000 
     19 N1A        17.0380   44.8670   55.0020 N.ar      1 FAD126      0.0000 
     20 C2A        17.0180   46.0910   55.6260 C.ar      1 FAD126      0.0000 
     21 N3A        16.3980   46.2280   56.8410 N.ar      1 FAD126      0.0000 
     22 C4A        15.7970   45.1680   57.4200 C.ar      1 FAD126      0.0000 
     23 N1         20.1010   35.2650   64.7360 N.2       1 FAD126      0.0000 
     24 C2         19.8380   33.9060   64.7130 C.2       1 FAD126      0.0000 
     25 O2         18.9750   33.4420   65.4620 O.2       1 FAD126      0.0000 
     26 N3         20.5460   33.0740   63.8610 N.am      1 FAD126      0.0000 
     27 C4         21.5050   33.6060   63.0230 C.2       1 FAD126      0.0000 
     28 O4         22.1270   32.8800   62.2540 O.2       1 FAD126      0.0000 
     29 C4X        21.7690   34.9730   63.0500 C.2       1 FAD126      0.0000 
     30 N5         22.7340   35.5040   62.2220 N.2       1 FAD126      0.0000 
     31 C5X        22.9910   36.8540   62.2510 C.ar      1 FAD126      0.0000 
     32 C6         23.9730   37.3670   61.4120 C.ar      1 FAD126      0.0000 
     33 C7         24.2520   38.7270   61.4100 C.ar      1 FAD126      0.0000 
     34 C7M        25.3110   39.2660   60.4830 C.3       1 FAD126      0.0000 
     35 C8         23.5470   39.5660   62.2720 C.ar      1 FAD126      0.0000 
     36 C8M        23.8410   41.0330   62.2840 C.3       1 FAD126      0.0000 
     37 C9         22.5620   39.0530   63.1190 C.ar      1 FAD126      0.0000 
     38 C9A        22.2780   37.6900   63.1100 C.ar      1 FAD126      0.0000 
     39 N10        21.3080   37.1530   63.9460 N.pl3     1 FAD126      0.0000 
     40 C10        21.0580   35.8010   63.9100 C.2       1 FAD126      0.0000 
     41 C1'        20.4790   38.0110   64.8620 C.3       1 FAD126      0.0000 
     42 C2'        19.1670   38.1870   64.0680 C.3       1 FAD126      0.0000 
     43 O2'        19.4200   38.3560   62.6880 O.3       1 FAD126      0.0000 
     44 C3'        18.2500   39.3350   64.4850 C.3       1 FAD126      0.0000 
     45 O3'        18.9900   40.5320   64.5710 O.3       1 FAD126      0.0000 
     46 C4'        17.5790   39.0240   65.8180 C.3       1 FAD126      0.0000 
     47 O4'        16.9620   37.7620   65.7230 O.3       1 FAD126      0.0000 
     48 C5'        16.5470   40.0800   66.2090 C.3       1 FAD126      0.0000 
     49 O5'        15.5950   40.1950   65.1810 O.3       1 FAD126      0.0000 
     50 P          14.5200   41.3870   65.1210 P.3       1 FAD126      0.0000 
     51 O1P        13.1970   40.7520   64.7790 O.co2     1 FAD126      0.0000 
     52 O2P        14.4260   42.1670   66.3990 O.co2     1 FAD126      0.0000 
     53 O3P        14.9230   42.3930   63.9320 O.3       1 FAD126      0.0000 
     54 H          17.0258   45.3978   62.9363 H         1 FAD126      0.0000 
     55 H          15.5188   44.9191   63.7362 H         1 FAD126      0.0000 
     56 H          15.1535   46.8410   62.3125 H         1 FAD126      0.0000 
     57 H          13.9522   44.2577   61.5569 H         1 FAD126      0.0000 
     58 H          13.0132   45.0973   59.7042 H         1 FAD126      0.0000 
     59 H          14.8596   47.0378   59.1290 H         1 FAD126      0.0000 
     60 H          14.2247   43.3455   59.4398 H         1 FAD126      0.0000 
     61 H          15.5982   42.0633   55.0915 H         1 FAD126      0.0000 
     62 H          17.2238   42.4067   54.4098 H         1 FAD126      0.0000 
     63 H          17.4699   46.9059   55.1791 H         1 FAD126      0.0000 
     64 H          20.3556   32.0623   63.8547 H         1 FAD126      0.0000 
     65 H          24.4962   36.7344   60.7886 H         1 FAD126      0.0000 
     66 H          22.0487   39.6823   63.7472 H         1 FAD126      0.0000 
     67 H          20.9304   38.9572   64.9984 H         1 FAD126      0.0000 
     68 H          20.2712   37.5020   65.7650 H         1 FAD126      0.0000 
     69 H          18.5761   37.2496   64.2001 H         1 FAD126      0.0000 
     70 H          17.4651   39.4134   63.7317 H         1 FAD126      0.0000 
     71 H          18.3548   39.0147   66.5833 H         1 FAD126      0.0000 
     72 H          17.0865   41.0180   66.3853 H         1 FAD126      0.0000 
     73 H          16.0994   39.7666   67.1595 H         1 FAD126      0.0000 
     74 H          26.2052   38.8556   60.6620 H         1 FAD126      0.0000 
     75 H          25.0922   39.0852   59.5241 H         1 FAD126      0.0000 
     76 H          25.4185   40.2557   60.5775 H         1 FAD126      0.0000 
     77 H          24.7936   41.2189   62.5249 H         1 FAD126      0.0000 
     78 H          23.6775   41.4519   61.3908 H         1 FAD126      0.0000 
     79 H          23.2709   41.5206   62.9452 H         1 FAD126      0.0000 
     80 H          12.2974   45.0366   62.6664 H         1 FAD126      0.0000 
     81 H          12.4461   47.0245   61.2805 H         1 FAD126      0.0000 
     82 H          18.5196   38.4918   62.2747 H         1 FAD126      0.0000 
     83 H          18.5746   41.1420   63.8963 H         1 FAD126      0.0000 
     84 H          16.1382   37.8339   66.2852 H         1 FAD126      0.0000 
@<TRIPOS>BOND
     1    2    1 ar   
     2    3    1 ar   
     3    4    1 1    
     4   53    1 1    
     5    5    4 1    
     6    6    5 1    
     7   54    5 1    
     8   55    5 1    
     9    7    6 1    
    10    8    6 1    
    11   56    6 1    
    12   12    7 1    
    13    9    8 1    
    14   10    8 1    
    15   57    8 1    
    16   80    9 1    
    17   11   10 1    
    18   12   10 1    
    19   58   10 1    
    20   81   11 1    
    21   13   12 1    
    22   59   12 1    
    23   14   13 1    
    24   22   13 1    
    25   15   14 2    
    26   60   14 1    
    27   16   15 1    
    28   17   16 ar   
    29   22   16 ar   
    30   18   17 1    
    31   19   17 ar   
    32   61   18 1    
    33   62   18 1    
    34   20   19 ar   
    35   21   20 ar   
    36   63   20 1    
    37   22   21 ar   
    38   24   23 1    
    39   40   23 2    
    40   25   24 2    
    41   26   24 am   
    42   27   26 am   
    43   64   26 1    
    44   28   27 2    
    45   29   27 1    
    46   30   29 2    
    47   40   29 1    
    48   31   30 1    
    49   32   31 ar   
    50   38   31 ar   
    51   33   32 ar   
    52   65   32 1    
    53   34   33 1    
    54   35   33 ar   
    55   74   34 1    
    56   75   34 1    
    57   76   34 1    
    58   36   35 1    
    59   37   35 ar   
    60   77   36 1    
    61   78   36 1    
    62   79   36 1    
    63   38   37 ar   
    64   66   37 1    
    65   39   38 1    
    66   40   39 1    
    67   41   39 1    
    68   42   41 1    
    69   67   41 1    
    70   68   41 1    
    71   43   42 1    
    72   44   42 1    
    73   69   42 1    
    74   82   43 1    
    75   45   44 1    
    76   46   44 1    
    77   70   44 1    
    78   83   45 1    
    79   47   46 1    
    80   48   46 1    
    81   71   46 1    
    82   84   47 1    
    83   49   48 1    
    84   72   48 1    
    85   73   48 1    
    86   50   49 1    
    87   51   50 ar   
    88   52   50 ar   
    89   53   50 1    
@<TRIPOS>SUBSTRUCTURE
     1 FAD126      1 GROUP   
@<TRIPOS>SET

