#    Name: 1y8o_ADP_1_INTS_M
#    Modification time : Tue Mar 25 10:52:21 2014

@<TRIPOS>MOLECULE
1y8o_ADP_1_INTS_M
   46     0    15     0     0
SMALL
NO_CHARGES


@<TRIPOS>ATOM
      1 NZ        -46.5520   19.0000   72.6510 N.4       3 LYC4        0.0000 
      2 NZ        -46.9460   17.9210   73.3630 N.4      13 LYL4        0.0000 
      3 NZ        -45.4640   21.0170   72.5770 N.4       8 LYP4        0.0000 
      4 Zn        -47.9520   18.2095   74.0555 Zn        4 ZIC7        0.0000 
      5 Zn        -46.9460   17.9210   73.3630 Zn       14 ZIL7        0.0000 
      6 Zn        -48.9580   18.4980   74.7480 Zn        9 ZIP7        0.0000 
      7 N         -48.0510   18.9690   72.8905 N.am      2 SEC2        0.0000 
      8 N         -46.9460   17.9210   73.3630 N.am     12 SEL2        0.0000 
      9 N         -49.1560   20.0170   72.4180 N.am      7 SEP2        0.0000 
     10 N         -46.5520   19.0000   72.6510 N.am      2 SEC2        0.0000 
     11 N         -46.1580   20.0790   71.9390 N.am      7 SEP2        0.0000 
     12 N         -50.8310   14.4240   72.7010 N.am      2 SEC2        0.0000 
     13 N         -49.4330   14.3600   72.0410 N.am     12 SEL2        0.0000 
     14 N         -52.2290   14.4880   73.3610 N.am      7 SEP2        0.0000 
     15 Zn        -49.2350   17.6670   73.8845 Zn        4 ZIC7        0.0000 
     16 Zn        -49.5120   16.8360   73.0210 Zn       14 ZIL7        0.0000 
     17 N         -49.3340   18.4265   72.7195 N.am      2 SEC2        0.0000 
     18 N         -49.5120   16.8360   73.0210 N.am     12 SEL2        0.0000 
     19 CA        -49.6165   15.9285   69.5180 C.3       5 GLC5        0.0000 
     20 CA        -47.7190   15.6340   69.7900 C.3      15 GLL5        0.0000 
     21 CA        -51.5140   16.2230   69.2460 C.3      10 GLP5        0.0000 
     22 CA        -48.7005   17.3940   66.2795 C.3       5 GLC5        0.0000 
     23 CA        -47.3250   18.3080   67.2590 C.3      15 GLL5        0.0000 
     24 CA        -50.0760   16.4800   65.3000 C.3      10 GLP5        0.0000 
     25 CA        -48.4115   23.9430   67.1450 C.3       5 GLC5        0.0000 
     26 CA        -50.0150   22.5460   66.8570 C.3      15 GLL5        0.0000 
     27 CA        -46.8080   25.3400   67.4330 C.3      10 GLP5        0.0000 
     28 CA        -51.2245   23.0040   65.2475 C.3       5 GLC5        0.0000 
     29 CA        -52.4340   23.4620   63.6380 C.3      10 GLP5        0.0000 
     30 O         -51.5170   24.5240   66.9960 O.2       1 ALC1        0.0000 
     31 O         -51.1460   23.1860   67.2440 O.2      11 ALL1        0.0000 
     32 O         -51.8880   25.8620   66.7480 O.2       6 ALP1        0.0000 
     33 O         -52.3610   23.0380   68.2270 O.2       1 ALC1        0.0000 
     34 O         -53.5760   22.8900   69.2100 O.2       6 ALP1        0.0000 
     35 CA        -47.3955   23.9150   66.5220 C.3       5 GLC5        0.0000 
     36 CA        -47.9830   22.4900   65.6110 C.3      15 GLL5        0.0000 
     37 CA        -48.0240   21.3135   64.2555 C.3       5 GLC5        0.0000 
     38 CA        -48.0650   20.1370   62.9000 C.3      10 GLP5        0.0000 
     39 CA        -48.2485   20.3450   64.8730 C.3       5 GLC5        0.0000 
     40 CA        -48.4320   20.5530   66.8460 C.3      15 GLL5        0.0000 
     41 CA        -47.6460   15.5340   67.3252 C.3       5 GLC5        0.0000 
     42 CA        -46.9910   16.4800   68.7390 C.3      15 GLL5        0.0000 
     43 CA        -47.9370   15.0110   65.3860 C.3      10 GLP5        0.0000 
     44 CA        -50.0782   21.7553   69.1207 C.3       5 GLC5        0.0000 
     45 CA        -49.6960   21.1690   67.3180 C.3      15 GLL5        0.0000 
     46 CA        -50.3010   21.6530   71.1540 C.3      10 GLP5        0.0000 
@<TRIPOS>BOND
@<TRIPOS>SUBSTRUCTURE
     1 ALC1       30 GROUP        1 X    ALC  0     ROOT ALC X 1
     2 SEC2        7 GROUP        1 X    SEC  0     **** SEC X 2
     3 LYC4        1 GROUP        1 X    LYC  0     **** LYC X 4
     4 ZIC7        4 GROUP        1 X    ZIC  0     **** ZIC X 5
     5 GLC5       19 GROUP        1 X    GLC  0     **** GLC X 6
     6 ALP1       32 GROUP        1 Y    ALP  0     ROOT ALP Y 8
     7 SEP2        9 GROUP        1 Y    SEP  0     **** SEP Y 9
     8 LYP4        3 GROUP        1 Y    LYP  0     **** LYP Y 11
     9 ZIP7        6 GROUP        1 Y    ZIP  0     **** ZIP Y 12
    10 GLP5       21 GROUP        1 Y    GLP  0     **** GLP Y 13
    11 ALL1       31 GROUP        1 Z    ALL  0     ROOT ALL Z 15
    12 SEL2        8 GROUP        1 Z    SEL  0     **** SEL Z 16
    13 LYL4        2 GROUP        1 Z    LYL  0     **** LYL Z 18
    14 ZIL7        5 GROUP        1 Z    ZIL  0     **** ZIL Z 19
    15 GLL5       20 GROUP        1 Z    GLL  0     **** GLL Z 20
@<TRIPOS>SET

