#    Name: 1y8o_ADP_1_ligand
#    Modification time : Tue Mar 25 10:52:21 2014

@<TRIPOS>MOLECULE
1y8o_ADP_1_ligand
   39    41     1     0     0
SMALL
NO_CHARGES


@<TRIPOS>ATOM
      1 PB        -46.2550   16.5650   73.3180 P.3       1 ADP504      0.0000 
      2 O1B       -45.2790   16.3630   72.1750 O.co2     1 ADP504      0.0000 
      3 O2B       -45.8420   16.0780   74.7090 O.co2     1 ADP504      0.0000 
      4 O3B       -46.9460   17.9210   73.3630 O.co2     1 ADP504      0.0000 
      5 PA        -48.8140   15.7410   72.2220 P.3       1 ADP504      0.0000 
      6 O1A       -49.4330   14.3600   72.0410 O.co2     1 ADP504      0.0000 
      7 O2A       -49.5120   16.8360   73.0210 O.co2     1 ADP504      0.0000 
      8 O3A       -47.4000   15.4480   72.9730 O.3       1 ADP504      0.0000 
      9 O5'       -48.3870   16.3960   70.7930 O.3       1 ADP504      0.0000 
     10 C5'       -47.7190   15.6340   69.7900 C.3       1 ADP504      0.0000 
     11 C4'       -46.9910   16.4800   68.7390 C.3       1 ADP504      0.0000 
     12 O4'       -47.8500   17.0230   67.7030 O.3       1 ADP504      0.0000 
     13 C3'       -46.1790   17.6620   69.2830 C.3       1 ADP504      0.0000 
     14 O3'       -44.8980   17.1780   69.7010 O.3       1 ADP504      0.0000 
     15 C2'       -46.0780   18.6000   68.0870 C.3       1 ADP504      0.0000 
     16 O2'       -44.9560   18.2210   67.2760 O.3       1 ADP504      0.0000 
     17 C1'       -47.3250   18.3080   67.2590 C.3       1 ADP504      0.0000 
     18 N9        -48.3820   19.3470   67.4280 N.pl3     1 ADP504      0.0000 
     19 C8        -49.4870   19.1920   68.1860 C.2       1 ADP504      0.0000 
     20 N7        -50.2910   20.2750   68.1310 N.2       1 ADP504      0.0000 
     21 C5        -49.6960   21.1690   67.3180 C.ar      1 ADP504      0.0000 
     22 C6        -50.0150   22.5460   66.8570 C.ar      1 ADP504      0.0000 
     23 N6        -51.1460   23.1860   67.2440 N.pl3     1 ADP504      0.0000 
     24 N1        -49.1320   23.1110   66.0110 N.ar      1 ADP504      0.0000 
     25 C2        -47.9830   22.4900   65.6110 C.ar      1 ADP504      0.0000 
     26 N3        -47.6140   21.2540   66.0120 N.ar      1 ADP504      0.0000 
     27 C4        -48.4320   20.5530   66.8460 C.ar      1 ADP504      0.0000 
     28 H         -48.4298   14.9720   69.2429 H         1 ADP504      0.0000 
     29 H         -46.9639   14.9471   70.2381 H         1 ADP504      0.0000 
     30 H         -46.2406   15.8141   68.2336 H         1 ADP504      0.0000 
     31 H         -46.7373   18.1213   70.0432 H         1 ADP504      0.0000 
     32 H         -46.0777   19.5828   68.3892 H         1 ADP504      0.0000 
     33 H         -47.0378   18.2417   66.2234 H         1 ADP504      0.0000 
     34 H         -49.6847   18.3831   68.7178 H         1 ADP504      0.0000 
     35 H         -51.7648   22.6677   67.8344 H         1 ADP504      0.0000 
     36 H         -51.2613   24.1196   66.9048 H         1 ADP504      0.0000 
     37 H         -47.3425   23.0181   64.9415 H         1 ADP504      0.0000 
     38 H         -44.8865   17.3004   70.6934 H         1 ADP504      0.0000 
     39 H         -44.3240   17.7675   67.9044 H         1 ADP504      0.0000 
@<TRIPOS>BOND
     1    2    1 ar   
     2    3    1 ar   
     3    4    1 ar   
     4    8    1 1    
     5    6    5 ar   
     6    7    5 ar   
     7    8    5 1    
     8    9    5 1    
     9   10    9 1    
    10   11   10 1    
    11   28   10 1    
    12   29   10 1    
    13   12   11 1    
    14   13   11 1    
    15   30   11 1    
    16   17   12 1    
    17   14   13 1    
    18   15   13 1    
    19   31   13 1    
    20   38   14 1    
    21   16   15 1    
    22   17   15 1    
    23   32   15 1    
    24   39   16 1    
    25   18   17 1    
    26   33   17 1    
    27   19   18 1    
    28   27   18 1    
    29   20   19 2    
    30   34   19 1    
    31   21   20 1    
    32   22   21 ar   
    33   27   21 ar   
    34   23   22 1    
    35   24   22 ar   
    36   35   23 1    
    37   36   23 1    
    38   25   24 ar   
    39   26   25 ar   
    40   37   25 1    
    41   27   26 ar   
@<TRIPOS>SUBSTRUCTURE
     1 ADP504      1 GROUP   
@<TRIPOS>SET

