#    Name: 3bmo_NAP_3_INTS_M
#    Modification time : Mon Mar 24 19:54:20 2014

@<TRIPOS>MOLECULE
3bmo_NAP_3_INTS_M
  104     0    12     0     0
SMALL
NO_CHARGES


@<TRIPOS>ATOM
      1 NZ          3.2285   18.3725   38.5810 N.4       3 LYC4        0.0000 
      2 NZ          4.1370   17.3080   38.3890 N.4      11 LYL4        0.0000 
      3 NZ          1.7080   20.2460   37.8990 N.4       7 LYP4        0.0000 
      4 N           3.2285   18.3725   38.5810 N.am      2 SEC2        0.0000 
      5 N           4.1370   17.3080   38.3890 N.am     10 SEL2        0.0000 
      6 N           2.3200   19.4370   38.7730 N.am      6 SEP2        0.0000 
      7 CA          6.1860   12.5445   41.0505 C.3       4 GLC5        0.0000 
      8 CA          6.4060   14.0410   39.7610 C.3      12 GLL5        0.0000 
      9 CA          5.9660   11.0480   42.3400 C.3       8 GLP5        0.0000 
     10 CA          6.2000   12.0460   39.0185 C.3       4 GLC5        0.0000 
     11 CA          5.9940   10.0510   38.2760 C.3       8 GLP5        0.0000 
     12 N           6.9175   12.2535   37.6240 N.am      2 SEC2        0.0000 
     13 N           7.1450   13.1720   38.9110 N.am     10 SEL2        0.0000 
     14 N           6.6900   11.3350   36.3370 N.am      6 SEP2        0.0000 
     15 CA          7.1635   12.0350   40.9475 C.3       4 GLC5        0.0000 
     16 CA          8.3610   13.0220   39.5550 C.3      12 GLL5        0.0000 
     17 CA          7.7595   11.2490   39.2645 C.3       4 GLC5        0.0000 
     18 CA          7.1580    9.4760   38.9740 C.3       8 GLP5        0.0000 
     19 CA         13.3865   11.8645   39.7475 C.3       4 GLC5        0.0000 
     20 CA         12.5890   11.2790   37.9000 C.3      12 GLL5        0.0000 
     21 CA         14.1840   12.4500   41.5950 C.3       8 GLP5        0.0000 
     22 CA         12.2325    9.1120   38.0190 C.3       4 GLC5        0.0000 
     23 CA         11.8760    6.9450   38.1380 C.3       8 GLP5        0.0000 
     24 O          14.8475   10.6580   37.6260 O.2       1 ALC1        0.0000 
     25 O          13.6030   11.3950   37.0020 O.2       9 ALL1        0.0000 
     26 O          16.0920    9.9210   38.2500 O.2       5 ALP1        0.0000 
     27 N          13.3365    9.0920   38.9120 N.am      2 SEC2        0.0000 
     28 N          12.6500   10.3330   38.8890 N.am     10 SEL2        0.0000 
     29 N          14.0230    7.8510   38.9350 N.am      6 SEP2        0.0000 
     30 CA         12.2585   11.1780   41.0160 C.3       4 GLC5        0.0000 
     31 CA         11.6560   10.1460   39.8000 C.3      12 GLL5        0.0000 
     32 CA         12.8610   12.2100   42.2320 C.3       8 GLP5        0.0000 
     33 CA         13.5820    9.3770   40.2535 C.3       4 GLC5        0.0000 
     34 CA         15.5080    8.6080   40.7070 C.3       8 GLP5        0.0000 
     35 CA         11.7660    8.5455   38.9690 C.3       4 GLC5        0.0000 
     36 CA         11.6590   12.0580   40.5455 C.3       4 GLC5        0.0000 
     37 CA         10.4570   11.9060   38.8590 C.3      12 GLL5        0.0000 
     38 CA          8.8075   10.6910   38.9165 C.3       4 GLC5        0.0000 
     39 NZ          1.4265   18.4400   36.5075 N.4       3 LYC4        0.0000 
     40 NZ          1.3590   17.0580   36.3640 N.4      11 LYL4        0.0000 
     41 N           1.4265   18.4400   36.5075 N.am      2 SEC2        0.0000 
     42 N           1.3590   17.0580   36.3640 N.am     10 SEL2        0.0000 
     43 N           1.4940   19.8220   36.6510 N.am      6 SEP2        0.0000 
     44 N           0.2085   15.8280   39.8770 N.am      2 SEC2        0.0000 
     45 N           1.1370   15.8170   38.6300 N.am     10 SEL2        0.0000 
     46 N          -0.7200   15.8390   41.1240 N.am      6 SEP2        0.0000 
     47 CA         -0.4860   13.8205   38.2630 C.3       4 GLC5        0.0000 
     48 CA          0.8450   13.3230   37.0190 C.3      12 GLL5        0.0000 
     49 CA         -1.8170   14.3180   39.5070 C.3       8 GLP5        0.0000 
     50 N           2.4445   10.2035   33.3600 N.am      2 SEC2        0.0000 
     51 N           2.1950   10.7650   34.6470 N.am     10 SEL2        0.0000 
     52 N           2.6940    9.6420   32.0730 N.am      6 SEP2        0.0000 
     53 O           2.8280   10.6025   35.9125 O.2       1 ALC1        0.0000 
     54 O           2.1950   10.7650   34.6470 O.2       9 ALL1        0.0000 
     55 O           3.4610   10.4400   37.1780 O.2       5 ALP1        0.0000 
     56 CA          2.0615   11.5625   32.2575 C.3       4 GLC5        0.0000 
     57 CA          1.5550   12.9260   33.8320 C.3      12 GLL5        0.0000 
     58 CA          2.5680   10.1990   30.6830 C.3       8 GLP5        0.0000 
     59 N           2.4415   11.1195   32.3285 N.am      2 SEC2        0.0000 
     60 N           2.1890   12.5970   32.5840 N.am     10 SEL2        0.0000 
     61 O           3.8275   12.4570   32.7935 O.2       1 ALC1        0.0000 
     62 O           2.1890   12.5970   32.5840 O.2       9 ALL1        0.0000 
     63 O           5.4660   12.3170   33.0030 O.2       5 ALP1        0.0000 
     64 CA         -0.2455   10.6755   34.6695 C.3       4 GLC5        0.0000 
     65 CA          0.0290   12.6460   33.7920 C.3      12 GLL5        0.0000 
     66 CA         -0.5200    8.7050   35.5470 C.3       8 GLP5        0.0000 
     67 CA         -2.1565   12.5650   33.7410 C.3       4 GLC5        0.0000 
     68 CA         -4.3420   12.4840   33.6900 C.3       8 GLP5        0.0000 
     69 CA         -2.5620   13.7125   33.6890 C.3       4 GLC5        0.0000 
     70 CA         -0.7820   14.9410   33.6880 C.3      12 GLL5        0.0000 
     71 N          -3.7400   18.4295   33.1145 N.am      2 SEC2        0.0000 
     72 N          -2.4220   18.1410   32.9720 N.am     10 SEL2        0.0000 
     73 N          -5.0580   18.7180   33.2570 N.am      6 SEP2        0.0000 
     74 O          -0.9535   19.1085   35.0290 O.2       1 ALC1        0.0000 
     75 O          -0.8650   17.6680   34.6890 O.2       9 ALL1        0.0000 
     76 O          -1.0420   20.5490   35.3690 O.2       5 ALP1        0.0000 
     77 CA         -2.6960   12.4310   32.2510 C.3       4 GLC5        0.0000 
     78 CA         -1.1630   13.4520   31.8250 C.3      12 GLL5        0.0000 
     79 CA         -4.2290   11.4100   32.6770 C.3       8 GLP5        0.0000 
     80 N          10.7040   13.2630   44.1540 N.am      2 SEC2        0.0000 
     81 N           9.8370   14.4010   44.0050 N.am     10 SEL2        0.0000 
     82 N          11.5710   12.1250   44.3030 N.am      6 SEP2        0.0000 
     83 N          10.7490   15.2520   44.8885 N.am      2 SEC2        0.0000 
     84 N          11.6610   16.1030   45.7720 N.am      6 SEP2        0.0000 
     85 N          12.1755   14.9455   42.9615 N.am      2 SEC2        0.0000 
     86 N          11.1730   15.2520   42.0160 N.am     10 SEL2        0.0000 
     87 N          13.1780   14.6390   43.9070 N.am      6 SEP2        0.0000 
     88 N           9.2365   17.1100   43.7645 N.am      2 SEC2        0.0000 
     89 N           9.0240   16.4030   42.6570 N.am     10 SEL2        0.0000 
     90 N           9.4490   17.8170   44.8720 N.am      6 SEP2        0.0000 
     91 CA         11.2340   10.8113   36.7041 C.3       4 GLC5        0.0000 
     92 CA         11.4410   12.0910   37.8790 C.3      12 GLL5        0.0000 
     93 CA         11.2320    9.8270   35.0340 C.3       8 GLP5        0.0000 
     94 CA          0.4110   10.4280   35.5235 C.3       4 GLC5        0.0000 
     95 CA          1.9550   12.0820   35.0440 C.3      12 GLL5        0.0000 
     96 CA          3.5695   12.2070   34.4060 C.3       4 GLC5        0.0000 
     97 CA          5.3840   11.9100   34.3740 C.3       8 GLP5        0.0000 
     98 CA         -1.8228   15.3540   35.3055 C.3       4 GLC5        0.0000 
     99 CA         -2.5440   15.2630   37.2690 C.3       8 GLP5        0.0000 
    100 CA         -1.2317   12.6792   29.7770 C.3       4 GLC5        0.0000 
    101 CA         -1.7940   14.4530   31.1070 C.3      12 GLL5        0.0000 
    102 CA         -0.9850   11.4060   28.0880 C.3       8 GLP5        0.0000 
    103 CA         -3.3174   14.4144   32.3351 C.3       4 GLC5        0.0000 
    104 CA         -4.8980   13.6880   32.9410 C.3       8 GLP5        0.0000 
@<TRIPOS>BOND
@<TRIPOS>SUBSTRUCTURE
     1 ALC1       24 GROUP        1 X    ALC  0     ROOT ALC X 1
     2 SEC2        4 GROUP        1 X    SEC  0     **** SEC X 2
     3 LYC4        1 GROUP        1 X    LYC  0     **** LYC X 4
     4 GLC5        7 GROUP        1 X    GLC  0     **** GLC X 6
     5 ALP1       26 GROUP        1 Y    ALP  0     ROOT ALP Y 8
     6 SEP2        6 GROUP        1 Y    SEP  0     **** SEP Y 9
     7 LYP4        3 GROUP        1 Y    LYP  0     **** LYP Y 11
     8 GLP5        9 GROUP        1 Y    GLP  0     **** GLP Y 13
     9 ALL1       25 GROUP        1 Z    ALL  0     ROOT ALL Z 15
    10 SEL2        5 GROUP        1 Z    SEL  0     **** SEL Z 16
    11 LYL4        2 GROUP        1 Z    LYL  0     **** LYL Z 18
    12 GLL5        8 GROUP        1 Z    GLL  0     **** GLL Z 20
@<TRIPOS>SET

