#    Name: 3bmo_NAP_3_ligand
#    Modification time : Mon Mar 24 19:54:20 2014

@<TRIPOS>MOLECULE
3bmo_NAP_3_ligand
   73    77     1     0     0
SMALL
NO_CHARGES


@<TRIPOS>ATOM
      1 PA          4.4450   16.3220   37.3530 P.3       1 NAP271      0.0000 
      2 O1A         5.0390   16.8470   36.1080 O.co2     1 NAP271      0.0000 
      3 O2A         4.1370   17.3080   38.3890 O.co2     1 NAP271      0.0000 
      4 O5B         5.4810   15.2210   37.9170 O.3       1 NAP271      0.0000 
      5 C5B         5.1120   14.4800   39.0610 C.3       1 NAP271      0.0000 
      6 C4B         6.4060   14.0410   39.7610 C.3       1 NAP271      0.0000 
      7 O4B         7.1450   13.1720   38.9110 O.3       1 NAP271      0.0000 
      8 C3B         7.3550   15.1580   40.1530 C.3       1 NAP271      0.0000 
      9 O3B         6.9050   15.8590   41.2870 O.3       1 NAP271      0.0000 
     10 C2B         8.6450   14.3610   40.3530 C.3       1 NAP271      0.0000 
     11 O2B         8.9610   14.0950   41.7010 O.3       1 NAP271      0.0000 
     12 C1B         8.3610   13.0220   39.5550 C.3       1 NAP271      0.0000 
     13 N9A         9.4930   12.8270   38.6510 N.pl3     1 NAP271      0.0000 
     14 C8A         9.8520   13.5790   37.5480 C.2       1 NAP271      0.0000 
     15 N7A        11.0360   13.1370   37.0900 N.2       1 NAP271      0.0000 
     16 C5A        11.4410   12.0910   37.8790 C.ar      1 NAP271      0.0000 
     17 C6A        12.5890   11.2790   37.9000 C.ar      1 NAP271      0.0000 
     18 N6A        13.6030   11.3950   37.0020 N.pl3     1 NAP271      0.0000 
     19 N1A        12.6500   10.3330   38.8890 N.ar      1 NAP271      0.0000 
     20 C2A        11.6560   10.1460   39.8000 C.ar      1 NAP271      0.0000 
     21 N3A        10.5230   10.9430   39.8150 N.ar      1 NAP271      0.0000 
     22 C4A        10.4570   11.9060   38.8590 C.ar      1 NAP271      0.0000 
     23 O3          3.1320   15.4650   37.0770 O.3       1 NAP271      0.0000 
     24 PN          1.5820   15.8680   37.2040 P.3       1 NAP271      0.0000 
     25 O1N         1.3590   17.0580   36.3640 O.co2     1 NAP271      0.0000 
     26 O2N         1.1370   15.8170   38.6300 O.co2     1 NAP271      0.0000 
     27 O5D         0.9880   14.6230   36.3530 O.3       1 NAP271      0.0000 
     28 C5D         0.8450   13.3230   37.0190 C.3       1 NAP271      0.0000 
     29 C4D         0.7290   12.2200   35.9560 C.3       1 NAP271      0.0000 
     30 O4D        -0.4120   12.5410   35.1180 O.3       1 NAP271      0.0000 
     31 C3D         1.9550   12.0820   35.0440 C.3       1 NAP271      0.0000 
     32 O3D         2.1950   10.7650   34.6470 O.3       1 NAP271      0.0000 
     33 C2D         1.5550   12.9260   33.8320 C.3       1 NAP271      0.0000 
     34 O2D         2.1890   12.5970   32.5840 O.3       1 NAP271      0.0000 
     35 C1D         0.0290   12.6460   33.7920 C.3       1 NAP271      0.0000 
     36 N1N        -0.7030   13.7190   33.0880 N.pl3     1 NAP271      0.0000 
     37 C2N        -0.7820   14.9410   33.6880 C.ar      1 NAP271      0.0000 
     38 C3N        -1.4210   15.9490   32.9960 C.ar      1 NAP271      0.0000 
     39 C7N        -1.5660   17.3120   33.6090 C.2       1 NAP271      0.0000 
     40 O7N        -2.4220   18.1410   32.9720 O.2       1 NAP271      0.0000 
     41 N7N        -0.8650   17.6680   34.6890 N.am      1 NAP271      0.0000 
     42 C4N        -1.9380   15.7080   31.7070 C.ar      1 NAP271      0.0000 
     43 C5N        -1.7940   14.4530   31.1070 C.ar      1 NAP271      0.0000 
     44 C6N        -1.1630   13.4520   31.8250 C.ar      1 NAP271      0.0000 
     45 P2B         9.8070   15.0890   42.6550 P.3       1 NAP271      0.0000 
     46 O1X         9.8370   14.4010   44.0050 O.co2     1 NAP271      0.0000 
     47 O2X        11.1730   15.2520   42.0160 O.co2     1 NAP271      0.0000 
     48 O3X         9.0240   16.4030   42.6570 O.co2     1 NAP271      0.0000 
     49 H           4.5523   13.5805   38.8128 H         1 NAP271      0.0000 
     50 H           4.5382   15.0698   39.7729 H         1 NAP271      0.0000 
     51 H           6.1327   13.5000   40.6739 H         1 NAP271      0.0000 
     52 H           7.4935   15.7652   39.2769 H         1 NAP271      0.0000 
     53 H           9.4254   14.8586   39.8051 H         1 NAP271      0.0000 
     54 H           8.3490   12.2490   40.3087 H         1 NAP271      0.0000 
     55 H           9.3248   14.2976   37.1842 H         1 NAP271      0.0000 
     56 H          13.3538   11.7478   36.1001 H         1 NAP271      0.0000 
     57 H          14.5086   11.1173   37.3226 H         1 NAP271      0.0000 
     58 H          11.7400    9.3838   40.5112 H         1 NAP271      0.0000 
     59 H          -0.0510   13.2972   37.6359 H         1 NAP271      0.0000 
     60 H           1.7107   13.1063   37.6417 H         1 NAP271      0.0000 
     61 H           0.5566   11.2782   36.4525 H         1 NAP271      0.0000 
     62 H           2.7713   12.5681   35.5140 H         1 NAP271      0.0000 
     63 H           1.6525   13.9604   34.1132 H         1 NAP271      0.0000 
     64 H          -0.1000   11.7075   33.2639 H         1 NAP271      0.0000 
     65 H          -0.3874   15.1105   34.6100 H         1 NAP271      0.0000 
     66 H          -0.2676   16.9661   35.0769 H         1 NAP271      0.0000 
     67 H          -1.0006   18.6044   35.0126 H         1 NAP271      0.0000 
     68 H          -2.4238   16.4637   31.2082 H         1 NAP271      0.0000 
     69 H          -2.1456   14.2871   30.1685 H         1 NAP271      0.0000 
     70 H          -1.0436   12.5191   31.4093 H         1 NAP271      0.0000 
     71 H           7.7352   16.0918   41.7935 H         1 NAP271      0.0000 
     72 H           2.6462   10.3369   35.4301 H         1 NAP271      0.0000 
     73 H           3.1528   12.4586   32.8120 H         1 NAP271      0.0000 
@<TRIPOS>BOND
     1    2    1 ar   
     2    3    1 ar   
     3    4    1 1    
     4   23    1 1    
     5    5    4 1    
     6    6    5 1    
     7   49    5 1    
     8   50    5 1    
     9    7    6 1    
    10    8    6 1    
    11   51    6 1    
    12   12    7 1    
    13    9    8 1    
    14   10    8 1    
    15   52    8 1    
    16   71    9 1    
    17   11   10 1    
    18   12   10 1    
    19   53   10 1    
    20   45   11 1    
    21   13   12 1    
    22   54   12 1    
    23   14   13 1    
    24   22   13 1    
    25   15   14 2    
    26   55   14 1    
    27   16   15 1    
    28   17   16 ar   
    29   22   16 ar   
    30   18   17 1    
    31   19   17 ar   
    32   56   18 1    
    33   57   18 1    
    34   20   19 ar   
    35   21   20 ar   
    36   58   20 1    
    37   22   21 ar   
    38   24   23 1    
    39   25   24 ar   
    40   26   24 ar   
    41   27   24 1    
    42   28   27 1    
    43   29   28 1    
    44   59   28 1    
    45   60   28 1    
    46   30   29 1    
    47   31   29 1    
    48   61   29 1    
    49   35   30 1    
    50   32   31 1    
    51   33   31 1    
    52   62   31 1    
    53   72   32 1    
    54   34   33 1    
    55   35   33 1    
    56   63   33 1    
    57   73   34 1    
    58   36   35 1    
    59   64   35 1    
    60   37   36 ar   
    61   44   36 ar   
    62   38   37 ar   
    63   65   37 1    
    64   39   38 1    
    65   42   38 ar   
    66   40   39 2    
    67   41   39 am   
    68   66   41 1    
    69   67   41 1    
    70   43   42 ar   
    71   68   42 1    
    72   44   43 ar   
    73   69   43 1    
    74   70   44 1    
    75   46   45 ar   
    76   47   45 ar   
    77   48   45 ar   
@<TRIPOS>SUBSTRUCTURE
     1 NAP271      1 GROUP   
@<TRIPOS>SET

