#    Name: 3zvn_ADP_1_INTS_M
#    Modification time : Tue Mar 25 04:01:40 2014

@<TRIPOS>MOLECULE
3zvn_ADP_1_INTS_M
   58     0    15     0     0
SMALL
NO_CHARGES


@<TRIPOS>ATOM
      1 Zn         -4.9570   -4.3495   -7.2115 Zn        4 ZIC7        0.0000 
      2 Zn         -4.2020   -5.1030   -7.0880 Zn       14 ZIL7        0.0000 
      3 Zn         -5.7120   -3.5960   -7.3350 Zn        9 ZIP7        0.0000 
      4 N          -4.9705   -6.2745   -6.9335 N.am      2 SEC2        0.0000 
      5 N          -4.2020   -5.1030   -7.0880 N.am     12 SEL2        0.0000 
      6 N          -5.7390   -7.4460   -6.7790 N.am      7 SEP2        0.0000 
      7 N          -0.9825   -3.3750   -6.4295 N.am      2 SEC2        0.0000 
      8 N          -2.2770   -3.4480   -6.9540 N.am     12 SEL2        0.0000 
      9 N           0.3120   -3.3020   -5.9050 N.am      7 SEP2        0.0000 
     10 NZ         -2.7335   -4.7465   -4.2090 N.4       3 LYC4        0.0000 
     11 NZ         -2.2740   -5.5310   -5.5100 N.4      13 LYL4        0.0000 
     12 NZ         -3.1930   -3.9620   -2.9080 N.4       8 LYP4        0.0000 
     13 N          -0.9810   -4.4165   -5.7075 N.am      2 SEC2        0.0000 
     14 N          -2.2740   -5.5310   -5.5100 N.am     12 SEL2        0.0000 
     15 N          -1.3825   -6.6175   -5.7435 N.am      2 SEC2        0.0000 
     16 N          -0.4910   -7.7040   -5.9770 N.am      7 SEP2        0.0000 
     17 N          -2.7220   -6.7760   -5.4980 N.am      2 SEC2        0.0000 
     18 N          -3.1700   -8.0210   -5.4860 N.am      7 SEP2        0.0000 
     19 N          -2.7335   -4.7465   -4.2090 N.am      2 SEC2        0.0000 
     20 N          -3.1930   -3.9620   -2.9080 N.am      7 SEP2        0.0000 
     21 N          -4.4290   -8.2715   -9.1580 N.am      2 SEC2        0.0000 
     22 N          -3.3180   -7.4680   -9.2080 N.am     12 SEL2        0.0000 
     23 N          -5.5400   -9.0750   -9.1080 N.am      7 SEP2        0.0000 
     24 N          -3.4095   -8.3400  -10.1945 N.am      2 SEC2        0.0000 
     25 N          -3.5010   -9.2120  -11.1810 N.am      7 SEP2        0.0000 
     26 NZ         -2.2065   -3.7695   -9.6845 N.4       3 LYC4        0.0000 
     27 NZ         -3.1070   -4.9640  -10.0380 N.4      13 LYL4        0.0000 
     28 NZ         -0.9020   -2.0420  -10.4820 N.4       8 LYP4        0.0000 
     29 N          -2.3395   -3.6240  -10.8250 N.am      2 SEC2        0.0000 
     30 N          -3.1070   -4.9640  -10.0380 N.am     12 SEL2        0.0000 
     31 N          -1.5720   -2.2840  -11.6120 N.am      7 SEP2        0.0000 
     32 N          -2.2065   -3.7695   -9.6845 N.am      2 SEC2        0.0000 
     33 N          -1.3060   -2.5750   -9.3310 N.am      7 SEP2        0.0000 
     34 N          -1.2075   -6.6940   -6.9605 N.am      2 SEC2        0.0000 
     35 N          -1.9240   -5.6840   -7.9440 N.am     12 SEL2        0.0000 
     36 CA          0.5710   -4.9270   -8.4660 C.3       5 GLC5        0.0000 
     37 CA         -0.1120   -5.7760  -10.2410 C.3      15 GLL5        0.0000 
     38 CA          1.2540   -4.0780   -6.6910 C.3      10 GLP5        0.0000 
     39 CA          3.2570  -14.5095  -10.2755 C.3       5 GLC5        0.0000 
     40 CA          1.6810  -12.9190  -10.2780 C.3      15 GLL5        0.0000 
     41 CA          4.8330  -16.1000  -10.2730 C.3      10 GLP5        0.0000 
     42 CA          1.5030  -14.1715  -11.9485 C.3       5 GLC5        0.0000 
     43 CA          1.3250  -15.4240  -13.6190 C.3      10 GLP5        0.0000 
     44 O           1.9440  -14.9340   -8.9615 O.2       1 ALC1        0.0000 
     45 O           1.2500  -13.8080   -9.3490 O.2      11 ALL1        0.0000 
     46 O           2.6380  -16.0600   -8.5740 O.2       6 ALP1        0.0000 
     47 N           2.8605  -14.6095  -11.5470 N.am      2 SEC2        0.0000 
     48 N           2.6680  -13.2210  -11.1480 N.am     12 SEL2        0.0000 
     49 N           3.0530  -15.9980  -11.9460 N.am      7 SEP2        0.0000 
     50 CA          4.8300  -13.4870  -12.2185 C.3       5 GLC5        0.0000 
     51 CA          3.0990  -12.3490  -12.0690 C.3      15 GLL5        0.0000 
     52 CA          6.5610  -14.6250  -12.3680 C.3      10 GLP5        0.0000 
     53 CA          2.2120  -13.8865  -12.8440 C.3       5 GLC5        0.0000 
     54 CA          2.1812   -5.9612  -10.0725 C.3       5 GLC5        0.0000 
     55 CA          0.7470   -6.1130  -11.4510 C.3      15 GLL5        0.0000 
     56 CA          4.0450   -5.9780   -9.2990 C.3      10 GLP5        0.0000 
     57 CA          0.0210   -4.4310  -12.9367 C.3       5 GLC5        0.0000 
     58 CA         -0.3100   -2.6250  -13.7870 C.3      10 GLP5        0.0000 
@<TRIPOS>BOND
@<TRIPOS>SUBSTRUCTURE
     1 ALC1       44 GROUP        1 X    ALC  0     ROOT ALC X 1
     2 SEC2        4 GROUP        1 X    SEC  0     **** SEC X 2
     3 LYC4       10 GROUP        1 X    LYC  0     **** LYC X 4
     4 ZIC7        1 GROUP        1 X    ZIC  0     **** ZIC X 5
     5 GLC5       36 GROUP        1 X    GLC  0     **** GLC X 6
     6 ALP1       46 GROUP        1 Y    ALP  0     ROOT ALP Y 8
     7 SEP2        6 GROUP        1 Y    SEP  0     **** SEP Y 9
     8 LYP4       12 GROUP        1 Y    LYP  0     **** LYP Y 11
     9 ZIP7        3 GROUP        1 Y    ZIP  0     **** ZIP Y 12
    10 GLP5       38 GROUP        1 Y    GLP  0     **** GLP Y 13
    11 ALL1       45 GROUP        1 Z    ALL  0     ROOT ALL Z 15
    12 SEL2        5 GROUP        1 Z    SEL  0     **** SEL Z 16
    13 LYL4       11 GROUP        1 Z    LYL  0     **** LYL Z 18
    14 ZIL7        2 GROUP        1 Z    ZIL  0     **** ZIL Z 19
    15 GLL5       37 GROUP        1 Z    GLL  0     **** GLL Z 20
@<TRIPOS>SET

