#    Name: 3zvn_ADP_1_ligand
#    Modification time : Tue Mar 25 04:01:40 2014

@<TRIPOS>MOLECULE
3zvn_ADP_1_ligand
   39    41     1     0     0
SMALL
NO_CHARGES


@<TRIPOS>ATOM
      1 PB         -2.7400   -4.8820   -6.7940 P.3       1 ADP1524     0.0000 
      2 O1B        -4.2020   -5.1030   -7.0880 O.co2     1 ADP1524     0.0000 
      3 O2B        -2.2770   -3.4480   -6.9540 O.co2     1 ADP1524     0.0000 
      4 O3B        -2.2740   -5.5310   -5.5100 O.co2     1 ADP1524     0.0000 
      5 PA         -2.5410   -6.1800   -9.3700 P.3       1 ADP1524     0.0000 
      6 O1A        -3.3180   -7.4680   -9.2080 O.co2     1 ADP1524     0.0000 
      7 O2A        -3.1070   -4.9640  -10.0380 O.co2     1 ADP1524     0.0000 
      8 O3A        -1.9240   -5.6840   -7.9440 O.3       1 ADP1524     0.0000 
      9 O5'        -1.2490   -6.6110  -10.2350 O.3       1 ADP1524     0.0000 
     10 C5'        -0.1120   -5.7760  -10.2410 C.3       1 ADP1524     0.0000 
     11 C4'         0.7470   -6.1130  -11.4510 C.3       1 ADP1524     0.0000 
     12 O4'         1.4690   -7.3260  -11.2010 O.3       1 ADP1524     0.0000 
     13 C3'        -0.0430   -6.3610  -12.7220 C.3       1 ADP1524     0.0000 
     14 O3'         0.8390   -5.9930  -13.7900 O.3       1 ADP1524     0.0000 
     15 C2'        -0.2270   -7.8620  -12.7490 C.3       1 ADP1524     0.0000 
     16 O2'        -0.3520   -8.3750  -14.0790 O.3       1 ADP1524     0.0000 
     17 C1'         1.0770   -8.3360  -12.1230 C.3       1 ADP1524     0.0000 
     18 N9          0.8950   -9.5440  -11.3010 N.pl3     1 ADP1524     0.0000 
     19 C8          0.0080   -9.6710  -10.2980 C.2       1 ADP1524     0.0000 
     20 N7          0.1030  -10.9010   -9.7370 N.2       1 ADP1524     0.0000 
     21 C5          1.0740  -11.5740  -10.3800 C.ar      1 ADP1524     0.0000 
     22 C6          1.6810  -12.9190  -10.2780 C.ar      1 ADP1524     0.0000 
     23 N6          1.2500  -13.8080   -9.3490 N.pl3     1 ADP1524     0.0000 
     24 N1          2.6680  -13.2210  -11.1480 N.ar      1 ADP1524     0.0000 
     25 C2          3.0990  -12.3490  -12.0690 C.ar      1 ADP1524     0.0000 
     26 N3          2.5900  -11.1080  -12.2170 N.ar      1 ADP1524     0.0000 
     27 C4          1.5950  -10.6750  -11.4140 C.ar      1 ADP1524     0.0000 
     28 H           0.5060   -5.9119   -9.3456 H         1 ADP1524     0.0000 
     29 H          -0.3784   -4.7145  -10.3070 H         1 ADP1524     0.0000 
     30 H           1.4404   -5.3059  -11.6321 H         1 ADP1524     0.0000 
     31 H          -0.9294   -5.8695  -12.6995 H         1 ADP1524     0.0000 
     32 H          -1.0152   -8.1233  -12.1025 H         1 ADP1524     0.0000 
     33 H           1.8038   -8.4821  -12.8659 H         1 ADP1524     0.0000 
     34 H          -0.6188   -8.9778  -10.0100 H         1 ADP1524     0.0000 
     35 H           1.6905  -14.7057   -9.3613 H         1 ADP1524     0.0000 
     36 H           0.5298  -13.4872   -8.7339 H         1 ADP1524     0.0000 
     37 H           3.8880  -12.6482  -12.7235 H         1 ADP1524     0.0000 
     38 H           0.9137   -6.8127  -14.3579 H         1 ADP1524     0.0000 
     39 H           0.0209   -9.3019  -14.0349 H         1 ADP1524     0.0000 
@<TRIPOS>BOND
     1    2    1 ar   
     2    3    1 ar   
     3    4    1 ar   
     4    8    1 1    
     5    6    5 ar   
     6    7    5 ar   
     7    8    5 1    
     8    9    5 1    
     9   10    9 1    
    10   11   10 1    
    11   28   10 1    
    12   29   10 1    
    13   12   11 1    
    14   13   11 1    
    15   30   11 1    
    16   17   12 1    
    17   14   13 1    
    18   15   13 1    
    19   31   13 1    
    20   38   14 1    
    21   16   15 1    
    22   17   15 1    
    23   32   15 1    
    24   39   16 1    
    25   18   17 1    
    26   33   17 1    
    27   19   18 1    
    28   27   18 1    
    29   20   19 2    
    30   34   19 1    
    31   21   20 1    
    32   22   21 ar   
    33   27   21 ar   
    34   23   22 1    
    35   24   22 ar   
    36   35   23 1    
    37   36   23 1    
    38   25   24 ar   
    39   26   25 ar   
    40   37   25 1    
    41   27   26 ar   
@<TRIPOS>SUBSTRUCTURE
     1 ADP1524     1 GROUP   
@<TRIPOS>SET

