#    Name: 1PR5_2_CAVITY_N1_6.mol2
#    Modification time : Tue Mar 11 01:40:57 2014

@<TRIPOS>MOLECULE
1PR5_2_CAVITY_N1_6.mol2
   74     0     6     0     0
SMALL
NO_CHARGES


@<TRIPOS>ATOM
      1 OG         76.7511   29.6994  -10.2788 O.2       1 SER1        0.0000 
      2 OG         76.2308   29.2947   -8.9313 O.2       1 SER1        0.0000 
      3 OG         75.7106   28.8900   -7.5839 O.2       1 SER1        0.0000 
      4 DU         75.1903   28.4852   -6.2365 H         6 CUB7        0.0000 
      5 CA         74.6700   28.0805   -4.8891 C.3       5 GLY6        0.0000 
      6 DU         75.6218   28.0645   -9.5360 H         6 CUB7        0.0000 
      7 DU         75.1015   27.6598   -8.1886 H         6 CUB7        0.0000 
      8 O          74.5813   27.2550   -6.8412 O.2       2 ALA2        0.0000 
      9 CA         74.0610   26.8503   -5.4938 C.3       5 GLY6        0.0000 
     10 CA         74.4925   26.4296   -8.7933 C.3       5 GLY6        0.0000 
     11 CA         73.9722   26.0248   -7.4459 C.3       5 GLY6        0.0000 
     12 O          73.4520   25.6201   -6.0985 O.2       2 ALA2        0.0000 
     13 O          77.5878   29.3633   -6.7169 O.2       2 ALA2        0.0000 
     14 O          77.0676   28.9586   -5.3695 O.2       2 ALA2        0.0000 
     15 NZ         76.5473   28.5539   -4.0221 N.2       3 LYS4        0.0000 
     16 O          77.4990   28.5379   -8.6690 O.2       2 ALA2        0.0000 
     17 O          76.9788   28.1331   -7.3216 O.2       2 ALA2        0.0000 
     18 CA         76.4585   27.7284   -5.9742 C.3       5 GLY6        0.0000 
     19 CA         75.9383   27.3236   -4.6268 C.3       5 GLY6        0.0000 
     20 DU         76.8900   27.3077   -9.2737 H         6 CUB7        0.0000 
     21 O          76.3697   26.9029   -7.9263 O.2       2 ALA2        0.0000 
     22 O          75.8495   26.4982   -6.5789 O.2       2 ALA2        0.0000 
     23 O          78.2470   27.3763   -7.0592 O.2       2 ALA2        0.0000 
     24 CZ         72.6037   33.2161   -5.8141 C.ar      4 PHE5        0.0000 
     25 CZ         72.0835   32.8114   -4.4667 C.ar      4 PHE5        0.0000 
     26 CA         71.5632   32.4066   -3.1193 C.3       5 GLY6        0.0000 
     27 CZ         71.9947   31.9859   -6.4188 C.ar      4 PHE5        0.0000 
     28 CZ         71.4744   31.5811   -5.0714 C.ar      4 PHE5        0.0000 
     29 CA         70.9542   31.1764   -3.7240 C.3       5 GLY6        0.0000 
     30 CA         70.4339   30.7717   -2.3766 C.3       5 GLY6        0.0000 
     31 CA         70.8654   30.3509   -5.6761 C.3       5 GLY6        0.0000 
     32 CA         73.9607   33.2847   -3.5997 C.3       5 GLY6        0.0000 
     33 DU         73.8720   32.4593   -5.5518 H         6 CUB7        0.0000 
     34 CA         73.3517   32.0545   -4.2044 C.3       5 GLY6        0.0000 
     35 OG         73.7832   31.6338   -7.5039 O.2       1 SER1        0.0000 
     36 DU         73.2629   31.2291   -6.1565 H         6 CUB7        0.0000 
     37 CA         72.7426   30.8243   -4.8091 C.3       5 GLY6        0.0000 
     38 CA         72.2224   30.4196   -3.4617 C.3       5 GLY6        0.0000 
     39 DU         72.6539   29.9989   -6.7612 H         6 CUB7        0.0000 
     40 CA         72.1336   29.5941   -5.4138 C.3       5 GLY6        0.0000 
     41 CZ         68.4177   32.6901   -4.2487 C.ar      4 PHE5        0.0000 
     42 CZ         67.8975   32.2853   -2.9013 C.ar      4 PHE5        0.0000 
     43 N          75.7492   32.9326   -4.6848 N.2       2 ALA2        0.0000 
     44 CA         75.2290   32.5279   -3.3374 C.3       5 GLY6        0.0000 
     45 OG         75.6604   32.1072   -6.6369 O.2       1 SER1        0.0000 
     46 N          75.1402   31.7024   -5.2895 N.2       2 ALA2        0.0000 
     47 NZ         74.6199   31.2977   -3.9421 N.2       3 LYS4        0.0000 
     48 CA         74.0997   30.8930   -2.5946 C.3       5 GLY6        0.0000 
     49 OG         75.0514   30.8770   -7.2416 O.2       1 SER1        0.0000 
     50 DU         74.5311   30.4722   -5.8942 H         6 CUB7        0.0000 
     51 CA         74.0109   30.0675   -4.5467 C.3       5 GLY6        0.0000 
     52 CA         73.4906   29.6628   -3.1993 C.3       5 GLY6        0.0000 
     53 OG         76.0031   30.8610  -11.8885 O.2       1 SER1        0.0000 
     54 OG         75.4828   30.4563  -10.5411 O.2       1 SER1        0.0000 
     55 OG         74.9626   30.0515   -9.1937 O.2       1 SER1        0.0000 
     56 OG         74.4423   29.6468   -7.8463 O.2       1 SER1        0.0000 
     57 DU         73.9221   29.2420   -6.4989 H         6 CUB7        0.0000 
     58 CA         73.4018   28.8373   -5.1514 C.3       5 GLY6        0.0000 
     59 DU         74.8738   29.2261  -11.1458 H         6 CUB7        0.0000 
     60 DU         74.3535   28.8213   -9.7984 H         6 CUB7        0.0000 
     61 DU         73.8333   28.4166   -8.4510 H         6 CUB7        0.0000 
     62 DU         73.3130   28.0118   -7.1036 H         6 CUB7        0.0000 
     63 CA         72.7928   27.6071   -5.7561 C.3       5 GLY6        0.0000 
     64 N          76.4084   30.9456   -5.0271 N.2       2 ALA2        0.0000 
     65 NZ         75.8881   30.5409   -3.6797 N.2       3 LYS4        0.0000 
     66 OG         76.3196   30.1202   -6.9792 O.2       1 SER1        0.0000 
     67 DU         75.7994   29.7154   -5.6318 H         6 CUB7        0.0000 
     68 NZ         75.2791   29.3107   -4.2844 N.2       3 LYS4        0.0000 
     69 CA         74.7588   28.9059   -2.9370 C.3       5 GLY6        0.0000 
     70 CZ         70.7265   32.7427   -6.6812 C.ar      4 PHE5        0.0000 
     71 CZ         70.2062   32.3380   -5.3338 C.ar      4 PHE5        0.0000 
     72 CZ         69.6859   31.9332   -3.9864 C.ar      4 PHE5        0.0000 
     73 CA         69.0769   30.7030   -4.5911 C.3       5 GLY6        0.0000 
     74 CA         68.5566   30.2983   -3.2436 C.3       5 GLY6        0.0000 
@<TRIPOS>BOND
@<TRIPOS>SUBSTRUCTURE
     1 SER1        1 GROUP   
     2 ALA2        8 GROUP   
     3 LYS4       15 GROUP   
     4 PHE5       24 GROUP   
     5 GLY6        5 GROUP   
     6 CUB7        4 GROUP   
@<TRIPOS>SET

