#    Name: 1pr5_TBN_2_INTS_M
#    Modification time : Mon Mar 24 22:09:52 2014

@<TRIPOS>MOLECULE
1pr5_TBN_2_INTS_M
   47     0     9     0     0
SMALL
NO_CHARGES


@<TRIPOS>ATOM
      1 CA         71.4200   33.0805   -4.0705 C.3       3 GLC5        0.0000 
      2 CA         72.3800   31.3930   -4.3980 C.3       9 GLL5        0.0000 
      3 CA         70.4600   34.7680   -3.7430 C.3       6 GLP5        0.0000 
      4 CA         72.5320   32.1570   -2.6070 C.3       3 GLC5        0.0000 
      5 CA         72.6840   32.9210   -0.8160 C.3       6 GLP5        0.0000 
      6 CA         76.7175   33.2255   -8.3425 C.3       3 GLC5        0.0000 
      7 CA         75.3230   34.2230   -7.0980 C.3       9 GLL5        0.0000 
      8 CA         78.1120   32.2280   -9.5870 C.3       6 GLP5        0.0000 
      9 CA         75.9345   37.3730   -7.5245 C.3       3 GLC5        0.0000 
     10 CA         74.9430   35.5360   -7.1800 C.3       9 GLL5        0.0000 
     11 CA         76.9260   39.2100   -7.8690 C.3       6 GLP5        0.0000 
     12 CA         75.4965   38.1815   -6.6890 C.3       3 GLC5        0.0000 
     13 CA         74.0670   37.1530   -5.5090 C.3       9 GLL5        0.0000 
     14 CA         75.1495   37.7270   -2.7285 C.3       3 GLC5        0.0000 
     15 CA         73.8840   36.1290   -3.3680 C.3       9 GLL5        0.0000 
     16 CA         76.4150   39.3250   -2.0890 C.3       6 GLP5        0.0000 
     17 CA         75.8820   35.6120   -2.9245 C.3       3 GLC5        0.0000 
     18 CA         77.8800   35.0950   -2.4810 C.3       6 GLP5        0.0000 
     19 CA         74.1105   34.8235   -1.9050 C.3       3 GLC5        0.0000 
     20 CA         74.3370   33.5180   -0.4420 C.3       6 GLP5        0.0000 
     21 CA         76.2710   34.9650   -3.7595 C.3       3 GLC5        0.0000 
     22 CA         74.6620   34.8350   -5.0380 C.3       9 GLL5        0.0000 
     23 O          73.7860   37.9860   -8.0230 O.2       1 ALC1        0.0000 
     24 O          73.9330   38.2060   -6.3200 O.2       7 ALL1        0.0000 
     25 O          73.6390   37.7660   -9.7260 O.2       4 ALP1        0.0000 
     26 CA         76.7885   33.5780   -3.1520 C.3       3 GLC5        0.0000 
     27 CA         75.6970   32.0610   -3.8230 C.3       9 GLL5        0.0000 
     28 CA         75.0170   32.7895   -2.1325 C.3       3 GLC5        0.0000 
     29 N          77.1815   32.5440   -2.2365 N.am      2 SEC2        0.0000 
     30 N          77.0670   31.6750   -3.6740 N.am      8 SEL2        0.0000 
     31 N          77.2960   33.4130   -0.7990 N.am      5 SEP2        0.0000 
     32 O          77.3095   31.0035   -2.6380 O.2       1 ALC1        0.0000 
     33 O          77.0670   31.6750   -3.6740 O.2       7 ALL1        0.0000 
     34 O          77.5520   30.3320   -1.6020 O.2       4 ALP1        0.0000 
     35 CA         73.3335   29.2660   -3.0700 C.3       3 GLC5        0.0000 
     36 CA         74.7040   30.9500   -3.4800 C.3       9 GLL5        0.0000 
     37 CA         71.9630   27.5820   -2.6600 C.3       6 GLP5        0.0000 
     38 CA         73.6940   31.9355   -2.1480 C.3       3 GLC5        0.0000 
     39 O          76.4365   30.0200   -2.3505 O.2       1 ALC1        0.0000 
     40 O          75.3210   29.7080   -3.0990 O.2       7 ALL1        0.0000 
     41 O          75.9775   29.3490   -1.6120 O.2       1 ALC1        0.0000 
     42 O          76.6340   28.9900   -0.1250 O.2       4 ALP1        0.0000 
     43 CA         71.8595   29.7908   -4.0107 C.3       3 GLC5        0.0000 
     44 CA         73.7900   30.8320   -4.7070 C.3       9 GLL5        0.0000 
     45 CA         70.6340   28.4690   -3.4690 C.3       6 GLP5        0.0000 
     46 CA         76.7230   35.6361   -6.8502 C.3       3 GLC5        0.0000 
     47 CA         78.6070   35.8870   -7.1700 C.3       6 GLP5        0.0000 
@<TRIPOS>BOND
@<TRIPOS>SUBSTRUCTURE
     1 ALC1       23 GROUP        1 X    ALC  0     ROOT ALC X 1
     2 SEC2       29 GROUP        1 X    SEC  0     **** SEC X 2
     3 GLC5        1 GROUP        1 X    GLC  0     **** GLC X 6
     4 ALP1       25 GROUP        1 Y    ALP  0     ROOT ALP Y 8
     5 SEP2       31 GROUP        1 Y    SEP  0     **** SEP Y 9
     6 GLP5        3 GROUP        1 Y    GLP  0     **** GLP Y 13
     7 ALL1       24 GROUP        1 Z    ALL  0     ROOT ALL Z 15
     8 SEL2       30 GROUP        1 Z    SEL  0     **** SEL Z 16
     9 GLL5        2 GROUP        1 Z    GLL  0     **** GLL Z 20
@<TRIPOS>SET

