#    Name: 1pr5_TBN_2_ligand
#    Modification time : Mon Mar 24 22:09:52 2014

@<TRIPOS>MOLECULE
1pr5_TBN_2_ligand
   33    35     1     0     0
SMALL
NO_CHARGES


@<TRIPOS>ATOM
      1 O5'        71.6910   31.7730   -5.6060 O.3       1 TBN1246     0.0000 
      2 C5'        72.3800   31.3930   -4.3980 C.3       1 TBN1246     0.0000 
      3 C4'        73.7900   30.8320   -4.7070 C.3       1 TBN1246     0.0000 
      4 O4'        74.4170   31.5170   -5.7990 O.3       1 TBN1246     0.0000 
      5 C1'        75.4770   32.3580   -5.3170 C.3       1 TBN1246     0.0000 
      6 N9         75.1670   33.7430   -5.7880 N.pl3     1 TBN1246     0.0000 
      7 C8         75.3230   34.2230   -7.0980 C.2       1 TBN1246     0.0000 
      8 C7         74.9430   35.5360   -7.1800 C.2       1 TBN1246     0.0000 
      9 C5         74.5450   35.8910   -5.9220 C.ar      1 TBN1246     0.0000 
     10 C6         74.0670   37.1530   -5.5090 C.ar      1 TBN1246     0.0000 
     11 N1         73.7370   37.2210   -4.1710 N.ar      1 TBN1246     0.0000 
     12 C2         73.8840   36.1290   -3.3680 C.ar      1 TBN1246     0.0000 
     13 N3         74.3340   34.8960   -3.6980 N.ar      1 TBN1246     0.0000 
     14 C4         74.6620   34.8350   -5.0380 C.ar      1 TBN1246     0.0000 
     15 N6         73.9330   38.2060   -6.3200 N.pl3     1 TBN1246     0.0000 
     16 C2'        75.6970   32.0610   -3.8230 C.3       1 TBN1246     0.0000 
     17 O2'        77.0670   31.6750   -3.6740 O.3       1 TBN1246     0.0000 
     18 C3'        74.7040   30.9500   -3.4800 C.3       1 TBN1246     0.0000 
     19 O3'        75.3210   29.7080   -3.0990 O.3       1 TBN1246     0.0000 
     20 H          71.8321   30.6157   -3.8473 H         1 TBN1246     0.0000 
     21 H          72.5095   32.2482   -3.7201 H         1 TBN1246     0.0000 
     22 H          73.6845   29.7720   -4.9280 H         1 TBN1246     0.0000 
     23 H          76.4069   32.0204   -5.8530 H         1 TBN1246     0.0000 
     24 H          75.6548   33.6852   -7.8288 H         1 TBN1246     0.0000 
     25 H          74.9543   36.0820   -7.9484 H         1 TBN1246     0.0000 
     26 H          73.5992   36.2723   -2.3172 H         1 TBN1246     0.0000 
     27 H          74.2299   38.0736   -7.2657 H         1 TBN1246     0.0000 
     28 H          73.5479   39.0321   -5.9086 H         1 TBN1246     0.0000 
     29 H          75.4463   32.9385   -3.2851 H         1 TBN1246     0.0000 
     30 H          74.0695   31.3465   -2.6691 H         1 TBN1246     0.0000 
     31 H          72.3850   32.2212   -6.1696 H         1 TBN1246     0.0000 
     32 H          77.0403   30.8231   -3.1509 H         1 TBN1246     0.0000 
     33 H          76.1374   29.9716   -2.5853 H         1 TBN1246     0.0000 
@<TRIPOS>BOND
     1    2    1 1    
     2   31    1 1    
     3    3    2 1    
     4   20    2 1    
     5   21    2 1    
     6    4    3 1    
     7   18    3 1    
     8   22    3 1    
     9    5    4 1    
    10    6    5 1    
    11   16    5 1    
    12   23    5 1    
    13    7    6 1    
    14   14    6 1    
    15    8    7 2    
    16   24    7 1    
    17    9    8 1    
    18   25    8 1    
    19   10    9 ar   
    20   14    9 ar   
    21   11   10 ar   
    22   15   10 1    
    23   12   11 ar   
    24   13   12 ar   
    25   26   12 1    
    26   14   13 ar   
    27   27   15 1    
    28   28   15 1    
    29   17   16 1    
    30   18   16 1    
    31   29   16 1    
    32   32   17 1    
    33   19   18 1    
    34   30   18 1    
    35   33   19 1    
@<TRIPOS>SUBSTRUCTURE
     1 TBN1246     1 GROUP   
@<TRIPOS>SET

