#    Name: 1OF1_2_CAVITY_N1_6.mol2
#    Modification time : Mon Mar 10 22:01:23 2014

@<TRIPOS>MOLECULE
1OF1_2_CAVITY_N1_6.mol2
   78     0     7     0     0
SMALL
NO_CHARGES


@<TRIPOS>ATOM
      1 NZ         14.0753   19.8985    6.4462 N.2       4 LYS4        0.0000 
      2 CA         13.3616   20.9634    5.6673 C.3       6 GLY6        0.0000 
      3 NZ         12.7770   19.4891    7.0762 N.2       4 LYS4        0.0000 
      4 O          12.1924   18.0148    8.4850 O.2       2 ALA2        0.0000 
      5 DU         11.4787   19.0797    7.7061 H         7 CUB7        0.0000 
      6 CA         21.6442   19.3153    7.3794 C.3       6 GLY6        0.0000 
      7 CZ         20.3459   18.9059    8.0094 C.ar      5 PHE5        0.0000 
      8 CA         19.6322   19.9708    7.2305 C.3       6 GLY6        0.0000 
      9 OG         19.0477   18.4965    8.6393 O.2       1 SER1        0.0000 
     10 NZ         18.3339   19.5614    7.8605 N.2       4 LYS4        0.0000 
     11 NZ         16.3219   20.2169    7.7116 N.2       4 LYS4        0.0000 
     12 CA         15.6082   21.2817    6.9327 C.3       6 GLY6        0.0000 
     13 CA         14.8945   22.3466    6.1539 C.3       6 GLY6        0.0000 
     14 NZ         14.3099   20.8723    7.5627 N.2       4 LYS4        0.0000 
     15 NZ         13.5962   21.9372    6.7838 N.2       4 LYS4        0.0000 
     16 NZ         13.7254   19.3980    8.9715 N.2       4 LYS4        0.0000 
     17 NZ         13.0116   20.4629    8.1926 N.2       4 LYS4        0.0000 
     18 NZ         12.2979   21.5278    7.4138 N.2       4 LYS4        0.0000 
     19 O          13.1408   17.9237   10.3803 O.2       2 ALA2        0.0000 
     20 O          12.4271   18.9886    9.6015 O.2       2 ALA2        0.0000 
     21 DU         11.7133   20.0535    8.8226 H         7 CUB7        0.0000 
     22 DU         10.9996   21.1184    8.0437 H         7 CUB7        0.0000 
     23 CA         21.8789   20.2892    8.4959 C.3       6 GLY6        0.0000 
     24 CA         21.1651   21.3540    7.7171 C.3       6 GLY6        0.0000 
     25 OG         21.2943   18.8149    9.9047 O.2       1 SER1        0.0000 
     26 OG         20.5806   19.8798    9.1259 O.2       1 SER1        0.0000 
     27 CA         19.8669   20.9446    8.3470 C.3       6 GLY6        0.0000 
     28 CA         19.1531   22.0095    7.5682 C.3       6 GLY6        0.0000 
     29 OG         19.2823   19.4703    9.7558 O.2       1 SER1        0.0000 
     30 DU         18.5686   20.5352    8.9770 H         7 CUB7        0.0000 
     31 CA         17.8549   21.6001    8.1981 C.3       6 GLY6        0.0000 
     32 CA         17.9840   19.0609   10.3858 C.3       6 GLY6        0.0000 
     33 NZ         17.2703   20.1258    9.6069 N.2       4 LYS4        0.0000 
     34 NZ         16.5566   21.1907    8.8281 N.2       4 LYS4        0.0000 
     35 NZ         15.8428   22.2556    8.0492 N.2       4 LYS4        0.0000 
     36 CA         15.9720   19.7164   10.2369 C.3       6 GLY6        0.0000 
     37 NZ         15.2583   20.7813    9.4580 N.2       4 LYS4        0.0000 
     38 NZ         14.5446   21.8462    8.6792 N.2       4 LYS4        0.0000 
     39 CA         14.6737   19.3070   10.8668 C.3       6 GLY6        0.0000 
     40 NZ         13.9600   20.3719   10.0880 N.2       4 LYS4        0.0000 
     41 NZ         13.2463   21.4368    9.3091 N.2       4 LYS4        0.0000 
     42 NZ         12.5326   22.5017    8.5303 N.2       4 LYS4        0.0000 
     43 O          13.3754   18.8976   11.4968 O.2       2 ALA2        0.0000 
     44 DU         12.6617   19.9625   10.7179 H         7 CUB7        0.0000 
     45 DU         11.9480   21.0274    9.9391 H         7 CUB7        0.0000 
     46 OG         11.2343   22.0923    9.1602 O.2       1 SER1        0.0000 
     47 CZ         22.1135   21.2630    9.6124 C.ar      5 PHE5        0.0000 
     48 CA         21.3998   22.3279    8.8335 C.3       6 GLY6        0.0000 
     49 CZ         20.8152   20.8536   10.2424 C.ar      5 PHE5        0.0000 
     50 CA         20.1015   21.9185    9.4635 C.3       6 GLY6        0.0000 
     51 CA         19.3878   22.9834    8.6846 C.3       6 GLY6        0.0000 
     52 CZ         19.5169   20.4442   10.8723 C.ar      5 PHE5        0.0000 
     53 OG         18.8032   21.5091   10.0935 O.2       1 SER1        0.0000 
     54 NZ         18.0895   22.5740    9.3146 N.2       4 LYS4        0.0000 
     55 CA         17.5049   21.0997   10.7234 C.3       6 GLY6        0.0000 
     56 NZ         16.7912   22.1646    9.9446 N.2       4 LYS4        0.0000 
     57 NZ         15.4929   21.7552   10.5745 N.2       4 LYS4        0.0000 
     58 CA         14.1946   21.3458   11.2045 C.3       6 GLY6        0.0000 
     59 NZ         13.4809   22.4106   10.4256 N.2       4 LYS4        0.0000 
     60 O          12.8964   20.9364   11.8344 O.2       2 ALA2        0.0000 
     61 OG         12.1826   22.0012   11.0556 O.2       1 SER1        0.0000 
     62 N          22.9327   23.7112    9.3201 N.2       2 ALA2        0.0000 
     63 CA         22.2190   24.7761    8.5412 C.3       6 GLY6        0.0000 
     64 CA         21.6344   23.3018    9.9500 C.3       6 GLY6        0.0000 
     65 CA         20.9207   24.3667    9.1712 C.3       6 GLY6        0.0000 
     66 CZ         20.3361   22.8924   10.5800 C.ar      5 PHE5        0.0000 
     67 CZ         19.6224   23.9572    9.8011 C.ar      5 PHE5        0.0000 
     68 O          19.0379   22.4830   11.2099 O.2       2 ALA2        0.0000 
     69 O          18.3241   23.5478   10.4311 O.2       2 ALA2        0.0000 
     70 OD1        14.4293   22.3196   12.3210 O.3       3 ASP3        0.0000 
     71 NZ         13.7156   23.3845   11.5421 N.2       4 LYS4        0.0000 
     72 OD1        13.1310   21.9102   12.9509 O.3       3 ASP3        0.0000 
     73 OG         12.4173   22.9751   12.1721 O.2       1 SER1        0.0000 
     74 CA         22.4536   25.7499    9.6577 C.3       6 GLY6        0.0000 
     75 CZ         21.8691   24.2756   11.0665 C.ar      5 PHE5        0.0000 
     76 DU         21.1553   25.3405   10.2877 H         7 CUB7        0.0000 
     77 CZ         20.4416   26.4054    9.5088 C.ar      5 PHE5        0.0000 
     78 O          19.8571   24.9311   10.9176 O.2       2 ALA2        0.0000 
@<TRIPOS>BOND
@<TRIPOS>SUBSTRUCTURE
     1 SER1        9 GROUP   
     2 ALA2        4 GROUP   
     3 ASP3       70 GROUP   
     4 LYS4        1 GROUP   
     5 PHE5        7 GROUP   
     6 GLY6        2 GROUP   
     7 CUB7        5 GROUP   
@<TRIPOS>SET

