#    Name: 1OF1_2_CAVITY_N1_ALL.mol2
#    Modification time : Mon Mar 10 22:01:23 2014

@<TRIPOS>MOLECULE
1OF1_2_CAVITY_N1_ALL.mol2
   99     0     7     0     0
SMALL
NO_CHARGES


@<TRIPOS>ATOM
      1 NZ         14.0753   19.8985    6.4462 N.2       4 LYS4        0.0000 
      2 CA         13.3616   20.9634    5.6673 C.3       6 GLY6        0.0000 
      3 NZ         12.7770   19.4891    7.0762 N.2       4 LYS4        0.0000 
      4 O          12.1924   18.0148    8.4850 O.2       2 ALA2        0.0000 
      5 DU         11.4787   19.0797    7.7061 H         7 CUB7        0.0000 
      6 O          10.8941   17.6054    9.1149 O.2       2 ALA2        0.0000 
      7 O          10.1804   18.6703    8.3361 O.2       2 ALA2        0.0000 
      8 CA         21.6442   19.3153    7.3794 C.3       6 GLY6        0.0000 
      9 CZ         20.3459   18.9059    8.0094 C.ar      5 PHE5        0.0000 
     10 CA         19.6322   19.9708    7.2305 C.3       6 GLY6        0.0000 
     11 OG         19.0477   18.4965    8.6393 O.2       1 SER1        0.0000 
     12 NZ         18.3339   19.5614    7.8605 N.2       4 LYS4        0.0000 
     13 NZ         16.3219   20.2169    7.7116 N.2       4 LYS4        0.0000 
     14 CA         15.6082   21.2817    6.9327 C.3       6 GLY6        0.0000 
     15 CA         14.8945   22.3466    6.1539 C.3       6 GLY6        0.0000 
     16 NZ         14.3099   20.8723    7.5627 N.2       4 LYS4        0.0000 
     17 NZ         13.5962   21.9372    6.7838 N.2       4 LYS4        0.0000 
     18 NZ         13.7254   19.3980    8.9715 N.2       4 LYS4        0.0000 
     19 NZ         13.0116   20.4629    8.1926 N.2       4 LYS4        0.0000 
     20 NZ         12.2979   21.5278    7.4138 N.2       4 LYS4        0.0000 
     21 O          13.1408   17.9237   10.3803 O.2       2 ALA2        0.0000 
     22 O          12.4271   18.9886    9.6015 O.2       2 ALA2        0.0000 
     23 DU         11.7133   20.0535    8.8226 H         7 CUB7        0.0000 
     24 DU         10.9996   21.1184    8.0437 H         7 CUB7        0.0000 
     25 O          11.8425   17.5143   11.0103 O.2       2 ALA2        0.0000 
     26 O          11.1288   18.5792   10.2314 O.2       2 ALA2        0.0000 
     27 DU         10.4151   19.6441    9.4526 H         7 CUB7        0.0000 
     28 O           9.8305   18.1698   10.8614 O.2       2 ALA2        0.0000 
     29 DU          9.1168   19.2347   10.0825 H         7 CUB7        0.0000 
     30 CA         21.8789   20.2892    8.4959 C.3       6 GLY6        0.0000 
     31 CA         21.1651   21.3540    7.7171 C.3       6 GLY6        0.0000 
     32 OG         21.2943   18.8149    9.9047 O.2       1 SER1        0.0000 
     33 OG         20.5806   19.8798    9.1259 O.2       1 SER1        0.0000 
     34 CA         19.8669   20.9446    8.3470 C.3       6 GLY6        0.0000 
     35 CA         19.1531   22.0095    7.5682 C.3       6 GLY6        0.0000 
     36 OG         19.2823   19.4703    9.7558 O.2       1 SER1        0.0000 
     37 DU         18.5686   20.5352    8.9770 H         7 CUB7        0.0000 
     38 CA         17.8549   21.6001    8.1981 C.3       6 GLY6        0.0000 
     39 CA         17.9840   19.0609   10.3858 C.3       6 GLY6        0.0000 
     40 NZ         17.2703   20.1258    9.6069 N.2       4 LYS4        0.0000 
     41 NZ         16.5566   21.1907    8.8281 N.2       4 LYS4        0.0000 
     42 NZ         15.8428   22.2556    8.0492 N.2       4 LYS4        0.0000 
     43 CA         15.9720   19.7164   10.2369 C.3       6 GLY6        0.0000 
     44 NZ         15.2583   20.7813    9.4580 N.2       4 LYS4        0.0000 
     45 NZ         14.5446   21.8462    8.6792 N.2       4 LYS4        0.0000 
     46 CA         14.6737   19.3070   10.8668 C.3       6 GLY6        0.0000 
     47 NZ         13.9600   20.3719   10.0880 N.2       4 LYS4        0.0000 
     48 NZ         13.2463   21.4368    9.3091 N.2       4 LYS4        0.0000 
     49 NZ         12.5326   22.5017    8.5303 N.2       4 LYS4        0.0000 
     50 O          13.3754   18.8976   11.4968 O.2       2 ALA2        0.0000 
     51 DU         12.6617   19.9625   10.7179 H         7 CUB7        0.0000 
     52 DU         11.9480   21.0274    9.9391 H         7 CUB7        0.0000 
     53 OG         11.2343   22.0923    9.1602 O.2       1 SER1        0.0000 
     54 O          12.0772   18.4882   12.1267 O.2       2 ALA2        0.0000 
     55 DU         11.3634   19.5531   11.3479 H         7 CUB7        0.0000 
     56 DU         10.6497   20.6180   10.5690 H         7 CUB7        0.0000 
     57 OG          9.9360   21.6829    9.7902 O.2       1 SER1        0.0000 
     58 DU         10.0651   19.1437   11.9779 H         7 CUB7        0.0000 
     59 DU          9.3514   20.2086   11.1990 H         7 CUB7        0.0000 
     60 CA          8.6377   21.2735   10.4201 C.3       6 GLY6        0.0000 
     61 CZ         22.1135   21.2630    9.6124 C.ar      5 PHE5        0.0000 
     62 CA         21.3998   22.3279    8.8335 C.3       6 GLY6        0.0000 
     63 CZ         20.8152   20.8536   10.2424 C.ar      5 PHE5        0.0000 
     64 CA         20.1015   21.9185    9.4635 C.3       6 GLY6        0.0000 
     65 CA         19.3878   22.9834    8.6846 C.3       6 GLY6        0.0000 
     66 CZ         19.5169   20.4442   10.8723 C.ar      5 PHE5        0.0000 
     67 OG         18.8032   21.5091   10.0935 O.2       1 SER1        0.0000 
     68 NZ         18.0895   22.5740    9.3146 N.2       4 LYS4        0.0000 
     69 CA         17.5049   21.0997   10.7234 C.3       6 GLY6        0.0000 
     70 NZ         16.7912   22.1646    9.9446 N.2       4 LYS4        0.0000 
     71 NZ         15.4929   21.7552   10.5745 N.2       4 LYS4        0.0000 
     72 CA         14.1946   21.3458   11.2045 C.3       6 GLY6        0.0000 
     73 NZ         13.4809   22.4106   10.4256 N.2       4 LYS4        0.0000 
     74 O          12.8964   20.9364   11.8344 O.2       2 ALA2        0.0000 
     75 OG         12.1826   22.0012   11.0556 O.2       1 SER1        0.0000 
     76 O          11.5981   20.5269   12.4644 O.2       2 ALA2        0.0000 
     77 OG         10.8843   21.5918   11.6855 O.2       1 SER1        0.0000 
     78 O          10.2998   20.1175   13.0943 O.2       2 ALA2        0.0000 
     79 CA          9.5861   21.1824   12.3155 C.3       6 GLY6        0.0000 
     80 CA          8.8723   22.2473   11.5366 C.3       6 GLY6        0.0000 
     81 N          22.9327   23.7112    9.3201 N.2       2 ALA2        0.0000 
     82 CA         22.2190   24.7761    8.5412 C.3       6 GLY6        0.0000 
     83 CA         21.6344   23.3018    9.9500 C.3       6 GLY6        0.0000 
     84 CA         20.9207   24.3667    9.1712 C.3       6 GLY6        0.0000 
     85 CZ         20.3361   22.8924   10.5800 C.ar      5 PHE5        0.0000 
     86 CZ         19.6224   23.9572    9.8011 C.ar      5 PHE5        0.0000 
     87 O          19.0379   22.4830   11.2099 O.2       2 ALA2        0.0000 
     88 O          18.3241   23.5478   10.4311 O.2       2 ALA2        0.0000 
     89 OD1        14.4293   22.3196   12.3210 O.3       3 ASP3        0.0000 
     90 NZ         13.7156   23.3845   11.5421 N.2       4 LYS4        0.0000 
     91 OD1        13.1310   21.9102   12.9509 O.3       3 ASP3        0.0000 
     92 OG         12.4173   22.9751   12.1721 O.2       1 SER1        0.0000 
     93 O          11.8327   21.5008   13.5809 O.2       2 ALA2        0.0000 
     94 OG         11.1190   22.5657   12.8020 O.2       1 SER1        0.0000 
     95 CA         22.4536   25.7499    9.6577 C.3       6 GLY6        0.0000 
     96 CZ         21.8691   24.2756   11.0665 C.ar      5 PHE5        0.0000 
     97 DU         21.1553   25.3405   10.2877 H         7 CUB7        0.0000 
     98 CZ         20.4416   26.4054    9.5088 C.ar      5 PHE5        0.0000 
     99 O          19.8571   24.9311   10.9176 O.2       2 ALA2        0.0000 
@<TRIPOS>BOND
@<TRIPOS>SUBSTRUCTURE
     1 SER1       11 GROUP   
     2 ALA2        4 GROUP   
     3 ASP3       89 GROUP   
     4 LYS4        1 GROUP   
     5 PHE5        9 GROUP   
     6 GLY6        2 GROUP   
     7 CUB7        5 GROUP   
@<TRIPOS>SET

