#    Name: 1of1_SCT_2_INTS_M
#    Modification time : Mon Mar 24 20:00:42 2014

@<TRIPOS>MOLECULE
1of1_SCT_2_INTS_M
   56     0     9     0     0
SMALL
NO_CHARGES


@<TRIPOS>ATOM
      1 N          17.1555   22.9005   11.7555 N.am      2 SEC2        0.0000 
      2 N          17.1440   22.5530   10.0490 N.am      8 SEL2        0.0000 
      3 N          17.1670   23.2480   13.4620 N.am      5 SEP2        0.0000 
      4 O          16.4455   23.8005   10.1920 O.2       1 ALC1        0.0000 
      5 O          17.1440   22.5530   10.0490 O.2       7 ALL1        0.0000 
      6 O          15.7470   25.0480   10.3350 O.2       4 ALP1        0.0000 
      7 N          18.9740   17.3670    9.5845 N.am      2 SEC2        0.0000 
      8 N          18.0440   18.2640    9.2600 N.am      8 SEL2        0.0000 
      9 N          19.9040   16.4700    9.9090 N.am      5 SEP2        0.0000 
     10 O          16.7890   17.9155    8.7300 O.2       1 ALC1        0.0000 
     11 O          18.0440   18.2640    9.2600 O.2       7 ALL1        0.0000 
     12 O          15.5340   17.5670    8.2000 O.2       4 ALP1        0.0000 
     13 N          24.8480   24.8175    9.8850 N.am      2 SEC2        0.0000 
     14 N          23.4170   24.9120   10.1500 N.am      8 SEL2        0.0000 
     15 N          26.2790   24.7230    9.6200 N.am      5 SEP2        0.0000 
     16 O          24.4110   22.6975    9.3195 O.2       1 ALC1        0.0000 
     17 O          23.0100   22.7740    9.6670 O.2       7 ALL1        0.0000 
     18 O          25.8120   22.6210    8.9720 O.2       4 ALP1        0.0000 
     19 CA         18.1220   22.9940    7.3175 C.3       3 GLC5        0.0000 
     20 CA         18.8630   21.1100    8.0720 C.3       9 GLL5        0.0000 
     21 CA         17.3810   24.8780    6.5630 C.3       6 GLP5        0.0000 
     22 CA         16.9600   23.3185    7.7995 C.3       3 GLC5        0.0000 
     23 CA         16.5390   21.7590    9.0360 C.3       9 GLL5        0.0000 
     24 CA         19.4480   20.4930    6.0190 C.3       3 GLC5        0.0000 
     25 CA         20.0420   20.2300    7.7840 C.3       9 GLL5        0.0000 
     26 CA         18.8540   20.7560    4.2540 C.3       6 GLP5        0.0000 
     27 CA         20.1110   18.2560    7.6605 C.3       3 GLC5        0.0000 
     28 CA         20.1800   16.2820    7.5370 C.3       6 GLP5        0.0000 
     29 CA         20.7625   23.0270   11.8240 C.3       3 GLC5        0.0000 
     30 CA         20.3320   23.2210    9.7980 C.3       9 GLL5        0.0000 
     31 CA         21.1930   22.8330   13.8500 C.3       6 GLP5        0.0000 
     32 CA         19.7990   26.1825    8.6905 C.3       3 GLC5        0.0000 
     33 CA         20.6490   25.6890   10.3740 C.3       9 GLL5        0.0000 
     34 CA         18.9490   26.6760    7.0070 C.3       6 GLP5        0.0000 
     35 CA         19.2545   26.2065   11.4135 C.3       3 GLC5        0.0000 
     36 CA         17.8600   26.7240   12.4530 C.3       6 GLP5        0.0000 
     37 CA         21.0095   26.6180   12.2500 C.3       3 GLC5        0.0000 
     38 CA         21.3700   27.5470   14.1260 C.3       6 GLP5        0.0000 
     39 CA         22.4975   26.9305   10.2760 C.3       3 GLC5        0.0000 
     40 CA         24.3460   28.1720   10.1780 C.3       6 GLP5        0.0000 
     41 CA         17.7928   20.9315    6.4930 C.3       3 GLC5        0.0000 
     42 CA         17.4050   21.0040    4.6360 C.3       6 GLP5        0.0000 
     43 CA         17.8742   19.1730   11.5690 C.3       3 GLC5        0.0000 
     44 CA         17.8600   19.6150    9.7590 C.3       9 GLL5        0.0000 
     45 CA         17.2440   18.4500   13.0640 C.3       6 GLP5        0.0000 
     46 CA         20.5890   20.5663   11.3953 C.3       3 GLC5        0.0000 
     47 CA         19.1490   20.1770   10.3890 C.3       9 GLL5        0.0000 
     48 CA         21.6450   20.6150   12.9830 C.3       6 GLP5        0.0000 
     49 CA         20.4610   22.1665    7.3357 C.3       3 GLC5        0.0000 
     50 CA         21.2060   23.7260    6.4550 C.3       6 GLP5        0.0000 
     51 CA         19.3573   24.7873    8.6773 C.3       3 GLC5        0.0000 
     52 CA         17.9710   25.8150    7.4350 C.3       6 GLP5        0.0000 
     53 CA         21.6960   24.1118   11.8513 C.3       3 GLC5        0.0000 
     54 CA         21.1550   24.2980   10.0410 C.3       9 GLL5        0.0000 
     55 CA         22.4900   23.2300   13.4950 C.3       6 GLP5        0.0000 
     56 CA         20.9511   24.2251    8.3009 C.3       3 GLC5        0.0000 
@<TRIPOS>BOND
@<TRIPOS>SUBSTRUCTURE
     1 ALC1        4 GROUP        1 X    ALC  0     ROOT ALC X 1
     2 SEC2        1 GROUP        1 X    SEC  0     **** SEC X 2
     3 GLC5       19 GROUP        1 X    GLC  0     **** GLC X 6
     4 ALP1        6 GROUP        1 Y    ALP  0     ROOT ALP Y 8
     5 SEP2        3 GROUP        1 Y    SEP  0     **** SEP Y 9
     6 GLP5       21 GROUP        1 Y    GLP  0     **** GLP Y 13
     7 ALL1        5 GROUP        1 Z    ALL  0     ROOT ALL Z 15
     8 SEL2        2 GROUP        1 Z    SEL  0     **** SEL Z 16
     9 GLL5       20 GROUP        1 Z    GLL  0     **** GLL Z 20
@<TRIPOS>SET

