#    Name: 1of1_SCT_2_ligand
#    Modification time : Mon Mar 24 20:00:42 2014

@<TRIPOS>MOLECULE
1of1_SCT_2_ligand
   34    36     1     0     0
SMALL
NO_CHARGES


@<TRIPOS>ATOM
      1 O16        17.1440   22.5530   10.0490 O.3       1 SCT500      0.0000 
      2 O18        18.0440   18.2640    9.2600 O.3       1 SCT500      0.0000 
      3 O9         22.6070   20.6670    9.1950 O.2       1 SCT500      0.0000 
      4 O7         23.4170   24.9120   10.1500 O.2       1 SCT500      0.0000 
      5 N8         20.8310   21.9980    9.5080 N.am      1 SCT500      0.0000 
      6 N5         23.0100   22.7740    9.6670 N.am      1 SCT500      0.0000 
      7 C1         17.4980   20.6080    8.6280 C.3       1 SCT500      0.0000 
      8 C10        17.8600   19.6150    9.7590 C.3       1 SCT500      0.0000 
      9 C14        19.1490   20.1770   10.3890 C.3       1 SCT500      0.0000 
     10 C17        19.9170   20.8580    9.2260 C.3       1 SCT500      0.0000 
     11 C13        18.8630   21.1100    8.0720 C.3       1 SCT500      0.0000 
     12 C12        16.5390   21.7590    9.0360 C.3       1 SCT500      0.0000 
     13 C11        22.1550   21.7860    9.4520 C.2       1 SCT500      0.0000 
     14 C15        20.0420   20.2300    7.7840 C.3       1 SCT500      0.0000 
     15 C6         22.6150   24.0140    9.9550 C.2       1 SCT500      0.0000 
     16 C4         21.1550   24.2980   10.0410 C.2       1 SCT500      0.0000 
     17 C2         20.3320   23.2210    9.7980 C.2       1 SCT500      0.0000 
     18 C3         20.6490   25.6890   10.3740 C.3       1 SCT500      0.0000 
     19 H          24.0554   22.5737    9.6084 H         1 SCT500      0.0000 
     20 H          17.0366   20.0230    7.8237 H         1 SCT500      0.0000 
     21 H          17.0841   19.6769   10.4999 H         1 SCT500      0.0000 
     22 H          19.7351   19.3804   10.7786 H         1 SCT500      0.0000 
     23 H          18.9020   20.9062   11.1219 H         1 SCT500      0.0000 
     24 H          19.0452   22.0057    7.8031 H         1 SCT500      0.0000 
     25 H          16.3242   22.3344    8.1298 H         1 SCT500      0.0000 
     26 H          15.6062   21.2955    9.3729 H         1 SCT500      0.0000 
     27 H          19.7785   19.3247    7.8710 H         1 SCT500      0.0000 
     28 H          20.7028   20.7385    7.3354 H         1 SCT500      0.0000 
     29 H          19.2944   23.3637    9.8414 H         1 SCT500      0.0000 
     30 H          20.9752   25.9989   11.2671 H         1 SCT500      0.0000 
     31 H          20.9503   26.3647    9.7012 H         1 SCT500      0.0000 
     32 H          19.6499   25.7248   10.3982 H         1 SCT500      0.0000 
     33 H          16.5924   23.3862   10.0885 H         1 SCT500      0.0000 
     34 H          17.4170   18.1869    8.4849 H         1 SCT500      0.0000 
@<TRIPOS>BOND
     1   12    1 1    
     2   33    1 1    
     3    8    2 1    
     4   34    2 1    
     5   13    3 2    
     6   15    4 2    
     7   10    5 1    
     8   13    5 1    
     9   17    5 1    
    10   13    6 1    
    11   15    6 1    
    12   19    6 1    
    13    8    7 1    
    14   11    7 1    
    15   12    7 1    
    16   20    7 1    
    17    9    8 1    
    18   21    8 1    
    19   10    9 1    
    20   22    9 1    
    21   23    9 1    
    22   11   10 1    
    23   14   10 1    
    24   14   11 1    
    25   24   11 1    
    26   25   12 1    
    27   26   12 1    
    28   27   14 1    
    29   28   14 1    
    30   16   15 1    
    31   17   16 2    
    32   18   16 1    
    33   29   17 1    
    34   30   18 1    
    35   31   18 1    
    36   32   18 1    
@<TRIPOS>SUBSTRUCTURE
     1 SCT500      1 GROUP   
@<TRIPOS>SET

