#    Name: 2xhd_7T9_1_INTS_M
#    Modification time : Tue Mar 25 06:00:33 2014

@<TRIPOS>MOLECULE
2xhd_7T9_1_INTS_M
   58     0     6     0     0
SMALL
NO_CHARGES


@<TRIPOS>ATOM
      1 CA         29.4495   41.6975   21.9680 C.3       2 GLC5        0.0000 
      2 CA         28.0740   41.8370   20.5970 C.3       6 GLL5        0.0000 
      3 CA         30.8250   41.5580   23.3390 C.3       4 GLP5        0.0000 
      4 CA         29.2410   47.0210   18.2890 C.3       2 GLC5        0.0000 
      5 CA         29.3680   46.3970   19.9160 C.3       6 GLL5        0.0000 
      6 CA         29.1140   47.6450   16.6620 C.3       4 GLP5        0.0000 
      7 CA         30.5040   42.6580   21.4815 C.3       2 GLC5        0.0000 
      8 CA         30.1830   43.7580   19.6240 C.3       6 GLL5        0.0000 
      9 CA         25.2860   44.0600   19.7245 C.3       2 GLC5        0.0000 
     10 CA         26.7690   43.0490   19.0600 C.3       6 GLL5        0.0000 
     11 CA         23.8030   45.0710   20.3890 C.3       4 GLP5        0.0000 
     12 CA         30.4730   47.3310   18.1285 C.3       2 GLC5        0.0000 
     13 CA         31.8320   47.0170   19.5950 C.3       6 GLL5        0.0000 
     14 CA         33.1950   42.8010   19.1230 C.3       2 GLC5        0.0000 
     15 CA         32.5400   44.6740   19.3430 C.3       6 GLL5        0.0000 
     16 CA         33.8500   40.9280   18.9030 C.3       4 GLP5        0.0000 
     17 CA         31.2110   46.1825   17.6835 C.3       2 GLC5        0.0000 
     18 CA         32.9340   46.1120   19.0570 C.3       6 GLL5        0.0000 
     19 CA         29.4880   46.2530   16.3100 C.3       4 GLP5        0.0000 
     20 CA         35.8620   45.1200   19.2425 C.3       2 GLC5        0.0000 
     21 CA         35.9140   46.4580   18.0090 C.3       6 GLL5        0.0000 
     22 CA         35.8100   43.7820   20.4760 C.3       4 GLP5        0.0000 
     23 CA         33.8500   47.1555   14.2610 C.3       2 GLC5        0.0000 
     24 CA         35.0730   47.6160   16.0040 C.3       6 GLL5        0.0000 
     25 CA         32.6270   46.6950   12.5180 C.3       4 GLP5        0.0000 
     26 CA         34.6530   49.3090   14.9305 C.3       2 GLC5        0.0000 
     27 CA         34.2330   51.0020   13.8570 C.3       4 GLP5        0.0000 
     28 O          32.4870   47.4955   17.0800 O.2       1 ALC1        0.0000 
     29 O          32.9210   46.2640   17.5860 O.2       5 ALL1        0.0000 
     30 O          32.0530   48.7270   16.5740 O.2       3 ALP1        0.0000 
     31 CA         26.4755   38.7845   18.4690 C.3       2 GLC5        0.0000 
     32 CA         25.1070   40.0700   19.6380 C.3       6 GLL5        0.0000 
     33 CA         27.8440   37.4990   17.3000 C.3       4 GLP5        0.0000 
     34 CA         23.3150   39.7410   18.4815 C.3       2 GLC5        0.0000 
     35 CA         21.5230   39.4120   17.3250 C.3       4 GLP5        0.0000 
     36 CA         24.5675   38.3810   18.8660 C.3       2 GLC5        0.0000 
     37 CA         24.0280   36.6920   18.0940 C.3       4 GLP5        0.0000 
     38 CA         29.0723   45.4790   18.1065 C.3       2 GLC5        0.0000 
     39 CA         28.8530   44.0480   19.8290 C.3       6 GLL5        0.0000 
     40 CA         27.3425   46.9148   19.4138 C.3       2 GLC5        0.0000 
     41 CA         25.7710   47.9500   18.8810 C.3       4 GLP5        0.0000 
     42 CA         28.6240   39.5550   20.6082 C.3       2 GLC5        0.0000 
     43 CA         29.6490   37.7690   20.6550 C.3       4 GLP5        0.0000 
     44 CA         29.7985   43.2565   18.0328 C.3       2 GLC5        0.0000 
     45 CA         30.0790   42.6100   16.3390 C.3       4 GLP5        0.0000 
     46 CA         28.7052   42.8107   17.8955 C.3       2 GLC5        0.0000 
     47 CA         27.8940   42.9740   19.8440 C.3       6 GLL5        0.0000 
     48 CA         30.0745   45.7156   17.9809 C.3       2 GLC5        0.0000 
     49 CA         29.3398   46.5811   21.5436 C.3       2 GLC5        0.0000 
     50 CA         30.6890   46.0830   19.7060 C.3       6 GLL5        0.0000 
     51 CA         28.8780   47.1810   23.2610 C.3       4 GLP5        0.0000 
     52 CA         30.9453   43.6707   17.8980 C.3       2 GLC5        0.0000 
     53 CA         31.0830   44.7890   19.5710 C.3       6 GLL5        0.0000 
     54 CA         34.2735   44.5875   19.8380 C.3       2 GLC5        0.0000 
     55 CA         36.0653   46.6225   14.6655 C.3       2 GLC5        0.0000 
     56 CA         36.8920   46.3000   13.0260 C.3       4 GLP5        0.0000 
     57 CA         36.7405   48.2310   17.0089 C.3       2 GLC5        0.0000 
     58 CA         38.1150   49.4710   17.3620 C.3       4 GLP5        0.0000 
@<TRIPOS>BOND
@<TRIPOS>SUBSTRUCTURE
     1 ALC1       28 GROUP        1 X    ALC  0     ROOT ALC X 1
     2 GLC5        1 GROUP        1 X    GLC  0     **** GLC X 6
     3 ALP1       30 GROUP        1 Y    ALP  0     ROOT ALP Y 8
     4 GLP5        3 GROUP        1 Y    GLP  0     **** GLP Y 13
     5 ALL1       29 GROUP        1 Z    ALL  0     ROOT ALL Z 15
     6 GLL5        2 GROUP        1 Z    GLL  0     **** GLL Z 20
@<TRIPOS>SET

