#    Name: 2xhd_7T9_1_ligand
#    Modification time : Tue Mar 25 06:00:33 2014

@<TRIPOS>MOLECULE
2xhd_7T9_1_ligand
   42    44     1     0     0
SMALL
NO_CHARGES


@<TRIPOS>ATOM
      1 C12        28.4600   45.3620   19.9770 C.ar      1 7T91266     0.0000 
      2 C18        28.0740   41.8370   20.5970 C.ar      1 7T91266     0.0000 
      3 C11        29.3680   46.3970   19.9160 C.ar      1 7T91266     0.0000 
      4 C19        27.1240   40.8450   20.5260 C.ar      1 7T91266     0.0000 
      5 C14        30.1830   43.7580   19.6240 C.ar      1 7T91266     0.0000 
      6 C23        26.7690   43.0490   19.0600 C.ar      1 7T91266     0.0000 
      7 C13        28.8530   44.0480   19.8290 C.ar      1 7T91266     0.0000 
      8 C17        27.8940   42.9740   19.8440 C.ar      1 7T91266     0.0000 
      9 C10        30.6890   46.0830   19.7060 C.ar      1 7T91266     0.0000 
     10 C15        31.0830   44.7890   19.5710 C.ar      1 7T91266     0.0000 
     11 C20        26.0350   41.0350   19.7070 C.ar      1 7T91266     0.0000 
     12 C9         31.8320   47.0170   19.5950 C.3       1 7T91266     0.0000 
     13 C16        32.5400   44.6740   19.3430 C.3       1 7T91266     0.0000 
     14 C8         32.9340   46.1120   19.0570 C.3       1 7T91266     0.0000 
     15 C1         35.9140   46.4580   18.0090 C.3       1 7T91266     0.0000 
     16 C3         35.0730   47.6160   16.0040 C.3       1 7T91266     0.0000 
     17 C2         35.4040   46.2740   16.6060 C.3       1 7T91266     0.0000 
     18 N22        25.8200   42.1180   18.9650 N.ar      1 7T91266     0.0000 
     19 N7         32.9210   46.2640   17.5860 N.pl3     1 7T91266     0.0000 
     20 O5         33.4420   45.1550   15.3110 O.2       1 7T91266     0.0000 
     21 O6         34.2830   44.0600   17.4210 O.2       1 7T91266     0.0000 
     22 F21        25.1070   40.0700   19.6380 F         1 7T91266     0.0000 
     23 S4         33.9580   45.2530   16.6610 S.o2      1 7T91266     0.0000 
     24 H          27.4524   45.5766   20.1388 H         1 7T91266     0.0000 
     25 H          28.8964   41.7317   21.1965 H         1 7T91266     0.0000 
     26 H          29.0670   47.3645   20.0236 H         1 7T91266     0.0000 
     27 H          27.2248   39.9844   21.0703 H         1 7T91266     0.0000 
     28 H          30.4913   42.7857   19.5133 H         1 7T91266     0.0000 
     29 H          26.6575   43.9505   18.4731 H         1 7T91266     0.0000 
     30 H          32.1163   47.3863   20.5470 H         1 7T91266     0.0000 
     31 H          31.6319   47.7820   18.8891 H         1 7T91266     0.0000 
     32 H          32.7457   44.0761   18.4910 H         1 7T91266     0.0000 
     33 H          33.0369   44.3400   20.2189 H         1 7T91266     0.0000 
     34 H          33.8437   46.3437   19.4689 H         1 7T91266     0.0000 
     35 H          36.0778   45.7234   16.0121 H         1 7T91266     0.0000 
     36 H          32.3987   46.8654   17.0706 H         1 7T91266     0.0000 
     37 H          36.1445   45.5846   18.4379 H         1 7T91266     0.0000 
     38 H          36.7387   47.0231   18.0333 H         1 7T91266     0.0000 
     39 H          35.2366   46.9026   18.5951 H         1 7T91266     0.0000 
     40 H          35.8733   48.2146   15.9683 H         1 7T91266     0.0000 
     41 H          34.7300   47.5291   15.0687 H         1 7T91266     0.0000 
     42 H          34.3711   48.0961   16.5301 H         1 7T91266     0.0000 
@<TRIPOS>BOND
     1    3    1 ar   
     2    7    1 ar   
     3   24    1 1    
     4    4    2 ar   
     5    8    2 ar   
     6   25    2 1    
     7    9    3 ar   
     8   26    3 1    
     9   11    4 ar   
    10   27    4 1    
    11    7    5 ar   
    12   10    5 ar   
    13   28    5 1    
    14    8    6 ar   
    15   18    6 ar   
    16   29    6 1    
    17    8    7 1    
    18   10    9 ar   
    19   12    9 1    
    20   13   10 1    
    21   18   11 ar   
    22   22   11 1    
    23   14   12 1    
    24   30   12 1    
    25   31   12 1    
    26   14   13 1    
    27   32   13 1    
    28   33   13 1    
    29   19   14 1    
    30   34   14 1    
    31   17   15 1    
    32   37   15 1    
    33   38   15 1    
    34   39   15 1    
    35   17   16 1    
    36   40   16 1    
    37   41   16 1    
    38   42   16 1    
    39   23   17 1    
    40   35   17 1    
    41   23   19 1    
    42   36   19 1    
    43   23   20 2    
    44   23   21 2    
@<TRIPOS>SUBSTRUCTURE
     1 7T91266     1 GROUP   
@<TRIPOS>SET

