#    Name: 2vg6_NNB_1_INTS_M
#    Modification time : Tue Mar 25 01:40:28 2014

@<TRIPOS>MOLECULE
2vg6_NNB_1_INTS_M
   54     0     6     0     0
SMALL
NO_CHARGES


@<TRIPOS>ATOM
      1 CA          9.4685   68.5715   59.9535 C.3       2 GLC5        0.0000 
      2 CA          7.9920   67.3140   59.5250 C.3       6 GLL5        0.0000 
      3 CA         10.9450   69.8290   60.3820 C.3       4 GLP5        0.0000 
      4 CA          8.2765   68.1575   57.7770 C.3       2 GLC5        0.0000 
      5 CA          8.5610   69.0010   56.0290 C.3       4 GLP5        0.0000 
      6 CA          6.9800   66.4210   58.0740 C.3       2 GLC5        0.0000 
      7 CA          5.9680   65.5280   56.6230 C.3       4 GLP5        0.0000 
      8 CA          6.6830   67.1015   62.2895 C.3       2 GLC5        0.0000 
      9 CA          7.8080   65.6090   61.8050 C.3       6 GLL5        0.0000 
     10 CA          5.5580   68.5940   62.7740 C.3       4 GLP5        0.0000 
     11 O           9.4510   63.3500   64.8140 O.2       1 ALC1        0.0000 
     12 O          10.1030   63.6930   63.8290 O.2       5 ALL1        0.0000 
     13 O           8.7990   63.0070   65.7990 O.2       3 ALP1        0.0000 
     14 CA         11.0985   64.7850   64.8605 C.3       2 GLC5        0.0000 
     15 CA         11.3130   63.1470   63.7430 C.3       6 GLL5        0.0000 
     16 CA         10.8840   66.4230   65.9780 C.3       4 GLP5        0.0000 
     17 CA         13.0460   64.3590   64.1810 C.3       2 GLC5        0.0000 
     18 CA         14.7790   65.5710   64.6190 C.3       4 GLP5        0.0000 
     19 CA         10.9060   61.6425   66.5535 C.3       2 GLC5        0.0000 
     20 CA         11.8390   62.1660   64.9310 C.3       6 GLL5        0.0000 
     21 CA          9.9730   61.1190   68.1760 C.3       4 GLP5        0.0000 
     22 CA         12.1680   63.6165   66.1455 C.3       2 GLC5        0.0000 
     23 CA         12.4970   65.0670   67.3600 C.3       4 GLP5        0.0000 
     24 CA         13.8275   62.9235   65.4160 C.3       2 GLC5        0.0000 
     25 CA         15.8160   63.6810   65.9010 C.3       4 GLP5        0.0000 
     26 CA         11.9540   61.2625   62.0400 C.3       2 GLC5        0.0000 
     27 CA         13.2470   62.5300   62.7210 C.3       6 GLL5        0.0000 
     28 CA         10.6610   59.9950   61.3590 C.3       4 GLP5        0.0000 
     29 CA         15.1705   62.9620   59.9115 C.3       2 GLC5        0.0000 
     30 CA         14.2280   62.9370   61.6190 C.3       6 GLL5        0.0000 
     31 CA         16.1130   62.9870   58.2040 C.3       4 GLP5        0.0000 
     32 CA         12.6685   59.3525   57.3970 C.3       2 GLC5        0.0000 
     33 CA         12.0380   61.3210   57.4660 C.3       6 GLL5        0.0000 
     34 CA         13.2990   57.3840   57.3280 C.3       4 GLP5        0.0000 
     35 CA         10.1505   67.9300   60.6455 C.3       2 GLC5        0.0000 
     36 CA         10.0360   65.8940   60.9450 C.3       6 GLL5        0.0000 
     37 CA          6.9460   67.6675   61.4865 C.3       2 GLC5        0.0000 
     38 CA          8.6760   66.1680   60.8730 C.3       6 GLL5        0.0000 
     39 CA          8.7860   62.5680   62.7705 C.3       2 GLC5        0.0000 
     40 CA          8.2920   64.7710   62.8020 C.3       6 GLL5        0.0000 
     41 CA          8.6010   60.5040   62.7050 C.3       4 GLP5        0.0000 
     42 CA         10.0363   65.5978   64.2911 C.3       2 GLC5        0.0000 
     43 CA         10.0885   61.5802   63.5210 C.3       2 GLC5        0.0000 
     44 CA         14.8223   63.6448   63.4175 C.3       2 GLC5        0.0000 
     45 CA         15.9070   64.5560   64.6650 C.3       4 GLP5        0.0000 
     46 CA         11.4790   60.8468   59.6732 C.3       2 GLC5        0.0000 
     47 CA         12.5560   62.0760   58.5090 C.3       6 GLL5        0.0000 
     48 CA         13.2453   65.1803   57.5722 C.3       2 GLC5        0.0000 
     49 CA         11.7670   64.1050   57.4670 C.3       6 GLL5        0.0000 
     50 CA         14.3960   66.5790   57.1580 C.3       4 GLP5        0.0000 
     51 CA          9.5591   63.5161   56.6047 C.3       2 GLC5        0.0000 
     52 CA          7.5830   63.6510   56.2620 C.3       4 GLP5        0.0000 
     53 CA         14.2362   62.7826   58.2254 C.3       2 GLC5        0.0000 
     54 CA         12.4220   63.4580   58.5060 C.3       6 GLL5        0.0000 
@<TRIPOS>BOND
@<TRIPOS>SUBSTRUCTURE
     1 ALC1       11 GROUP        1 X    ALC  0     ROOT ALC X 1
     2 GLC5        1 GROUP        1 X    GLC  0     **** GLC X 6
     3 ALP1       13 GROUP        1 Y    ALP  0     ROOT ALP Y 8
     4 GLP5        3 GROUP        1 Y    GLP  0     **** GLP Y 13
     5 ALL1       12 GROUP        1 Z    ALL  0     ROOT ALL Z 15
     6 GLL5        2 GROUP        1 Z    GLL  0     **** GLL Z 20
@<TRIPOS>SET

