#    Name: 2vg6_NNB_1_ligand
#    Modification time : Tue Mar 25 01:40:28 2014

@<TRIPOS>MOLECULE
2vg6_NNB_1_ligand
   37    39     1     0     0
SMALL
NO_CHARGES


@<TRIPOS>ATOM
      1 C13        10.5200   65.0550   61.9430 C.ar      1 NNB1551     0.0000 
      2 C14        10.0360   65.8940   60.9450 C.ar      1 NNB1551     0.0000 
      3 C15         8.6760   66.1680   60.8730 C.ar      1 NNB1551     0.0000 
      4 BR2         7.9920   67.3140   59.5250 Br        1 NNB1551     0.0000 
      5 C16         7.8080   65.6090   61.8050 C.ar      1 NNB1551     0.0000 
      6 C17         8.2920   64.7710   62.8020 C.ar      1 NNB1551     0.0000 
      7 C12         9.6500   64.4930   62.8700 C.ar      1 NNB1551     0.0000 
      8 N2         10.1030   63.6930   63.8290 N.am      1 NNB1551     0.0000 
      9 C11        11.3130   63.1470   63.7430 C.2       1 NNB1551     0.0000 
     10 S1         11.8390   62.1660   64.9310 S.2       1 NNB1551     0.0000 
     11 O3         12.1140   63.4030   62.6750 O.3       1 NNB1551     0.0000 
     12 C10        13.2470   62.5300   62.7210 C.3       1 NNB1551     0.0000 
     13 C9         14.2280   62.9370   61.6190 C.3       1 NNB1551     0.0000 
     14 N1         13.5290   62.8720   60.3300 N.am      1 NNB1551     0.0000 
     15 C8         13.2470   61.7550   59.6720 C.2       1 NNB1551     0.0000 
     16 O2         13.5590   60.6200   60.0370 O.2       1 NNB1551     0.0000 
     17 C2         12.5560   62.0760   58.5090 C.ar      1 NNB1551     0.0000 
     18 C3         12.0380   61.3210   57.4660 C.ar      1 NNB1551     0.0000 
     19 C4         11.3730   61.9650   56.4270 C.ar      1 NNB1551     0.0000 
     20 C5         11.2340   63.3500   56.4290 C.ar      1 NNB1551     0.0000 
     21 C6         11.7670   64.1050   57.4670 C.ar      1 NNB1551     0.0000 
     22 C1         12.4220   63.4580   58.5060 C.ar      1 NNB1551     0.0000 
     23 C7         13.0400   63.9060   59.6610 C.2       1 NNB1551     0.0000 
     24 O1         13.1280   65.0810   60.0040 O.2       1 NNB1551     0.0000 
     25 H          11.5284   64.8492   61.9952 H         1 NNB1551     0.0000 
     26 H          10.6826   66.3094   60.2637 H         1 NNB1551     0.0000 
     27 H           6.7995   65.8181   61.7552 H         1 NNB1551     0.0000 
     28 H           7.6460   64.3588   63.4864 H         1 NNB1551     0.0000 
     29 H           9.4982   63.4883   64.6668 H         1 NNB1551     0.0000 
     30 H          12.9653   61.4893   62.5501 H         1 NNB1551     0.0000 
     31 H          13.7715   62.5949   63.6761 H         1 NNB1551     0.0000 
     32 H          15.0707   62.2535   61.6394 H         1 NNB1551     0.0000 
     33 H          14.5751   63.9448   61.8228 H         1 NNB1551     0.0000 
     34 H          12.1429   60.3035   57.4595 H         1 NNB1551     0.0000 
     35 H          10.9803   61.4124   55.6500 H         1 NNB1551     0.0000 
     36 H          10.7345   63.8158   55.6584 H         1 NNB1551     0.0000 
     37 H          11.6775   65.1238   57.4648 H         1 NNB1551     0.0000 
@<TRIPOS>BOND
     1    2    1 ar   
     2    7    1 ar   
     3   25    1 1    
     4    3    2 ar   
     5   26    2 1    
     6    4    3 1    
     7    5    3 ar   
     8    6    5 ar   
     9   27    5 1    
    10    7    6 ar   
    11   28    6 1    
    12    8    7 1    
    13    9    8 am   
    14   29    8 1    
    15   10    9 2    
    16   11    9 1    
    17   12   11 1    
    18   13   12 1    
    19   30   12 1    
    20   31   12 1    
    21   14   13 1    
    22   32   13 1    
    23   33   13 1    
    24   15   14 am   
    25   23   14 am   
    26   16   15 2    
    27   17   15 1    
    28   18   17 ar   
    29   22   17 ar   
    30   19   18 ar   
    31   34   18 1    
    32   20   19 ar   
    33   35   19 1    
    34   21   20 ar   
    35   36   20 1    
    36   22   21 ar   
    37   37   21 1    
    38   23   22 1    
    39   24   23 2    
@<TRIPOS>SUBSTRUCTURE
     1 NNB1551     1 GROUP   
@<TRIPOS>SET

