#    Name: 2pid_YSA_2_INTS_M
#    Modification time : Mon Mar 24 19:01:07 2014

@<TRIPOS>MOLECULE
2pid_YSA_2_INTS_M
   82     0    12     0     0
SMALL
NO_CHARGES


@<TRIPOS>ATOM
      1 CA         15.9075    0.4510   56.2310 C.3       4 GLC5        0.0000 
      2 CA         15.3280    0.8370   58.2220 C.3      12 GLL5        0.0000 
      3 CA         16.4870    0.0650   54.2400 C.3       8 GLP5        0.0000 
      4 CA         14.5550    0.0710   56.0220 C.3       4 GLC5        0.0000 
      5 CA         14.1460    0.1190   58.0750 C.3      12 GLL5        0.0000 
      6 CA         14.9640    0.0230   53.9690 C.3       8 GLP5        0.0000 
      7 CA         11.4905   -0.8490   58.2065 C.3       4 GLC5        0.0000 
      8 CA         13.0830    0.3570   58.9390 C.3      12 GLL5        0.0000 
      9 CA          9.8980   -2.0550   57.4740 C.3       8 GLP5        0.0000 
     10 N          10.8250   -0.1415   59.6840 N.am      2 SEC2        0.0000 
     11 N          11.9420   -0.3700   58.8040 N.am     10 SEL2        0.0000 
     12 N           9.7080    0.0870   60.5640 N.am      6 SEP2        0.0000 
     13 O          12.0650   -1.1625   57.8255 O.2       1 ALC1        0.0000 
     14 O          11.9420   -0.3700   58.8040 O.2       9 ALL1        0.0000 
     15 O          12.1880   -1.9550   56.8470 O.2       5 ALP1        0.0000 
     16 CA         16.1620    1.2705   60.9305 C.3       4 GLC5        0.0000 
     17 CA         16.7950    2.4870   59.4220 C.3      12 GLL5        0.0000 
     18 CA         15.5290    0.0540   62.4390 C.3       8 GLP5        0.0000 
     19 CA         18.0715    1.3535   60.7625 C.3       4 GLC5        0.0000 
     20 CA         19.3480    0.2200   62.1030 C.3       8 GLP5        0.0000 
     21 CA         18.6925    2.0430   58.5360 C.3       4 GLC5        0.0000 
     22 CA         20.5900    1.5990   57.6500 C.3       8 GLP5        0.0000 
     23 OD1        16.2655    5.9200   57.8470 O.co2     3 ASC3        0.0000 
     24 OD1        16.0170    4.5340   58.3010 O.co2    11 ASL3        0.0000 
     25 OD1        16.5140    7.3060   57.3930 O.co2     7 ASP3        0.0000 
     26 O          16.2655    5.9200   57.8470 O.2       1 ALC1        0.0000 
     27 O          16.0170    4.5340   58.3010 O.2       9 ALL1        0.0000 
     28 O          16.5140    7.3060   57.3930 O.2       5 ALP1        0.0000 
     29 O          16.4155    3.9130   57.1215 O.2       1 ALC1        0.0000 
     30 O          16.8140    3.2920   55.9420 O.2       5 ALP1        0.0000 
     31 O          14.6365    4.4115   58.1130 O.2       1 ALC1        0.0000 
     32 O          13.2560    4.2890   57.9250 O.2       5 ALP1        0.0000 
     33 N          20.6540    2.0515   60.1970 N.am      2 SEC2        0.0000 
     34 N          20.9510    3.3470   60.4650 N.am     10 SEL2        0.0000 
     35 N          20.3570    0.7560   59.9290 N.am      6 SEP2        0.0000 
     36 N          15.8900    6.7805   65.3635 N.am      2 SEC2        0.0000 
     37 N          16.6570    5.6230   64.7260 N.am     10 SEL2        0.0000 
     38 N          15.1230    7.9380   66.0010 N.am      6 SEP2        0.0000 
     39 O          17.1510    9.3345   63.7280 O.2       1 ALC1        0.0000 
     40 O          17.3770    8.2920   64.4110 O.2       9 ALL1        0.0000 
     41 O          16.9250   10.3770   63.0450 O.2       5 ALP1        0.0000 
     42 CA         18.5195    5.5790   66.8715 C.3       4 GLC5        0.0000 
     43 CA         19.1220    6.9060   65.3930 C.3      12 GLL5        0.0000 
     44 CA         17.9170    4.2520   68.3500 C.3       8 GLP5        0.0000 
     45 CA         22.4170    8.8700   68.2355 C.3       4 GLC5        0.0000 
     46 CA         20.5060    9.9840   68.2720 C.3      12 GLL5        0.0000 
     47 CA         24.3280    7.7560   68.1990 C.3       8 GLP5        0.0000 
     48 CA         20.2010    9.9420   70.3450 C.3       4 GLC5        0.0000 
     49 CA         19.8960    9.9000   72.4180 C.3       8 GLP5        0.0000 
     50 CA         19.9965   11.7130   68.2820 C.3       4 GLC5        0.0000 
     51 CA         19.4870   13.4420   68.2920 C.3       8 GLP5        0.0000 
     52 N          21.7025   11.9115   68.5620 N.am      2 SEC2        0.0000 
     53 N          21.6460   10.5800   67.9680 N.am     10 SEL2        0.0000 
     54 N          21.7590   13.2430   69.1560 N.am      6 SEP2        0.0000 
     55 CA         20.8270   11.7065   66.2975 C.3       4 GLC5        0.0000 
     56 CA         22.3390   10.2280   66.8760 C.3      12 GLL5        0.0000 
     57 CA         19.3150   13.1850   65.7190 C.3       8 GLP5        0.0000 
     58 O          23.8440   11.9070   67.2435 O.2       1 ALC1        0.0000 
     59 O          23.4780   10.8440   66.5710 O.2       9 ALL1        0.0000 
     60 O          24.2100   12.9700   67.9160 O.2       5 ALP1        0.0000 
     61 CA         13.3223   -1.5840   59.2170 C.3       4 GLC5        0.0000 
     62 CA         13.0300   -3.4060   59.9270 C.3       8 GLP5        0.0000 
     63 CA         12.3818    1.6870   58.2670 C.3       4 GLC5        0.0000 
     64 CA         11.1490    3.1360   58.0270 C.3       8 GLP5        0.0000 
     65 CA         12.4677    2.4062   59.0198 C.3       4 GLC5        0.0000 
     66 CA         13.1960    1.3160   59.9410 C.3      12 GLL5        0.0000 
     67 CA         21.1472    4.8915   63.9020 C.3       4 GLC5        0.0000 
     68 CA         18.9150    5.0820   64.0070 C.3      12 GLL5        0.0000 
     69 CA         22.8790    4.4230   64.3030 C.3       8 GLP5        0.0000 
     70 CA         16.3045    7.0495   63.0730 C.3       4 GLC5        0.0000 
     71 CA         17.6820    5.9590   63.7870 C.3      12 GLL5        0.0000 
     72 CA         14.5910    7.4750   62.1900 C.3       8 GLP5        0.0000 
     73 CA         17.2140    8.1562   65.5780 C.3       4 GLC5        0.0000 
     74 CA         18.3540    7.2890   64.1250 C.3      12 GLL5        0.0000 
     75 CA         15.6900    9.2150   66.3970 C.3       8 GLP5        0.0000 
     76 CA         19.8110   10.4623   66.1077 C.3       4 GLC5        0.0000 
     77 CA         21.8380    9.2200   66.0620 C.3      12 GLL5        0.0000 
     78 CA         18.3850   12.0040   65.9790 C.3       8 GLP5        0.0000 
     79 CA         23.0580    8.6651   67.3776 C.3       4 GLC5        0.0000 
     80 CA         20.6360    8.6210   66.4110 C.3      12 GLL5        0.0000 
     81 CA         14.7699    0.6549   60.9306 C.3       4 GLC5        0.0000 
     82 CA         14.3770    2.0370   60.0840 C.3      12 GLL5        0.0000 
@<TRIPOS>BOND
@<TRIPOS>SUBSTRUCTURE
     1 ALC1       13 GROUP        1 X    ALC  0     ROOT ALC X 1
     2 SEC2       10 GROUP        1 X    SEC  0     **** SEC X 2
     3 ASC3       23 GROUP        1 X    ASC  0     **** ASC X 3
     4 GLC5        1 GROUP        1 X    GLC  0     **** GLC X 6
     5 ALP1       15 GROUP        1 Y    ALP  0     ROOT ALP Y 8
     6 SEP2       12 GROUP        1 Y    SEP  0     **** SEP Y 9
     7 ASP3       25 GROUP        1 Y    ASP  0     **** ASP Y 10
     8 GLP5        3 GROUP        1 Y    GLP  0     **** GLP Y 13
     9 ALL1       14 GROUP        1 Z    ALL  0     ROOT ALL Z 15
    10 SEL2       11 GROUP        1 Z    SEL  0     **** SEL Z 16
    11 ASL3       24 GROUP        1 Z    ASL  0     **** ASL Z 17
    12 GLL5        2 GROUP        1 Z    GLL  0     **** GLL Z 20
@<TRIPOS>SET

