#    Name: 2pid_YSA_2_ligand
#    Modification time : Mon Mar 24 19:01:07 2014

@<TRIPOS>MOLECULE
2pid_YSA_2_ligand
   59    62     1     0     0
SMALL
NO_CHARGES


@<TRIPOS>ATOM
      1 CD1        15.3280    0.8370   58.2220 C.ar      1 YSA384      0.0000 
      2 CE1        14.1460    0.1190   58.0750 C.ar      1 YSA384      0.0000 
      3 CZ         13.0830    0.3570   58.9390 C.ar      1 YSA384      0.0000 
      4 OH         11.9420   -0.3700   58.8040 O.3       1 YSA384      0.0000 
      5 CE2        13.1960    1.3160   59.9410 C.ar      1 YSA384      0.0000 
      6 CD2        14.3770    2.0370   60.0840 C.ar      1 YSA384      0.0000 
      7 CG         15.4460    1.7900   59.2280 C.ar      1 YSA384      0.0000 
      8 CB         16.7950    2.4870   59.4220 C.3       1 YSA384      0.0000 
      9 CA         16.6920    4.0110   59.4980 C.3       1 YSA384      0.0000 
     10 N          16.0170    4.5340   58.3010 N.4       1 YSA384      0.0000 
     11 C          18.1150    4.5670   59.6060 C.2       1 YSA384      0.0000 
     12 O          18.7040    4.9390   58.5930 O.2       1 YSA384      0.0000 
     13 NAT        18.6580    4.6040   60.8210 N.am      1 YSA384      0.0000 
     14 SBI        20.2920    4.6500   60.8090 S.o2      1 YSA384      0.0000 
     15 OAD        20.9850    5.9360   60.4770 O.2       1 YSA384      0.0000 
     16 OAE        20.9510    3.3470   60.4650 O.2       1 YSA384      0.0000 
     17 O5'        20.5090    4.6050   62.2170 O.3       1 YSA384      0.0000 
     18 C5'        19.9160    5.6380   62.9950 C.3       1 YSA384      0.0000 
     19 C4'        18.9150    5.0820   64.0070 C.3       1 YSA384      0.0000 
     20 O4'        19.3910    5.4960   65.2970 O.3       1 YSA384      0.0000 
     21 C3'        17.6820    5.9590   63.7870 C.3       1 YSA384      0.0000 
     22 O3'        16.6570    5.6230   64.7260 O.3       1 YSA384      0.0000 
     23 C2'        18.3540    7.2890   64.1250 C.3       1 YSA384      0.0000 
     24 O2'        17.3770    8.2920   64.4110 O.3       1 YSA384      0.0000 
     25 C1'        19.1220    6.9060   65.3930 C.3       1 YSA384      0.0000 
     26 N9         20.3530    7.7260   65.4700 N.pl3     1 YSA384      0.0000 
     27 C8         21.3370    7.7540   64.5730 C.2       1 YSA384      0.0000 
     28 N7         22.2440    8.6620   64.9250 N.2       1 YSA384      0.0000 
     29 C5         21.8380    9.2200   66.0620 C.ar      1 YSA384      0.0000 
     30 C4         20.6360    8.6210   66.4110 C.ar      1 YSA384      0.0000 
     31 N3         19.9980    9.0230   67.5200 N.ar      1 YSA384      0.0000 
     32 C2         20.5060    9.9840   68.2720 C.ar      1 YSA384      0.0000 
     33 N1         21.6460   10.5800   67.9680 N.ar      1 YSA384      0.0000 
     34 C6         22.3390   10.2280   66.8760 C.ar      1 YSA384      0.0000 
     35 N6         23.4780   10.8440   66.5710 N.pl3     1 YSA384      0.0000 
     36 H          16.1173    0.6627   57.5848 H         1 YSA384      0.0000 
     37 H          14.0590   -0.5835   57.3319 H         1 YSA384      0.0000 
     38 H          12.4064    1.4915   60.5756 H         1 YSA384      0.0000 
     39 H          14.4600    2.7492   60.8187 H         1 YSA384      0.0000 
     40 H          17.4603    2.2146   58.5890 H         1 YSA384      0.0000 
     41 H          17.2599    2.1134   60.3467 H         1 YSA384      0.0000 
     42 H          16.1577    4.2697   60.3887 H         1 YSA384      0.0000 
     43 H          18.2678    4.6086   61.6993 H         1 YSA384      0.0000 
     44 H          19.3774    6.3671   62.3625 H         1 YSA384      0.0000 
     45 H          20.6746    6.2103   63.5595 H         1 YSA384      0.0000 
     46 H          18.7254    4.1260   63.8828 H         1 YSA384      0.0000 
     47 H          17.4369    5.9448   62.7924 H         1 YSA384      0.0000 
     48 H          19.0356    7.5246   63.3764 H         1 YSA384      0.0000 
     49 H          18.4780    7.1207   66.2276 H         1 YSA384      0.0000 
     50 H          21.3855    7.1888   63.7716 H         1 YSA384      0.0000 
     51 H          19.9823   10.2866   69.1472 H         1 YSA384      0.0000 
     52 H          23.5683   11.7865   66.8927 H         1 YSA384      0.0000 
     53 H          24.1411   10.3090   66.0474 H         1 YSA384      0.0000 
     54 H          16.3349    5.4528   58.0670 H         1 YSA384      0.0000 
     55 H          16.1781    3.9556   57.5013 H         1 YSA384      0.0000 
     56 H          15.0266    4.5899   58.4277 H         1 YSA384      0.0000 
     57 H          12.2343   -1.2379   58.4025 H         1 YSA384      0.0000 
     58 H          16.1006    4.9315   64.2652 H         1 YSA384      0.0000 
     59 H          17.5014    8.9844   63.7003 H         1 YSA384      0.0000 
@<TRIPOS>BOND
     1    2    1 ar   
     2    7    1 ar   
     3   36    1 1    
     4    3    2 ar   
     5   37    2 1    
     6    4    3 1    
     7    5    3 ar   
     8   57    4 1    
     9    6    5 ar   
    10   38    5 1    
    11    7    6 ar   
    12   39    6 1    
    13    8    7 1    
    14    9    8 1    
    15   40    8 1    
    16   41    8 1    
    17   10    9 1    
    18   11    9 1    
    19   42    9 1    
    20   54   10 1    
    21   55   10 1    
    22   56   10 1    
    23   12   11 2    
    24   13   11 am   
    25   14   13 1    
    26   43   13 1    
    27   15   14 2    
    28   16   14 2    
    29   17   14 1    
    30   18   17 1    
    31   19   18 1    
    32   44   18 1    
    33   45   18 1    
    34   20   19 1    
    35   21   19 1    
    36   46   19 1    
    37   25   20 1    
    38   22   21 1    
    39   23   21 1    
    40   47   21 1    
    41   58   22 1    
    42   24   23 1    
    43   25   23 1    
    44   48   23 1    
    45   59   24 1    
    46   26   25 1    
    47   49   25 1    
    48   27   26 1    
    49   30   26 1    
    50   28   27 2    
    51   50   27 1    
    52   29   28 1    
    53   30   29 ar   
    54   34   29 ar   
    55   31   30 ar   
    56   32   31 ar   
    57   33   32 ar   
    58   51   32 1    
    59   34   33 ar   
    60   35   34 1    
    61   52   35 1    
    62   53   35 1    
@<TRIPOS>SUBSTRUCTURE
     1 YSA384      1 GROUP   
@<TRIPOS>SET

