#    Name: 2d4e_NAD_1_INTS_M
#    Modification time : Tue Mar 25 09:38:29 2014

@<TRIPOS>MOLECULE
2d4e_NAD_1_INTS_M
  102     0     9     0     0
SMALL
NO_CHARGES


@<TRIPOS>ATOM
      1 N         -21.3820    0.6625   26.5240 N.am      2 SEC2        0.0000 
      2 N         -22.5980    1.6030   26.6260 N.am      8 SEL2        0.0000 
      3 N         -20.1660   -0.2780   26.4220 N.am      5 SEP2        0.0000 
      4 N         -23.4250    0.4820   26.4845 N.am      2 SEC2        0.0000 
      5 N         -24.2520   -0.6390   26.3430 N.am      5 SEP2        0.0000 
      6 CA        -20.7775    5.6405   26.2225 C.3       3 GLC5        0.0000 
      7 CA        -22.2140    4.3330   25.6880 C.3       9 GLL5        0.0000 
      8 CA        -19.3410    6.9480   26.7570 C.3       6 GLP5        0.0000 
      9 CA        -20.7765    2.9950   25.4555 C.3       3 GLC5        0.0000 
     10 CA        -19.3390    1.6570   25.2230 C.3       6 GLP5        0.0000 
     11 CA        -23.6430    7.9855   26.5715 C.3       3 GLC5        0.0000 
     12 CA        -23.9920    6.2100   25.7500 C.3       9 GLL5        0.0000 
     13 CA        -23.2940    9.7610   27.3930 C.3       6 GLP5        0.0000 
     14 N         -25.3715    8.3650   25.0295 N.am      2 SEC2        0.0000 
     15 N         -23.9460    7.4650   25.0390 N.am      8 SEL2        0.0000 
     16 N         -26.7970    9.2650   25.0200 N.am      5 SEP2        0.0000 
     17 O         -22.6920    7.6835   25.0600 O.2       1 ALC1        0.0000 
     18 O         -23.9460    7.4650   25.0390 O.2       7 ALL1        0.0000 
     19 O         -21.4380    7.9020   25.0810 O.2       4 ALP1        0.0000 
     20 N         -26.6120    7.9655   25.5175 N.am      2 SEC2        0.0000 
     21 N         -26.4270    6.6660   26.0150 N.am      8 SEL2        0.0000 
     22 O         -26.5740    7.4660   27.1615 O.2       1 ALC1        0.0000 
     23 O         -26.4270    6.6660   26.0150 O.2       7 ALL1        0.0000 
     24 O         -26.7210    8.2660   28.3080 O.2       4 ALP1        0.0000 
     25 CA        -29.5885   -0.2815   23.1940 C.3       3 GLC5        0.0000 
     26 CA        -29.2690    1.7640   23.6440 C.3       9 GLL5        0.0000 
     27 CA        -29.9080   -2.3270   22.7440 C.3       6 GLP5        0.0000 
     28 CA        -27.1320    4.3130   20.5275 C.3       3 GLC5        0.0000 
     29 CA        -28.4610    3.2300   21.9120 C.3       9 GLL5        0.0000 
     30 CA        -25.8030    5.3960   19.1430 C.3       6 GLP5        0.0000 
     31 CA        -29.0190    4.9820   21.7435 C.3       3 GLC5        0.0000 
     32 CA        -29.5770    6.7340   21.5750 C.3       6 GLP5        0.0000 
     33 CA        -30.1870    3.6190   21.1285 C.3       3 GLC5        0.0000 
     34 CA        -31.9130    4.0080   20.3450 C.3       6 GLP5        0.0000 
     35 CA        -28.3370    3.1635   19.8735 C.3       3 GLC5        0.0000 
     36 CA        -28.2130    3.0970   17.8350 C.3       6 GLP5        0.0000 
     37 CA        -27.3870    1.7900   21.1365 C.3       3 GLC5        0.0000 
     38 CA        -26.3130    0.3500   20.3610 C.3       6 GLP5        0.0000 
     39 N         -20.0440    6.4180   28.8220 N.am      2 SEC2        0.0000 
     40 N         -20.7100    4.8520   28.6970 N.am      8 SEL2        0.0000 
     41 N         -19.3780    7.9840   28.9470 N.am      5 SEP2        0.0000 
     42 CA        -18.1885    4.2115   28.1650 C.3       3 GLC5        0.0000 
     43 CA        -18.1080    2.5430   29.4140 C.3       9 GLL5        0.0000 
     44 CA        -18.2690    5.8800   26.9160 C.3       6 GLP5        0.0000 
     45 CA        -16.8430    2.9430   30.7995 C.3       3 GLC5        0.0000 
     46 CA        -15.5780    3.3430   32.1850 C.3       6 GLP5        0.0000 
     47 CA        -16.1115    2.2625   29.8930 C.3       3 GLC5        0.0000 
     48 CA        -17.6470    1.4240   28.5340 C.3       9 GLL5        0.0000 
     49 CA        -14.5760    3.1010   31.2520 C.3       6 GLP5        0.0000 
     50 O         -15.6275   -1.4600   29.6255 O.2       1 ALC1        0.0000 
     51 O         -17.0840   -0.9420   28.9580 O.2       7 ALL1        0.0000 
     52 O         -14.1710   -1.9780   30.2930 O.2       4 ALP1        0.0000 
     53 O         -16.5970   -1.9680   29.5570 O.2       1 ALC1        0.0000 
     54 O         -16.1100   -2.9940   30.1560 O.2       4 ALP1        0.0000 
     55 O         -14.3210   -1.1495   29.3405 O.2       1 ALC1        0.0000 
     56 O         -14.4710   -0.3210   28.3880 O.2       7 ALL1        0.0000 
     57 CA        -17.6215    1.4430   26.1450 C.3       3 GLC5        0.0000 
     58 CA        -15.9040    1.2290   27.0670 C.3       9 GLL5        0.0000 
     59 CA        -15.4220   -0.3240   24.3030 C.3       3 GLC5        0.0000 
     60 CA        -14.3580    1.4080   25.2640 C.3       9 GLL5        0.0000 
     61 CA        -16.4860   -2.0560   23.3420 C.3       6 GLP5        0.0000 
     62 CA        -13.0590    1.2880   26.2700 C.3       3 GLC5        0.0000 
     63 CA        -11.7600    1.1680   27.2760 C.3       6 GLP5        0.0000 
     64 CA        -13.9240    1.6955   22.4615 C.3       3 GLC5        0.0000 
     65 CA        -13.4440    2.1370   24.5180 C.3       9 GLL5        0.0000 
     66 CA        -14.4040    1.2540   20.4050 C.3       6 GLP5        0.0000 
     67 O         -13.7090   -0.7775   23.8625 O.2       1 ALC1        0.0000 
     68 O         -12.8980    0.2270   23.0240 O.2       7 ALL1        0.0000 
     69 O         -14.5200   -1.7820   24.7010 O.2       4 ALP1        0.0000 
     70 CA        -13.2550    2.3010   27.0010 C.3       3 GLC5        0.0000 
     71 CA        -14.7500    3.4340   26.7260 C.3       9 GLL5        0.0000 
     72 CA        -22.4860    3.6632   23.4555 C.3       3 GLC5        0.0000 
     73 CA        -22.2230    2.6140   21.6000 C.3       6 GLP5        0.0000 
     74 CA        -27.4195    5.4710   25.4855 C.3       3 GLC5        0.0000 
     75 CA        -25.5410    4.7430   24.7240 C.3       9 GLL5        0.0000 
     76 CA        -29.3640    5.7490   25.6410 C.3       6 GLP5        0.0000 
     77 CA        -26.3262    1.5762   24.1913 C.3       3 GLC5        0.0000 
     78 CA        -28.2480    2.3450   24.4870 C.3       9 GLL5        0.0000 
     79 CA        -24.8110    0.3110   24.1900 C.3       6 GLP5        0.0000 
     80 CA        -28.7304    4.2226   24.8114 C.3       3 GLC5        0.0000 
     81 CA        -18.6082    1.8203   27.0985 C.3       3 GLC5        0.0000 
     82 CA        -19.0859    0.1846   29.1290 C.3       3 GLC5        0.0000 
     83 CA        -20.8970   -0.8360   29.1990 C.3       6 GLP5        0.0000 
     84 CA        -14.9615    1.2485   30.0258 C.3       3 GLC5        0.0000 
     85 CA        -16.6720    0.4270   29.1440 C.3       9 GLL5        0.0000 
     86 CA        -13.8970    1.8840   31.2700 C.3       6 GLP5        0.0000 
     87 CA        -13.7010    1.0910   27.5095 C.3       3 GLC5        0.0000 
     88 CA        -15.3800    0.7990   28.4190 C.3       9 GLL5        0.0000 
     89 CA        -14.8775    3.0833   24.0245 C.3       3 GLC5        0.0000 
     90 CA        -15.8540    4.3940   23.1580 C.3       6 GLP5        0.0000 
     91 CA        -15.7572    5.0602   26.1508 C.3       3 GLC5        0.0000 
     92 CA        -13.8370    4.0910   25.9470 C.3       9 GLL5        0.0000 
     93 CA        -17.2210    6.3580   25.9650 C.3       6 GLP5        0.0000 
     94 CA        -12.1103    2.7538   25.7185 C.3       3 GLC5        0.0000 
     95 CA        -10.6570    2.0430   26.1250 C.3       6 GLP5        0.0000 
     96 CA        -14.0866    5.5682   25.8459 C.3       3 GLC5        0.0000 
     97 CA        -13.1360    3.5390   24.8360 C.3       9 GLL5        0.0000 
     98 CA        -14.0550    7.5120   25.6330 C.3       6 GLP5        0.0000 
     99 CA        -14.9861    4.0092   24.6084 C.3       3 GLC5        0.0000 
    100 CA        -24.4362    5.7545   23.5155 C.3       3 GLC5        0.0000 
    101 CA        -23.2840    5.0920   24.9340 C.3       9 GLL5        0.0000 
    102 CA        -24.3160    6.0870   21.6950 C.3       6 GLP5        0.0000 
@<TRIPOS>BOND
@<TRIPOS>SUBSTRUCTURE
     1 ALC1       17 GROUP        1 X    ALC  0     ROOT ALC X 1
     2 SEC2        1 GROUP        1 X    SEC  0     **** SEC X 2
     3 GLC5        6 GROUP        1 X    GLC  0     **** GLC X 6
     4 ALP1       19 GROUP        1 Y    ALP  0     ROOT ALP Y 8
     5 SEP2        3 GROUP        1 Y    SEP  0     **** SEP Y 9
     6 GLP5        8 GROUP        1 Y    GLP  0     **** GLP Y 13
     7 ALL1       18 GROUP        1 Z    ALL  0     ROOT ALL Z 15
     8 SEL2        2 GROUP        1 Z    SEL  0     **** SEL Z 16
     9 GLL5        7 GROUP        1 Z    GLL  0     **** GLL Z 20
@<TRIPOS>SET

