#    Name: 2d4e_NAD_1_ligand
#    Modification time : Tue Mar 25 09:38:29 2014

@<TRIPOS>MOLECULE
2d4e_NAD_1_ligand
   70    74     1     0     0
SMALL
NO_CHARGES


@<TRIPOS>ATOM
      1 PA        -22.8070    2.5750   27.7130 P.3       1 NAD1701     0.0000 
      2 O1A       -24.0480    2.3300   28.4390 O.co2     1 NAD1701     0.0000 
      3 O2A       -22.5980    1.6030   26.6260 O.co2     1 NAD1701     0.0000 
      4 O5B       -22.7250    4.0460   27.0320 O.3       1 NAD1701     0.0000 
      5 C5B       -22.2140    4.3330   25.6880 C.3       1 NAD1701     0.0000 
      6 C4B       -23.2840    5.0920   24.9340 C.3       1 NAD1701     0.0000 
      7 O4B       -24.3150    4.1100   24.6910 O.3       1 NAD1701     0.0000 
      8 C3B       -23.9920    6.2100   25.7500 C.3       1 NAD1701     0.0000 
      9 O3B       -23.9460    7.4650   25.0390 O.3       1 NAD1701     0.0000 
     10 C2B       -25.4090    5.6430   25.9360 C.3       1 NAD1701     0.0000 
     11 O2B       -26.4270    6.6660   26.0150 O.3       1 NAD1701     0.0000 
     12 C1B       -25.5410    4.7430   24.7240 C.3       1 NAD1701     0.0000 
     13 N9A       -26.5620    3.7260   24.8960 N.pl3     1 NAD1701     0.0000 
     14 C8A       -26.8710    2.9680   26.0110 C.2       1 NAD1701     0.0000 
     15 N7A       -27.8970    2.1070   25.8160 N.2       1 NAD1701     0.0000 
     16 C5A       -28.2480    2.3450   24.4870 C.ar      1 NAD1701     0.0000 
     17 C6A       -29.2690    1.7640   23.6440 C.ar      1 NAD1701     0.0000 
     18 N6A       -30.1130    0.8190   24.0660 N.pl3     1 NAD1701     0.0000 
     19 N1A       -29.3420    2.2430   22.3440 N.ar      1 NAD1701     0.0000 
     20 C2A       -28.4610    3.2300   21.9120 C.ar      1 NAD1701     0.0000 
     21 N3A       -27.5010    3.8190   22.6110 N.ar      1 NAD1701     0.0000 
     22 C4A       -27.4350    3.3380   23.8980 C.ar      1 NAD1701     0.0000 
     23 O3        -21.6770    2.5530   28.7320 O.3       1 NAD1701     0.0000 
     24 PN        -20.5750    3.5270   29.3250 P.3       1 NAD1701     0.0000 
     25 O1N       -20.7500    3.4750   30.7910 O.co2     1 NAD1701     0.0000 
     26 O2N       -20.7100    4.8520   28.6970 O.co2     1 NAD1701     0.0000 
     27 O5D       -19.4080    2.6110   28.8800 O.3       1 NAD1701     0.0000 
     28 C5D       -18.1080    2.5430   29.4140 C.3       1 NAD1701     0.0000 
     29 C4D       -17.6470    1.4240   28.5340 C.3       1 NAD1701     0.0000 
     30 O4D       -17.1070    1.9030   27.2820 O.3       1 NAD1701     0.0000 
     31 C3D       -16.6720    0.4270   29.1440 C.3       1 NAD1701     0.0000 
     32 O3D       -17.0840   -0.9420   28.9580 O.3       1 NAD1701     0.0000 
     33 C2D       -15.3800    0.7990   28.4190 C.3       1 NAD1701     0.0000 
     34 O2D       -14.4710   -0.3210   28.3880 O.3       1 NAD1701     0.0000 
     35 C1D       -15.9040    1.2290   27.0670 C.3       1 NAD1701     0.0000 
     36 N1N       -14.9620    2.0770   26.3180 N.pl3     1 NAD1701     0.0000 
     37 C2N       -14.3580    1.4080   25.2640 C.ar      1 NAD1701     0.0000 
     38 C3N       -13.4440    2.1370   24.5180 C.ar      1 NAD1701     0.0000 
     39 C7N       -12.6940    1.5160   23.3490 C.2       1 NAD1701     0.0000 
     40 O7N       -11.9080    2.2110   22.7310 O.2       1 NAD1701     0.0000 
     41 N7N       -12.8980    0.2270   23.0240 N.am      1 NAD1701     0.0000 
     42 C4N       -13.1360    3.5390   24.8360 C.ar      1 NAD1701     0.0000 
     43 C5N       -13.8370    4.0910   25.9470 C.ar      1 NAD1701     0.0000 
     44 C6N       -14.7500    3.4340   26.7260 C.ar      1 NAD1701     0.0000 
     45 H         -21.9933    3.4135   25.1549 H         1 NAD1701     0.0000 
     46 H         -21.3184    4.9445   25.7384 H         1 NAD1701     0.0000 
     47 H         -22.9191    5.4783   24.0349 H         1 NAD1701     0.0000 
     48 H         -23.5183    6.2391   26.7049 H         1 NAD1701     0.0000 
     49 H         -25.3765    5.0095   26.8068 H         1 NAD1701     0.0000 
     50 H         -25.7037    5.3401   23.8720 H         1 NAD1701     0.0000 
     51 H         -26.3770    3.0585   26.8676 H         1 NAD1701     0.0000 
     52 H         -29.9746    0.4908   25.0004 H         1 NAD1701     0.0000 
     53 H         -30.8076    0.5244   23.4097 H         1 NAD1701     0.0000 
     54 H         -28.5962    3.5382   20.8730 H         1 NAD1701     0.0000 
     55 H         -18.0929    2.2238   30.4135 H         1 NAD1701     0.0000 
     56 H         -17.5370    3.3994   29.2099 H         1 NAD1701     0.0000 
     57 H         -18.5704    0.8144   28.2682 H         1 NAD1701     0.0000 
     58 H         -16.5476    0.7006   30.1763 H         1 NAD1701     0.0000 
     59 H         -14.9814    1.6580   28.9151 H         1 NAD1701     0.0000 
     60 H         -16.0916    0.3107   26.4913 H         1 NAD1701     0.0000 
     61 H         -14.5704    0.4501   25.0529 H         1 NAD1701     0.0000 
     62 H         -12.3597   -0.1241   22.2579 H         1 NAD1701     0.0000 
     63 H         -13.5698   -0.2653   23.5775 H         1 NAD1701     0.0000 
     64 H         -12.4865    4.0431   24.3044 H         1 NAD1701     0.0000 
     65 H         -13.6145    5.1111   26.1746 H         1 NAD1701     0.0000 
     66 H         -15.2255    3.8198   27.4876 H         1 NAD1701     0.0000 
     67 H         -23.1378    7.9344   25.3948 H         1 NAD1701     0.0000 
     68 H         -26.3422    7.0447   26.9366 H         1 NAD1701     0.0000 
     69 H         -16.5327   -1.4683   29.6053 H         1 NAD1701     0.0000 
     70 H         -14.5712   -0.7602   29.2808 H         1 NAD1701     0.0000 
@<TRIPOS>BOND
     1    2    1 ar   
     2    3    1 ar   
     3    4    1 1    
     4   23    1 1    
     5    5    4 1    
     6    6    5 1    
     7   45    5 1    
     8   46    5 1    
     9    7    6 1    
    10    8    6 1    
    11   47    6 1    
    12   12    7 1    
    13    9    8 1    
    14   10    8 1    
    15   48    8 1    
    16   67    9 1    
    17   11   10 1    
    18   12   10 1    
    19   49   10 1    
    20   68   11 1    
    21   13   12 1    
    22   50   12 1    
    23   14   13 1    
    24   22   13 1    
    25   15   14 2    
    26   51   14 1    
    27   16   15 1    
    28   17   16 ar   
    29   22   16 ar   
    30   18   17 1    
    31   19   17 ar   
    32   52   18 1    
    33   53   18 1    
    34   20   19 ar   
    35   21   20 ar   
    36   54   20 1    
    37   22   21 ar   
    38   24   23 1    
    39   25   24 ar   
    40   26   24 ar   
    41   27   24 1    
    42   28   27 1    
    43   29   28 1    
    44   55   28 1    
    45   56   28 1    
    46   30   29 1    
    47   31   29 1    
    48   57   29 1    
    49   35   30 1    
    50   32   31 1    
    51   33   31 1    
    52   58   31 1    
    53   69   32 1    
    54   34   33 1    
    55   35   33 1    
    56   59   33 1    
    57   70   34 1    
    58   36   35 1    
    59   60   35 1    
    60   37   36 ar   
    61   44   36 ar   
    62   38   37 ar   
    63   61   37 1    
    64   39   38 1    
    65   42   38 ar   
    66   40   39 2    
    67   41   39 am   
    68   62   41 1    
    69   63   41 1    
    70   43   42 ar   
    71   64   42 1    
    72   44   43 ar   
    73   65   43 1    
    74   66   44 1    
@<TRIPOS>SUBSTRUCTURE
     1 NAD1701     1 GROUP   
@<TRIPOS>SET

