#    Name: 1d1g_MTX_1_INTS_M
#    Modification time : Mon Mar 24 21:11:25 2014

@<TRIPOS>MOLECULE
1d1g_MTX_1_INTS_M
   78     0    12     0     0
SMALL
NO_CHARGES


@<TRIPOS>ATOM
      1 N           8.1235   42.9470   46.3105 N.am      2 SEC2        0.0000 
      2 N           9.0630   43.1530   47.3760 N.am     10 SEL2        0.0000 
      3 N           7.1840   42.7410   45.2450 N.am      6 SEP2        0.0000 
      4 CA          8.5845   41.7805   50.4535 C.3       4 GLC5        0.0000 
      5 CA          9.0100   42.2080   48.4220 C.3      12 GLL5        0.0000 
      6 CA          8.1590   41.3530   52.4850 C.3       8 GLP5        0.0000 
      7 CA         10.1845   40.7360   49.0695 C.3       4 GLC5        0.0000 
      8 CA         11.3590   39.2640   49.7170 C.3       8 GLP5        0.0000 
      9 CA          9.5000   41.2285   46.8845 C.3       4 GLC5        0.0000 
     10 CA          9.9900   40.2490   45.3470 C.3       8 GLP5        0.0000 
     11 O           6.9370   41.3730   47.4145 O.2       1 ALC1        0.0000 
     12 O           7.9670   41.3240   48.3880 O.2       9 ALL1        0.0000 
     13 O           5.9070   41.4220   46.4410 O.2       5 ALP1        0.0000 
     14 O           7.3170   40.2455   49.1270 O.2       1 ALC1        0.0000 
     15 O           6.6670   39.1670   49.8660 O.2       5 ALP1        0.0000 
     16 CA          9.5965   42.2060   51.0070 C.3       4 GLC5        0.0000 
     17 CA         11.0340   43.0590   49.5290 C.3      12 GLL5        0.0000 
     18 CA         11.1965   41.1615   49.6230 C.3       4 GLC5        0.0000 
     19 O          11.7690   41.9150   51.2080 O.2       1 ALC1        0.0000 
     20 O          11.9200   43.0240   50.4850 O.2       9 ALL1        0.0000 
     21 O          11.6180   40.8060   51.9310 O.2       5 ALP1        0.0000 
     22 CA          9.1830   46.5515   45.6895 C.3       4 GLC5        0.0000 
     23 CA         11.0930   45.7920   46.4500 C.3      12 GLL5        0.0000 
     24 CA          7.2730   47.3110   44.9290 C.3       8 GLP5        0.0000 
     25 N           9.3745   46.0945   45.3405 N.am      2 SEC2        0.0000 
     26 N          10.1500   44.9990   46.3630 N.am     10 SEL2        0.0000 
     27 N           8.5990   47.1900   44.3180 N.am      6 SEP2        0.0000 
     28 CA         10.0495   42.1545   46.3800 C.3       4 GLC5        0.0000 
     29 CA         10.1090   44.0600   47.4130 C.3      12 GLL5        0.0000 
     30 CA         13.6685   48.9615   48.3815 C.3       4 GLC5        0.0000 
     31 CA         13.2860   46.9100   47.5510 C.3      12 GLL5        0.0000 
     32 CA         14.0510   51.0130   49.2120 C.3       8 GLP5        0.0000 
     33 CA         14.1345   45.0585   48.1465 C.3       4 GLC5        0.0000 
     34 CA         14.9830   43.2070   48.7420 C.3       8 GLP5        0.0000 
     35 CA         15.6510   49.4005   45.3250 C.3       4 GLC5        0.0000 
     36 CA         13.9180   48.4070   45.8200 C.3      12 GLL5        0.0000 
     37 CA         17.3840   50.3940   44.8300 C.3       8 GLP5        0.0000 
     38 CA         13.9845   49.7100   47.5160 C.3       4 GLC5        0.0000 
     39 N           9.4875   54.0450   47.6215 N.am      2 SEC2        0.0000 
     40 N           8.4370   52.7830   47.4220 N.am     10 SEL2        0.0000 
     41 N          10.5380   55.3070   47.8210 N.am      6 SEP2        0.0000 
     42 N           8.4410   54.0675   48.0965 N.am      2 SEC2        0.0000 
     43 N           8.4450   55.3520   48.7710 N.am      6 SEP2        0.0000 
     44 CA          8.0020   52.1210   50.2235 C.3       4 GLC5        0.0000 
     45 CA          6.4510   51.7800   48.9500 C.3      12 GLL5        0.0000 
     46 CA          9.5530   52.4620   51.4970 C.3       8 GLP5        0.0000 
     47 NZ          5.8855   51.4080   52.3415 N.4       3 LYC4        0.0000 
     48 NZ          6.1210   50.3740   50.9930 N.4      11 LYL4        0.0000 
     49 NZ          6.0110   51.3620   54.3560 N.4       7 LYP4        0.0000 
     50 N           6.2030   50.3100   52.3465 N.am      2 SEC2        0.0000 
     51 N           6.1210   50.3740   50.9930 N.am     10 SEL2        0.0000 
     52 N           6.2850   50.2460   53.7000 N.am      6 SEP2        0.0000 
     53 N           5.8855   51.4080   52.3415 N.am      2 SEC2        0.0000 
     54 N           5.6500   52.4420   53.6900 N.am      6 SEP2        0.0000 
     55 NZ          3.8415   53.1385   50.9350 N.4       3 LYC4        0.0000 
     56 NZ          5.5340   52.4970   50.9810 N.4      11 LYL4        0.0000 
     57 NZ          2.1490   53.7800   50.8890 N.4       7 LYP4        0.0000 
     58 N           5.5920   52.4695   52.3355 N.am      2 SEC2        0.0000 
     59 N           5.5340   52.4970   50.9810 N.am     10 SEL2        0.0000 
     60 NZ          2.4340   51.2950   44.6890 N.4       3 LYC4        0.0000 
     61 NZ          4.2410   51.4290   44.9550 N.4      11 LYL4        0.0000 
     62 NZ          0.6270   51.1610   44.4230 N.4       7 LYP4        0.0000 
     63 NZ          1.5560   51.6530   45.5750 N.4       3 LYC4        0.0000 
     64 NZ          2.4850   52.1450   46.7270 N.4      11 LYL4        0.0000 
     65 N           1.5560   51.6530   45.5750 N.am      2 SEC2        0.0000 
     66 N           2.4850   52.1450   46.7270 N.am     10 SEL2        0.0000 
     67 N           0.6270   51.1610   44.4230 N.am      6 SEP2        0.0000 
     68 CA         11.5418   52.0920   48.4225 C.3       4 GLC5        0.0000 
     69 CA          9.7280   50.8230   47.8090 C.3      12 GLL5        0.0000 
     70 CA         12.9060   53.2320   49.5680 C.3       8 GLP5        0.0000 
     71 CA          9.6907   51.3445   49.8515 C.3       4 GLC5        0.0000 
     72 CA         12.9375   50.3705   47.9705 C.3       4 GLC5        0.0000 
     73 CA         11.9380   49.0770   47.1600 C.3      12 GLL5        0.0000 
     74 CA         12.2405   50.1265   48.8317 C.3       4 GLC5        0.0000 
     75 CA         10.9310   48.8490   48.3000 C.3      12 GLL5        0.0000 
     76 CA          3.8680   50.2610   49.4410 C.3       4 GLC5        0.0000 
     77 CA          5.4230   50.8700   48.1730 C.3      12 GLL5        0.0000 
     78 CA          2.9320   49.3610   50.9730 C.3       8 GLP5        0.0000 
@<TRIPOS>BOND
@<TRIPOS>SUBSTRUCTURE
     1 ALC1       11 GROUP        1 X    ALC  0     ROOT ALC X 1
     2 SEC2        1 GROUP        1 X    SEC  0     **** SEC X 2
     3 LYC4       47 GROUP        1 X    LYC  0     **** LYC X 4
     4 GLC5        4 GROUP        1 X    GLC  0     **** GLC X 6
     5 ALP1       13 GROUP        1 Y    ALP  0     ROOT ALP Y 8
     6 SEP2        3 GROUP        1 Y    SEP  0     **** SEP Y 9
     7 LYP4       49 GROUP        1 Y    LYP  0     **** LYP Y 11
     8 GLP5        6 GROUP        1 Y    GLP  0     **** GLP Y 13
     9 ALL1       12 GROUP        1 Z    ALL  0     ROOT ALL Z 15
    10 SEL2        2 GROUP        1 Z    SEL  0     **** SEL Z 16
    11 LYL4       48 GROUP        1 Z    LYL  0     **** LYL Z 18
    12 GLL5        5 GROUP        1 Z    GLL  0     **** GLL Z 20
@<TRIPOS>SET

