#    Name: 1d1g_MTX_1_ligand
#    Modification time : Mon Mar 24 21:11:25 2014

@<TRIPOS>MOLECULE
1d1g_MTX_1_ligand
   52    54     1     0     0
SMALL
NO_CHARGES


@<TRIPOS>ATOM
      1 N1          9.0630   43.1530   47.3760 N.ar      1 MTX171      0.0000 
      2 C2          9.0100   42.2080   48.4220 C.ar      1 MTX171      0.0000 
      3 NA2         7.9670   41.3240   48.3880 N.pl3     1 MTX171      0.0000 
      4 N3          9.9520   42.2070   49.3940 N.ar      1 MTX171      0.0000 
      5 C4         11.0340   43.0590   49.5290 C.ar      1 MTX171      0.0000 
      6 NA4        11.9200   43.0240   50.4850 N.pl3     1 MTX171      0.0000 
      7 C4A        11.1070   44.0540   48.4650 C.ar      1 MTX171      0.0000 
      8 N5         12.1170   44.9880   48.4590 N.ar      1 MTX171      0.0000 
      9 C6         12.1270   45.8850   47.4450 C.ar      1 MTX171      0.0000 
     10 C7         11.0930   45.7920   46.4500 C.ar      1 MTX171      0.0000 
     11 N8         10.1500   44.9990   46.3630 N.ar      1 MTX171      0.0000 
     12 C8A        10.1090   44.0600   47.4130 C.ar      1 MTX171      0.0000 
     13 C9         13.2860   46.9100   47.5510 C.3       1 MTX171      0.0000 
     14 N10        12.9470   48.1160   46.9570 N.pl3     1 MTX171      0.0000 
     15 CM         13.9180   48.4070   45.8200 C.3       1 MTX171      0.0000 
     16 C11         9.7280   50.8230   47.8090 C.ar      1 MTX171      0.0000 
     17 C12        10.6270   51.0810   46.7450 C.ar      1 MTX171      0.0000 
     18 C13        11.7100   50.3790   46.2980 C.ar      1 MTX171      0.0000 
     19 C14        11.9380   49.0770   47.1600 C.ar      1 MTX171      0.0000 
     20 C15        10.9310   48.8490   48.3000 C.ar      1 MTX171      0.0000 
     21 C16         9.9290   49.6310   48.6030 C.ar      1 MTX171      0.0000 
     22 C           8.7850   51.7140   47.9580 C.2       1 MTX171      0.0000 
     23 O           8.4370   52.7830   47.4220 O.2       1 MTX171      0.0000 
     24 N           7.7950   51.6850   48.8130 N.am      1 MTX171      0.0000 
     25 CA          6.4510   51.7800   48.9500 C.3       1 MTX171      0.0000 
     26 CT          6.0590   51.3910   50.3600 C.2       1 MTX171      0.0000 
     27 O1          6.1210   50.3740   50.9930 O.co2     1 MTX171      0.0000 
     28 O2          5.5340   52.4970   50.9810 O.co2     1 MTX171      0.0000 
     29 CB          5.4230   50.8700   48.1730 C.3       1 MTX171      0.0000 
     30 CG          4.1850   51.4520   47.6450 C.3       1 MTX171      0.0000 
     31 CD          3.5760   51.7000   46.1220 C.2       1 MTX171      0.0000 
     32 OE1         4.2410   51.4290   44.9550 O.co2     1 MTX171      0.0000 
     33 OE2         2.4850   52.1450   46.7270 O.co2     1 MTX171      0.0000 
     34 H           7.9266   40.6621   49.1364 H         1 MTX171      0.0000 
     35 H           7.3362   41.4172   47.6176 H         1 MTX171      0.0000 
     36 H          11.2248   46.5836   45.6735 H         1 MTX171      0.0000 
     37 H          14.1679   46.4325   47.0846 H         1 MTX171      0.0000 
     38 H          13.5163   47.0096   48.6281 H         1 MTX171      0.0000 
     39 H          10.3987   52.0130   46.1930 H         1 MTX171      0.0000 
     40 H          12.3062   50.5509   45.5895 H         1 MTX171      0.0000 
     41 H          11.1444   47.9540   48.8357 H         1 MTX171      0.0000 
     42 H           9.2697   49.4627   49.3662 H         1 MTX171      0.0000 
     43 H           8.2530   51.4998   49.9310 H         1 MTX171      0.0000 
     44 H           6.0404   52.8059   48.8510 H         1 MTX171      0.0000 
     45 H           5.1859   50.0062   48.8649 H         1 MTX171      0.0000 
     46 H           6.0101   50.3766   47.3406 H         1 MTX171      0.0000 
     47 H           4.0252   52.5289   48.1518 H         1 MTX171      0.0000 
     48 H           3.2548   50.9339   48.2001 H         1 MTX171      0.0000 
     49 H          14.8620   48.4680   46.1442 H         1 MTX171      0.0000 
     50 H          13.8942   47.6937   45.1195 H         1 MTX171      0.0000 
     51 H          13.7080   49.2722   45.3646 H         1 MTX171      0.0000 
     52 H          12.1244   42.0535   50.6128 H         1 MTX171      0.0000 
@<TRIPOS>BOND
     1    2    1 ar   
     2   12    1 ar   
     3    3    2 1    
     4    4    2 ar   
     5   34    3 1    
     6   35    3 1    
     7    5    4 ar   
     8    6    5 1    
     9    7    5 ar   
    10   52    6 1    
    11    8    7 ar   
    12   12    7 ar   
    13    9    8 ar   
    14   10    9 ar   
    15   13    9 1    
    16   11   10 ar   
    17   36   10 1    
    18   12   11 ar   
    19   14   13 1    
    20   37   13 1    
    21   38   13 1    
    22   15   14 1    
    23   19   14 1    
    24   49   15 1    
    25   50   15 1    
    26   51   15 1    
    27   17   16 ar   
    28   21   16 ar   
    29   22   16 1    
    30   18   17 ar   
    31   39   17 1    
    32   19   18 ar   
    33   40   18 1    
    34   20   19 ar   
    35   21   20 ar   
    36   41   20 1    
    37   42   21 1    
    38   23   22 2    
    39   24   22 am   
    40   25   24 1    
    41   43   24 1    
    42   26   25 1    
    43   29   25 1    
    44   44   25 1    
    45   27   26 ar   
    46   28   26 ar   
    47   30   29 1    
    48   45   29 1    
    49   46   29 1    
    50   31   30 1    
    51   47   30 1    
    52   48   30 1    
    53   32   31 ar   
    54   33   31 ar   
@<TRIPOS>SUBSTRUCTURE
     1 MTX171      1 GROUP   
@<TRIPOS>SET

