#    Name: 3il5_B82_4_INTS_M
#    Modification time : Tue Mar 25 16:44:14 2014

@<TRIPOS>MOLECULE
3il5_B82_4_INTS_M
   56     0     6     0     0
SMALL
NO_CHARGES


@<TRIPOS>ATOM
      1 CA       -208.0710  138.9960  -13.4315 C.3       2 GLC5        0.0000 
      2 CA       -206.4300  139.5580  -13.7220 C.3       6 GLL5        0.0000 
      3 CA       -209.7120  138.4340  -13.1410 C.3       4 GLP5        0.0000 
      4 CA       -208.4825  139.1100  -14.6730 C.3       2 GLC5        0.0000 
      5 CA       -206.7300  139.0810  -15.1410 C.3       6 GLL5        0.0000 
      6 CA       -210.2350  139.1390  -14.2050 C.3       4 GLP5        0.0000 
      7 CA       -203.3175  143.1605  -13.6900 C.3       2 GLC5        0.0000 
      8 CA       -204.6160  141.4080  -13.8090 C.3       6 GLL5        0.0000 
      9 CA       -202.0190  144.9130  -13.5710 C.3       4 GLP5        0.0000 
     10 CA       -207.2880  142.4205  -15.8815 C.3       2 GLC5        0.0000 
     11 CA       -205.6990  142.3520  -14.3600 C.3       6 GLL5        0.0000 
     12 CA       -208.8770  142.4890  -17.4030 C.3       4 GLP5        0.0000 
     13 CA       -202.9320  144.0195  -12.1785 C.3       2 GLC5        0.0000 
     14 CA       -203.8450  143.1260  -10.7860 C.3       6 GLL5        0.0000 
     15 CA       -203.7680  144.3855   -9.5200 C.3       2 GLC5        0.0000 
     16 CA       -203.6910  145.6450   -8.2540 C.3       4 GLP5        0.0000 
     17 CA       -209.6390  140.5470   -9.9445 C.3       2 GLC5        0.0000 
     18 CA       -207.5780  140.4530   -9.2420 C.3       6 GLL5        0.0000 
     19 CA       -211.7000  140.6410  -10.6470 C.3       4 GLP5        0.0000 
     20 CA       -214.3855  138.3125   -4.6945 C.3       2 GLC5        0.0000 
     21 CA       -212.2550  138.4970   -4.8330 C.3       6 GLL5        0.0000 
     22 CA       -216.5160  138.1280   -4.5560 C.3       4 GLP5        0.0000 
     23 CA       -211.6635  140.8865   -2.6545 C.3       2 GLC5        0.0000 
     24 CA       -211.5160  139.6740   -4.4710 C.3       6 GLL5        0.0000 
     25 CA       -211.8110  142.0990   -0.8380 C.3       4 GLP5        0.0000 
     26 CA       -212.7325  141.2800   -4.3775 C.3       2 GLC5        0.0000 
     27 CA       -213.9490  142.8860   -4.2840 C.3       4 GLP5        0.0000 
     28 N        -211.4475  142.7225   -3.7795 N.am      1 SEC2        0.0000 
     29 N        -210.1120  142.0400   -3.7820 N.am      5 SEL2        0.0000 
     30 N        -212.7830  143.4050   -3.7770 N.am      3 SEP2        0.0000 
     31 N        -209.8680  143.3925   -4.0125 N.am      1 SEC2        0.0000 
     32 N        -209.6240  144.7450   -4.2430 N.am      3 SEP2        0.0000 
     33 CA       -205.6240  138.0615   -9.6090 C.3       2 GLC5        0.0000 
     34 CA       -206.6470  139.8310  -10.1480 C.3       6 GLL5        0.0000 
     35 CA       -204.6010  136.2920   -9.0700 C.3       4 GLP5        0.0000 
     36 CA       -208.4030  143.0588  -10.1297 C.3       2 GLC5        0.0000 
     37 CA       -206.2470  142.5670   -9.3420 C.3       6 GLL5        0.0000 
     38 CA       -209.9950  143.9190  -11.1680 C.3       4 GLP5        0.0000 
     39 CA       -205.2289  142.8411   -8.0544 C.3       2 GLC5        0.0000 
     40 CA       -207.3750  141.8300   -8.8410 C.3       6 GLL5        0.0000 
     41 CA       -203.8870  143.6370   -6.7880 C.3       4 GLP5        0.0000 
     42 CA       -208.8230  138.5840   -5.9475 C.3       2 GLC5        0.0000 
     43 CA       -210.1980  139.5190   -6.6230 C.3       6 GLL5        0.0000 
     44 CA       -207.3110  137.2980   -5.9120 C.3       4 GLP5        0.0000 
     45 CA       -211.1440  139.7820   -8.7162 C.3       2 GLC5        0.0000 
     46 CA       -210.1683  136.7180   -6.4885 C.3       2 GLC5        0.0000 
     47 CA       -210.9780  138.3270   -6.9480 C.3       6 GLL5        0.0000 
     48 CA       -208.8540  135.3600   -6.4690 C.3       4 GLP5        0.0000 
     49 CA       -212.8562  137.5980   -7.9380 C.3       2 GLC5        0.0000 
     50 CA       -214.2300  137.1200   -9.3680 C.3       4 GLP5        0.0000 
     51 CA       -210.3857  138.2448   -3.3845 C.3       2 GLC5        0.0000 
     52 CA       -208.8860  137.4040   -2.1170 C.3       4 GLP5        0.0000 
     53 CA       -212.5222  138.6558   -3.0635 C.3       2 GLC5        0.0000 
     54 CA       -213.1590  138.2260   -1.4750 C.3       4 GLP5        0.0000 
     55 CA       -211.5437  141.2285   -6.3205 C.3       2 GLC5        0.0000 
     56 CA       -212.1620  142.6850   -7.4140 C.3       4 GLP5        0.0000 
@<TRIPOS>BOND
@<TRIPOS>SUBSTRUCTURE
     1 SEC2       28 GROUP        1 X    SEC  0     ROOT SEC X 2
     2 GLC5        1 GROUP        1 X    GLC  0     **** GLC X 6
     3 SEP2       30 GROUP        1 Y    SEP  0     ROOT SEP Y 9
     4 GLP5        3 GROUP        1 Y    GLP  0     **** GLP Y 13
     5 SEL2       29 GROUP        1 Z    SEL  0     ROOT SEL Z 16
     6 GLL5        2 GROUP        1 Z    GLL  0     **** GLL Z 20
@<TRIPOS>SET

