#    Name: 3il5_B82_4_ligand
#    Modification time : Tue Mar 25 16:44:15 2014

@<TRIPOS>MOLECULE
3il5_B82_4_ligand
   45    46     1     0     0
SMALL
NO_CHARGES


@<TRIPOS>ATOM
      1 S1       -204.4450  139.5730  -11.8080 S.o2      1 B82401      0.0000 
      2 O26      -203.0630  139.9770  -11.6240 O.2       1 B82401      0.0000 
      3 O25      -204.7780  138.1980  -11.5070 O.2       1 B82401      0.0000 
      4 N20      -204.9740  139.9200  -13.4560 N.pl3     1 B82401      0.0000 
      5 C23      -206.4300  139.5580  -13.7220 C.3       1 B82401      0.0000 
      6 C24      -206.7300  139.0810  -15.1410 C.3       1 B82401      0.0000 
      7 C21      -204.6160  141.4080  -13.8090 C.3       1 B82401      0.0000 
      8 C22      -205.6990  142.3520  -14.3600 C.3       1 B82401      0.0000 
      9 C2       -205.4990  140.5400  -10.6780 C.ar      1 B82401      0.0000 
     10 C18      -205.2860  141.9540  -10.2590 C.ar      1 B82401      0.0000 
     11 BR       -203.8450  143.1260  -10.7860 Br        1 B82401      0.0000 
     12 C17      -206.2470  142.5670   -9.3420 C.ar      1 B82401      0.0000 
     13 C16      -207.3750  141.8300   -8.8410 C.ar      1 B82401      0.0000 
     14 C4       -207.5780  140.4530   -9.2420 C.ar      1 B82401      0.0000 
     15 C5       -208.7120  139.6180   -8.7400 C.2       1 B82401      0.0000 
     16 O15      -209.1120  138.6610   -9.4120 O.2       1 B82401      0.0000 
     17 N6       -209.1690  140.0510   -7.4830 N.am      1 B82401      0.0000 
     18 C7       -210.1980  139.5190   -6.6230 C.ar      1 B82401      0.0000 
     19 C14      -210.9780  138.3270   -6.9480 C.ar      1 B82401      0.0000 
     20 C13      -211.9870  137.8250   -6.0680 C.ar      1 B82401      0.0000 
     21 C12      -212.2550  138.4970   -4.8330 C.ar      1 B82401      0.0000 
     22 C11      -211.5160  139.6740   -4.4710 C.ar      1 B82401      0.0000 
     23 C8       -210.4720  140.2210   -5.3430 C.ar      1 B82401      0.0000 
     24 C9       -209.7310  141.4940   -4.8750 C.2       1 B82401      0.0000 
     25 O45      -208.7890  141.9420   -5.6120 O.co2     1 B82401      0.0000 
     26 O10      -210.1120  142.0400   -3.7820 O.co2     1 B82401      0.0000 
     27 C3       -206.6470  139.8310  -10.1480 C.ar      1 B82401      0.0000 
     28 H        -207.0642  140.4393  -13.5013 H         1 B82401      0.0000 
     29 H        -206.7389  138.7686  -13.0085 H         1 B82401      0.0000 
     30 H        -203.7593  141.3824  -14.5380 H         1 B82401      0.0000 
     31 H        -204.1717  141.8735  -12.8861 H         1 B82401      0.0000 
     32 H        -206.1047  143.5344   -9.0598 H         1 B82401      0.0000 
     33 H        -208.0300  142.2689   -8.2079 H         1 B82401      0.0000 
     34 H        -208.6690  140.9380   -7.0791 H         1 B82401      0.0000 
     35 H        -210.7872  137.8483   -7.8316 H         1 B82401      0.0000 
     36 H        -212.5122  136.9942   -6.3179 H         1 B82401      0.0000 
     37 H        -212.9724  138.1407   -4.2068 H         1 B82401      0.0000 
     38 H        -211.7121  140.1489   -3.5909 H         1 B82401      0.0000 
     39 H        -206.7975  138.8567  -10.4292 H         1 B82401      0.0000 
     40 H        -206.4994  139.7753  -15.8227 H         1 B82401      0.0000 
     41 H        -206.2115  138.2582  -15.3736 H         1 B82401      0.0000 
     42 H        -207.6981  138.8614  -15.2621 H         1 B82401      0.0000 
     43 H        -205.3366  143.2657  -14.5441 H         1 B82401      0.0000 
     44 H        -206.0868  142.0123  -15.2169 H         1 B82401      0.0000 
     45 H        -206.4578  142.4616  -13.7180 H         1 B82401      0.0000 
@<TRIPOS>BOND
     1    2    1 2    
     2    3    1 2    
     3    4    1 1    
     4    9    1 1    
     5    5    4 1    
     6    7    4 1    
     7    6    5 1    
     8   28    5 1    
     9   29    5 1    
    10   40    6 1    
    11   41    6 1    
    12   42    6 1    
    13    8    7 1    
    14   30    7 1    
    15   31    7 1    
    16   43    8 1    
    17   44    8 1    
    18   45    8 1    
    19   10    9 ar   
    20   27    9 ar   
    21   11   10 1    
    22   12   10 ar   
    23   13   12 ar   
    24   32   12 1    
    25   14   13 ar   
    26   33   13 1    
    27   15   14 1    
    28   27   14 ar   
    29   16   15 2    
    30   17   15 am   
    31   18   17 1    
    32   34   17 1    
    33   19   18 ar   
    34   23   18 ar   
    35   20   19 ar   
    36   35   19 1    
    37   21   20 ar   
    38   36   20 1    
    39   22   21 ar   
    40   37   21 1    
    41   23   22 ar   
    42   38   22 1    
    43   24   23 1    
    44   25   24 ar   
    45   26   24 ar   
    46   39   27 1    
@<TRIPOS>SUBSTRUCTURE
     1 B82401      1 GROUP   
@<TRIPOS>SET

