#    Name: 1AD3_1_CAVITY_N1_ALL.mol2
#    Modification time : Mon Mar 10 13:01:39 2014

@<TRIPOS>MOLECULE
1AD3_1_CAVITY_N1_ALL.mol2
   95     0     7     0     0
SMALL
NO_CHARGES


@<TRIPOS>ATOM
      1 NZ         35.6908   31.8253   40.4305 N.2       4 LYS4        0.0000 
      2 N          34.8349   32.8221   39.7068 N.2       2 ALA2        0.0000 
      3 N          33.9789   33.8189   38.9831 N.2       2 ALA2        0.0000 
      4 CZ         34.7918   30.7173   39.9678 C.ar      5 PHE5        0.0000 
      5 CZ         33.9358   31.7141   39.2441 C.ar      5 PHE5        0.0000 
      6 O          33.0799   32.7109   38.5204 O.2       2 ALA2        0.0000 
      7 CA         33.9928   32.9918   40.9365 C.3       6 GLY6        0.0000 
      8 CA         33.1369   33.9886   40.2128 C.3       6 GLY6        0.0000 
      9 CA         33.0938   31.8839   40.4738 C.3       6 GLY6        0.0000 
     10 CA         32.2378   32.8806   39.7501 C.3       6 GLY6        0.0000 
     11 OG         39.0882   34.0783   33.2973 O.2       1 SER1        0.0000 
     12 CA         38.2322   35.0751   32.5736 C.3       6 GLY6        0.0000 
     13 NZ         42.4689   27.9864   36.4531 N.2       4 LYS4        0.0000 
     14 DU         41.6130   28.9832   35.7294 H         7 CUB7        0.0000 
     15 DU         39.9011   30.9767   34.2820 H         7 CUB7        0.0000 
     16 CA         39.0451   31.9735   33.5583 C.3       6 GLY6        0.0000 
     17 CA         38.1891   32.9703   32.8346 C.3       6 GLY6        0.0000 
     18 DU         37.3332   33.9671   32.1109 H         7 CUB7        0.0000 
     19 O          41.5699   26.8784   35.9904 O.2       2 ALA2        0.0000 
     20 O          40.7139   27.8752   35.2667 O.2       2 ALA2        0.0000 
     21 N          39.8580   28.8720   34.5430 N.2       2 ALA2        0.0000 
     22 N          39.0020   29.8688   33.8193 N.2       2 ALA2        0.0000 
     23 N          38.1461   30.8656   33.0956 N.2       2 ALA2        0.0000 
     24 O          37.2901   31.8623   32.3719 O.2       2 ALA2        0.0000 
     25 O          36.4341   32.8591   31.6482 O.2       2 ALA2        0.0000 
     26 CA         38.9589   27.7640   34.0803 C.3       6 GLY6        0.0000 
     27 O          36.3910   30.7544   31.9092 O.2       2 ALA2        0.0000 
     28 O          35.5351   31.7512   31.1855 O.2       2 ALA2        0.0000 
     29 OD1        42.6121   33.4736   37.6236 O.3       3 ASP3        0.0000 
     30 DU         42.5690   31.3688   37.8846 H         7 CUB7        0.0000 
     31 CA         41.7131   32.3656   37.1609 C.3       6 GLY6        0.0000 
     32 OD1        42.5259   29.2641   38.1455 O.3       3 ASP3        0.0000 
     33 CA         40.8140   31.2576   36.6981 C.3       6 GLY6        0.0000 
     34 CA         39.9581   32.2544   35.9744 C.3       6 GLY6        0.0000 
     35 OG         37.3902   35.2448   33.8033 O.2       1 SER1        0.0000 
     36 N          41.6269   28.1561   37.6828 N.2       2 ALA2        0.0000 
     37 NZ         40.7709   29.1529   36.9591 N.2       4 LYS4        0.0000 
     38 DU         39.9150   30.1497   36.2354 H         7 CUB7        0.0000 
     39 CA         39.0590   31.1465   35.5117 C.3       6 GLY6        0.0000 
     40 CA         38.2031   32.1432   34.7880 C.3       6 GLY6        0.0000 
     41 CA         37.3471   33.1400   34.0643 C.3       6 GLY6        0.0000 
     42 DU         36.4911   34.1368   33.3406 H         7 CUB7        0.0000 
     43 OD1        39.8719   28.0449   36.4964 O.3       3 ASP3        0.0000 
     44 DU         39.0159   29.0417   35.7727 H         7 CUB7        0.0000 
     45 N          38.1600   30.0385   35.0490 N.2       2 ALA2        0.0000 
     46 O          37.3040   31.0353   34.3253 O.2       2 ALA2        0.0000 
     47 O          36.4480   32.0321   33.6016 O.2       2 ALA2        0.0000 
     48 O          35.5921   33.0289   32.8779 O.2       2 ALA2        0.0000 
     49 O          38.9728   26.9369   36.0337 O.2       2 ALA2        0.0000 
     50 O          38.1169   27.9337   35.3100 O.2       2 ALA2        0.0000 
     51 N          37.2609   28.9305   34.5863 N.2       2 ALA2        0.0000 
     52 O          36.4050   29.9273   33.8626 O.2       2 ALA2        0.0000 
     53 CA         41.5560   27.7055   34.0370 C.3       6 GLY6        0.0000 
     54 O          40.7000   28.7023   33.3133 O.2       2 ALA2        0.0000 
     55 N          39.8441   29.6991   32.5896 N.2       2 ALA2        0.0000 
     56 N          38.9881   30.6958   31.8659 N.2       2 ALA2        0.0000 
     57 N          38.1321   31.6926   31.1422 N.2       2 ALA2        0.0000 
     58 N          37.2331   30.5847   30.6795 N.2       2 ALA2        0.0000 
     59 CA         36.3771   31.5815   29.9558 C.3       6 GLY6        0.0000 
     60 NZ         41.7270   31.5385   39.1143 N.2       4 LYS4        0.0000 
     61 CA         40.8710   32.5353   38.3906 C.3       6 GLY6        0.0000 
     62 NZ         39.9720   31.4274   37.9278 N.2       4 LYS4        0.0000 
     63 CA         39.1160   32.4241   37.2041 C.3       6 GLY6        0.0000 
     64 NZ         39.0729   30.3194   37.4651 N.2       4 LYS4        0.0000 
     65 CA         38.2170   31.3162   36.7414 C.3       6 GLY6        0.0000 
     66 CA         37.3610   32.3130   36.0177 C.3       6 GLY6        0.0000 
     67 OD1        36.5050   33.3098   35.2940 O.3       3 ASP3        0.0000 
     68 CA         35.6491   34.3065   34.5703 C.3       6 GLY6        0.0000 
     69 NZ         39.0298   28.2146   37.7261 N.2       4 LYS4        0.0000 
     70 NZ         38.1739   29.2114   37.0024 N.2       4 LYS4        0.0000 
     71 DU         37.3179   30.2082   36.2787 H         7 CUB7        0.0000 
     72 DU         36.4620   31.2050   35.5550 H         7 CUB7        0.0000 
     73 O          35.6060   32.2018   34.8313 O.2       2 ALA2        0.0000 
     74 O          34.7500   33.1986   34.1076 O.2       2 ALA2        0.0000 
     75 CZ         37.2748   28.1034   36.5397 C.ar      5 PHE5        0.0000 
     76 CZ         36.4189   29.1002   35.8160 C.ar      5 PHE5        0.0000 
     77 CZ         35.5629   30.0970   35.0923 C.ar      5 PHE5        0.0000 
     78 NZ         40.0290   32.7050   39.6203 N.2       4 LYS4        0.0000 
     79 CA         38.2740   32.5939   38.4338 C.3       6 GLY6        0.0000 
     80 NZ         37.3749   31.4859   37.9711 N.2       4 LYS4        0.0000 
     81 N          36.5190   32.4827   37.2474 N.2       2 ALA2        0.0000 
     82 CA         35.6630   33.4795   36.5237 C.3       6 GLY6        0.0000 
     83 NZ         37.3318   29.3811   38.2321 N.2       4 LYS4        0.0000 
     84 CZ         36.4759   30.3779   37.5084 C.ar      5 PHE5        0.0000 
     85 CZ         35.6199   31.3747   36.7847 C.ar      5 PHE5        0.0000 
     86 DU         34.7640   32.3715   36.0610 H         7 CUB7        0.0000 
     87 CA         33.9080   33.3683   35.3373 C.3       6 GLY6        0.0000 
     88 CZ         34.7209   30.2667   36.3220 C.ar      5 PHE5        0.0000 
     89 N          37.4319   32.7636   39.6635 N.2       2 ALA2        0.0000 
     90 NZ         36.5329   31.6556   39.2008 N.2       4 LYS4        0.0000 
     91 N          35.6769   32.6524   38.4771 N.2       2 ALA2        0.0000 
     92 CZ         35.6338   30.5476   38.7381 C.ar      5 PHE5        0.0000 
     93 CZ         34.7779   31.5444   38.0144 C.ar      5 PHE5        0.0000 
     94 CA         33.9219   32.5412   37.2907 C.3       6 GLY6        0.0000 
     95 N          33.0229   31.4332   36.8280 N.2       2 ALA2        0.0000 
@<TRIPOS>BOND
@<TRIPOS>SUBSTRUCTURE
     1 SER1       11 GROUP   
     2 ALA2        2 GROUP   
     3 ASP3       29 GROUP   
     4 LYS4        1 GROUP   
     5 PHE5        4 GROUP   
     6 GLY6        7 GROUP   
     7 CUB7       14 GROUP   
@<TRIPOS>SET

