#    Name: 1ad3_NAD_1_INTS_M
#    Modification time : Mon Mar 24 18:13:19 2014

@<TRIPOS>MOLECULE
1ad3_NAD_1_INTS_M
   52     0     9     0     0
SMALL
NO_CHARGES


@<TRIPOS>ATOM
      1 CA         34.0910   33.8885   28.4225 C.3       3 GLC5        0.0000 
      2 CA         35.1440   35.6680   28.7650 C.3       9 GLL5        0.0000 
      3 CA         33.0380   32.1090   28.0800 C.3       6 GLP5        0.0000 
      4 O          32.9630   36.1390   28.0745 O.2       1 ALC1        0.0000 
      5 O          33.7710   36.0530   28.9780 O.2       7 ALL1        0.0000 
      6 O          32.1550   36.2250   27.1710 O.2       4 ALP1        0.0000 
      7 O          33.8465   35.8865   27.4705 O.2       1 ALC1        0.0000 
      8 O          33.9220   35.7200   25.9630 O.2       4 ALP1        0.0000 
      9 O          33.6875   37.0355   27.2475 O.2       1 ALC1        0.0000 
     10 O          35.2200   37.8460   27.3240 O.2       7 ALL1        0.0000 
     11 O          34.5710   36.7830   26.6435 O.2       1 ALC1        0.0000 
     12 CA         41.1990   41.2885   29.9180 C.3       3 GLC5        0.0000 
     13 CA         39.7270   41.1340   28.5170 C.3       9 GLL5        0.0000 
     14 CA         42.6710   41.4430   31.3190 C.3       6 GLP5        0.0000 
     15 CA         36.1165   42.6500   29.2220 C.3       3 GLC5        0.0000 
     16 CA         37.8100   41.9310   29.5820 C.3       9 GLL5        0.0000 
     17 CA         34.4230   43.3690   28.8620 C.3       6 GLP5        0.0000 
     18 CA         38.1625   40.9030   31.2430 C.3       3 GLC5        0.0000 
     19 CA         38.5150   39.8750   32.9040 C.3       6 GLP5        0.0000 
     20 CA         39.4305   42.9635   30.5165 C.3       3 GLC5        0.0000 
     21 CA         41.0510   43.9960   31.4510 C.3       6 GLP5        0.0000 
     22 CA         37.7965   38.8880   27.3050 C.3       3 GLC5        0.0000 
     23 CA         37.9030   39.6610   29.1720 C.3       9 GLL5        0.0000 
     24 CA         37.6900   38.1150   25.4380 C.3       6 GLP5        0.0000 
     25 N          35.0855   31.0450   32.6845 N.am      2 SEC2        0.0000 
     26 N          36.3040   31.9390   32.7770 N.am      8 SEL2        0.0000 
     27 N          33.8670   30.1510   32.5920 N.am      5 SEP2        0.0000 
     28 CA         40.1310   26.6815   33.8585 C.3       3 GLC5        0.0000 
     29 CA         39.4280   28.3830   34.7580 C.3       9 GLL5        0.0000 
     30 CA         40.8340   24.9800   32.9590 C.3       6 GLP5        0.0000 
     31 CA         35.9660   28.3420   34.5515 C.3       3 GLC5        0.0000 
     32 CA         38.0330   28.7370   35.3110 C.3       9 GLL5        0.0000 
     33 CA         33.8990   27.9470   33.7920 C.3       6 GLP5        0.0000 
     34 CA         36.3560   27.9825   36.2895 C.3       3 GLC5        0.0000 
     35 CA         34.6790   27.2280   37.2680 C.3       6 GLP5        0.0000 
     36 CA         35.2070   34.2020   37.5320 C.3       3 GLC5        0.0000 
     37 CA         35.3940   32.1690   37.9700 C.3       9 GLL5        0.0000 
     38 CA         35.0200   36.2350   37.0940 C.3       6 GLP5        0.0000 
     39 CA         37.6640   33.6610   37.9610 C.3       3 GLC5        0.0000 
     40 CA         36.6170   31.9270   38.5860 C.3       9 GLL5        0.0000 
     41 CA         38.7110   35.3950   37.3360 C.3       6 GLP5        0.0000 
     42 CA         38.5820   32.9640   37.1255 C.3       3 GLC5        0.0000 
     43 CA         37.6920   31.2050   38.0580 C.3       9 GLL5        0.0000 
     44 CA         39.4720   34.7230   36.1930 C.3       6 GLP5        0.0000 
     45 CA         36.9552   37.6573   27.1092 C.3       3 GLC5        0.0000 
     46 CA         36.5310   37.5310   29.3960 C.3       9 GLL5        0.0000 
     47 CA         39.0892   40.4160   26.8987 C.3       3 GLC5        0.0000 
     48 CA         39.1400   39.8780   28.6120 C.3       9 GLL5        0.0000 
     49 CA         38.7450   40.3260   25.2330 C.3       6 GLP5        0.0000 
     50 CA         38.5183   39.8222   30.8980 C.3       3 GLC5        0.0000 
     51 CA         38.2793   27.5695   33.5173 C.3       3 GLC5        0.0000 
     52 CA         37.8280   26.5790   32.0000 C.3       6 GLP5        0.0000 
@<TRIPOS>BOND
@<TRIPOS>SUBSTRUCTURE
     1 ALC1        4 GROUP        1 X    ALC  0     ROOT ALC X 1
     2 SEC2       25 GROUP        1 X    SEC  0     **** SEC X 2
     3 GLC5        1 GROUP        1 X    GLC  0     **** GLC X 6
     4 ALP1        6 GROUP        1 Y    ALP  0     ROOT ALP Y 8
     5 SEP2       27 GROUP        1 Y    SEP  0     **** SEP Y 9
     6 GLP5        3 GROUP        1 Y    GLP  0     **** GLP Y 13
     7 ALL1        5 GROUP        1 Z    ALL  0     ROOT ALL Z 15
     8 SEL2       26 GROUP        1 Z    SEL  0     **** SEL Z 16
     9 GLL5        2 GROUP        1 Z    GLL  0     **** GLL Z 20
@<TRIPOS>SET

