#    Name: 1ad3_NAD_1_ligand
#    Modification time : Mon Mar 24 18:13:19 2014

@<TRIPOS>MOLECULE
1ad3_NAD_1_ligand
   70    74     1     0     0
SMALL
NO_CHARGES


@<TRIPOS>ATOM
      1 PA         37.0900   31.5900   29.4510 P.3       1 NAD600      0.0000 
      2 O1A        38.1980   32.0030   28.4940 O.co2     1 NAD600      0.0000 
      3 O2A        36.1300   30.5320   28.8830 O.co2     1 NAD600      0.0000 
      4 O5B        36.1900   32.8650   29.8790 O.3       1 NAD600      0.0000 
      5 C5B        36.8330   34.1680   29.7600 C.3       1 NAD600      0.0000 
      6 C4B        35.8880   35.3150   30.0730 C.3       1 NAD600      0.0000 
      7 O4B        36.8620   36.4140   30.2930 O.3       1 NAD600      0.0000 
      8 C3B        35.1440   35.6680   28.7650 C.3       1 NAD600      0.0000 
      9 O3B        33.7710   36.0530   28.9780 O.3       1 NAD600      0.0000 
     10 C2B        35.9100   36.8680   28.1650 C.3       1 NAD600      0.0000 
     11 O2B        35.2200   37.8460   27.3240 O.3       1 NAD600      0.0000 
     12 C1B        36.5310   37.5310   29.3960 C.3       1 NAD600      0.0000 
     13 N9A        37.7270   38.3360   29.0440 N.pl3     1 NAD600      0.0000 
     14 C8A        38.7800   37.7580   28.4460 C.2       1 NAD600      0.0000 
     15 N7A        39.6710   38.7290   28.1730 N.2       1 NAD600      0.0000 
     16 C5A        39.1400   39.8780   28.6120 C.ar      1 NAD600      0.0000 
     17 C6A        39.7270   41.1340   28.5170 C.ar      1 NAD600      0.0000 
     18 N6A        40.9420   41.2620   27.9770 N.pl3     1 NAD600      0.0000 
     19 N1A        39.0000   42.1680   29.0040 N.ar      1 NAD600      0.0000 
     20 C2A        37.8100   41.9310   29.5820 C.ar      1 NAD600      0.0000 
     21 N3A        37.2430   40.7130   29.6870 N.ar      1 NAD600      0.0000 
     22 C4A        37.9030   39.6610   29.1720 C.ar      1 NAD600      0.0000 
     23 O3         37.7050   31.0450   30.8260 O.3       1 NAD600      0.0000 
     24 PN         37.6970   31.8340   32.2690 P.3       1 NAD600      0.0000 
     25 O1N        36.3040   31.9390   32.7770 O.co2     1 NAD600      0.0000 
     26 O2N        38.6890   32.9570   32.1920 O.co2     1 NAD600      0.0000 
     27 O5D        38.4260   30.8000   33.2970 O.3       1 NAD600      0.0000 
     28 C5D        39.8410   30.5320   33.3100 C.3       1 NAD600      0.0000 
     29 C4D        40.1150   29.7760   34.6420 C.3       1 NAD600      0.0000 
     30 O4D        39.6020   30.5070   35.8350 O.3       1 NAD600      0.0000 
     31 C3D        39.4280   28.3830   34.7580 C.3       1 NAD600      0.0000 
     32 O3D        40.1920   27.5740   35.6970 O.3       1 NAD600      0.0000 
     33 C2D        38.0330   28.7370   35.3110 C.3       1 NAD600      0.0000 
     34 O2D        37.4490   27.6270   35.9870 O.3       1 NAD600      0.0000 
     35 C1D        38.4770   29.7520   36.3470 C.3       1 NAD600      0.0000 
     36 N1N        37.3910   30.6680   36.7800 N.pl3     1 NAD600      0.0000 
     37 C2N        36.2230   30.8910   36.0750 C.ar      1 NAD600      0.0000 
     38 C3N        35.2230   31.6510   36.6840 C.ar      1 NAD600      0.0000 
     39 C7N        33.8170   31.9840   36.1160 C.2       1 NAD600      0.0000 
     40 O7N        32.8520   32.1490   36.9130 O.2       1 NAD600      0.0000 
     41 N7N        33.7830   32.0230   34.7760 N.am      1 NAD600      0.0000 
     42 C4N        35.3940   32.1690   37.9700 C.ar      1 NAD600      0.0000 
     43 C5N        36.6170   31.9270   38.5860 C.ar      1 NAD600      0.0000 
     44 C6N        37.6920   31.2050   38.0580 C.ar      1 NAD600      0.0000 
     45 H          37.2264   34.3151   28.7378 H         1 NAD600      0.0000 
     46 H          37.6982   34.2382   30.4441 H         1 NAD600      0.0000 
     47 H          35.2963   35.1386   30.8382 H         1 NAD600      0.0000 
     48 H          35.2476   34.8529   28.0864 H         1 NAD600      0.0000 
     49 H          36.7835   36.4306   27.6245 H         1 NAD600      0.0000 
     50 H          35.7739   38.1429   29.8509 H         1 NAD600      0.0000 
     51 H          38.8816   36.8226   28.2479 H         1 NAD600      0.0000 
     52 H          41.3299   42.1837   27.9797 H         1 NAD600      0.0000 
     53 H          41.3546   40.4246   27.6185 H         1 NAD600      0.0000 
     54 H          37.2737   42.7677   29.9880 H         1 NAD600      0.0000 
     55 H          40.4275   31.4337   33.3211 H         1 NAD600      0.0000 
     56 H          40.1423   29.8882   32.5026 H         1 NAD600      0.0000 
     57 H          41.1759   29.6193   34.7643 H         1 NAD600      0.0000 
     58 H          39.3400   27.9798   33.8078 H         1 NAD600      0.0000 
     59 H          37.4832   29.1956   34.5906 H         1 NAD600      0.0000 
     60 H          38.8186   29.1805   37.2323 H         1 NAD600      0.0000 
     61 H          36.0902   30.5156   35.1410 H         1 NAD600      0.0000 
     62 H          34.6552   31.8765   34.3093 H         1 NAD600      0.0000 
     63 H          32.8885   32.1951   34.3634 H         1 NAD600      0.0000 
     64 H          34.6662   32.6912   38.4256 H         1 NAD600      0.0000 
     65 H          36.7532   32.3364   39.5710 H         1 NAD600      0.0000 
     66 H          38.5410   31.0808   38.5014 H         1 NAD600      0.0000 
     67 H          33.4850   36.4773   28.1188 H         1 NAD600      0.0000 
     68 H          34.6467   37.3018   26.7115 H         1 NAD600      0.0000 
     69 H          40.9144   28.1791   36.0317 H         1 NAD600      0.0000 
     70 H          38.2093   27.0015   36.1620 H         1 NAD600      0.0000 
@<TRIPOS>BOND
     1    2    1 ar   
     2    3    1 ar   
     3    4    1 1    
     4   23    1 1    
     5    5    4 1    
     6    6    5 1    
     7   45    5 1    
     8   46    5 1    
     9    7    6 1    
    10    8    6 1    
    11   47    6 1    
    12   12    7 1    
    13    9    8 1    
    14   10    8 1    
    15   48    8 1    
    16   67    9 1    
    17   11   10 1    
    18   12   10 1    
    19   49   10 1    
    20   68   11 1    
    21   13   12 1    
    22   50   12 1    
    23   14   13 1    
    24   22   13 1    
    25   15   14 2    
    26   51   14 1    
    27   16   15 1    
    28   17   16 ar   
    29   22   16 ar   
    30   18   17 1    
    31   19   17 ar   
    32   52   18 1    
    33   53   18 1    
    34   20   19 ar   
    35   21   20 ar   
    36   54   20 1    
    37   22   21 ar   
    38   24   23 1    
    39   25   24 ar   
    40   26   24 ar   
    41   27   24 1    
    42   28   27 1    
    43   29   28 1    
    44   55   28 1    
    45   56   28 1    
    46   30   29 1    
    47   31   29 1    
    48   57   29 1    
    49   35   30 1    
    50   32   31 1    
    51   33   31 1    
    52   58   31 1    
    53   69   32 1    
    54   34   33 1    
    55   35   33 1    
    56   59   33 1    
    57   70   34 1    
    58   36   35 1    
    59   60   35 1    
    60   37   36 ar   
    61   44   36 ar   
    62   38   37 ar   
    63   61   37 1    
    64   39   38 1    
    65   42   38 ar   
    66   40   39 2    
    67   41   39 am   
    68   62   41 1    
    69   63   41 1    
    70   43   42 ar   
    71   64   42 1    
    72   44   43 ar   
    73   65   43 1    
    74   66   44 1    
@<TRIPOS>SUBSTRUCTURE
     1 NAD600      1 GROUP   
@<TRIPOS>SET

