#    Name: 2RJH_3_CAVITY_N1_6.mol2
#    Modification time : Mon Mar 10 13:22:24 2014

@<TRIPOS>MOLECULE
2RJH_3_CAVITY_N1_6.mol2
   97     0     7     0     0
SMALL
NO_CHARGES


@<TRIPOS>ATOM
      1 OD1        46.0389   15.1544   48.6943 O.3       3 ASP3        0.0000 
      2 CZ         45.3405   13.8516   48.9490 C.ar      5 PHE5        0.0000 
      3 CZ         44.0186   14.5604   48.9497 C.ar      5 PHE5        0.0000 
      4 CZ         44.6421   12.5488   49.2037 C.ar      5 PHE5        0.0000 
      5 CZ         43.3201   13.2576   49.2044 C.ar      5 PHE5        0.0000 
      6 CZ         42.6217   11.9547   49.4591 C.ar      5 PHE5        0.0000 
      7 CZ         41.2998   12.6635   49.4598 C.ar      5 PHE5        0.0000 
      8 CZ         41.9233   10.6519   49.7137 C.ar      5 PHE5        0.0000 
      9 DU         40.6014   11.3607   49.7145 H         7 CUB7        0.0000 
     10 OG         42.7427   12.1788   50.9373 O.2       1 SER1        0.0000 
     11 OG         41.4208   12.8876   50.9380 O.2       1 SER1        0.0000 
     12 CZ         42.0443   10.8760   51.1920 C.ar      5 PHE5        0.0000 
     13 O          40.7224   11.5848   51.1927 O.2       2 ALA2        0.0000 
     14 OG         43.7017   10.7978   46.5019 O.2       1 SER1        0.0000 
     15 CZ         42.3798   11.5066   46.5026 C.ar      5 PHE5        0.0000 
     16 OG         41.6814   10.2037   46.7573 O.2       1 SER1        0.0000 
     17 CZ         40.3594   10.9125   46.7580 C.ar      5 PHE5        0.0000 
     18 CA         47.3147   17.5360   46.7068 C.3       6 GLY6        0.0000 
     19 O          45.9928   18.2448   46.7075 O.2       2 ALA2        0.0000 
     20 OD1        46.6163   16.2332   46.9615 O.3       3 ASP3        0.0000 
     21 OG         45.2944   16.9420   46.9622 O.2       1 SER1        0.0000 
     22 OD1        47.2399   14.2215   47.2154 O.3       3 ASP3        0.0000 
     23 OG         45.9179   14.9303   47.2161 O.2       1 SER1        0.0000 
     24 OG         46.5415   12.9187   47.4700 O.2       1 SER1        0.0000 
     25 OG         45.2195   13.6275   47.4708 O.2       1 SER1        0.0000 
     26 CZ         44.5211   12.3247   47.7254 C.ar      5 PHE5        0.0000 
     27 CZ         43.1992   13.0335   47.7262 C.ar      5 PHE5        0.0000 
     28 CZ         42.5008   11.7306   47.9808 C.ar      5 PHE5        0.0000 
     29 CZ         41.1788   12.4394   47.9816 C.ar      5 PHE5        0.0000 
     30 OG         41.8024   10.4278   48.2355 O.2       1 SER1        0.0000 
     31 CZ         40.4804   11.1366   48.2363 C.ar      5 PHE5        0.0000 
     32 CZ         41.1040    9.1250   48.4902 C.ar      5 PHE5        0.0000 
     33 CA         49.7167   15.6702   43.7488 C.3       6 GLY6        0.0000 
     34 CA         48.3947   16.3790   43.7496 C.3       6 GLY6        0.0000 
     35 O          47.0728   17.0878   43.7503 O.2       2 ALA2        0.0000 
     36 CA         49.0183   14.3674   44.0035 C.3       6 GLY6        0.0000 
     37 N          47.6963   15.0762   44.0043 N.2       2 ALA2        0.0000 
     38 N          46.3744   15.7850   44.0050 N.2       2 ALA2        0.0000 
     39 N          49.6419   12.3558   44.2574 N.2       2 ALA2        0.0000 
     40 CA         48.3199   13.0646   44.2582 C.3       6 GLY6        0.0000 
     41 N          46.9979   13.7734   44.2589 N.2       2 ALA2        0.0000 
     42 N          48.9434   11.0529   44.5121 N.2       2 ALA2        0.0000 
     43 CA         47.6215   11.7617   44.5128 C.3       6 GLY6        0.0000 
     44 N          46.2995   12.4705   44.5136 N.2       2 ALA2        0.0000 
     45 O          48.2450    9.7501   44.7667 O.2       2 ALA2        0.0000 
     46 CA         46.9231   10.4589   44.7675 C.3       6 GLY6        0.0000 
     47 CA         45.6011   11.1677   44.7682 C.3       6 GLY6        0.0000 
     48 N          44.2791   11.8765   44.7690 N.2       2 ALA2        0.0000 
     49 CA         46.2247    9.1561   45.0221 C.3       6 GLY6        0.0000 
     50 OG         44.9027    9.8649   45.0229 O.2       1 SER1        0.0000 
     51 OG         43.5807   10.5737   45.0236 O.2       1 SER1        0.0000 
     52 CZ         42.2588   11.2825   45.0244 C.ar      5 PHE5        0.0000 
     53 OG         44.2043    8.5620   45.2776 O.2       1 SER1        0.0000 
     54 OG         42.8823    9.2708   45.2783 O.2       1 SER1        0.0000 
     55 DU         41.5604    9.9796   45.2791 H         7 CUB7        0.0000 
     56 CZ         40.2384   10.6884   45.2798 C.ar      5 PHE5        0.0000 
     57 OG         42.1839    7.9680   45.5330 O.2       1 SER1        0.0000 
     58 NZ         40.8620    8.6768   45.5337 N.2       4 LYS4        0.0000 
     59 CA         49.2141   17.9060   44.9732 C.3       6 GLY6        0.0000 
     60 CA         47.8922   18.6148   44.9739 C.3       6 GLY6        0.0000 
     61 CA         48.5157   16.6031   45.2278 C.3       6 GLY6        0.0000 
     62 O          47.1937   17.3119   45.2286 O.2       2 ALA2        0.0000 
     63 CA         49.1393   14.5915   45.4817 C.3       6 GLY6        0.0000 
     64 CA         47.8173   15.3003   45.4825 C.3       6 GLY6        0.0000 
     65 OG         46.4953   16.0091   45.4832 O.2       1 SER1        0.0000 
     66 OG         49.7628   12.5798   45.7356 O.2       1 SER1        0.0000 
     67 OG         48.4409   13.2886   45.7364 O.2       1 SER1        0.0000 
     68 N          47.1189   13.9975   45.7371 N.2       2 ALA2        0.0000 
     69 OG         45.7969   14.7063   45.7379 O.2       1 SER1        0.0000 
     70 OG         49.0644   11.2770   45.9903 O.2       1 SER1        0.0000 
     71 OG         47.7425   11.9858   45.9910 O.2       1 SER1        0.0000 
     72 N          46.4205   12.6946   45.9918 N.2       2 ALA2        0.0000 
     73 OG         45.0985   13.4034   45.9925 O.2       1 SER1        0.0000 
     74 O          48.3660    9.9742   46.2450 O.2       2 ALA2        0.0000 
     75 OG         47.0441   10.6830   46.2457 O.2       1 SER1        0.0000 
     76 OG         45.7221   11.3918   46.2465 O.2       1 SER1        0.0000 
     77 OG         44.4001   12.1006   46.2472 O.2       1 SER1        0.0000 
     78 CA         43.3388   10.1255   42.0672 C.3       6 GLY6        0.0000 
     79 CA         42.6404    8.8227   42.3219 C.3       6 GLY6        0.0000 
     80 CA         48.9721   17.4578   42.0167 C.3       6 GLY6        0.0000 
     81 NZ         47.6502   18.1666   42.0175 N.2       4 LYS4        0.0000 
     82 O          49.5957   15.4462   42.2706 O.2       2 ALA2        0.0000 
     83 O          48.2737   16.1550   42.2714 O.2       2 ALA2        0.0000 
     84 CA         46.9518   16.8638   42.2721 C.3       6 GLY6        0.0000 
     85 O          48.8973   14.1433   42.5253 O.2       2 ALA2        0.0000 
     86 O          47.5753   14.8521   42.5260 O.2       2 ALA2        0.0000 
     87 CA         48.1989   12.8405   42.7799 C.3       6 GLY6        0.0000 
     88 CA         44.7817    9.6408   43.5447 C.3       6 GLY6        0.0000 
     89 N          43.4598   10.3496   43.5454 N.2       2 ALA2        0.0000 
     90 N          42.1378   11.0584   43.5462 N.2       2 ALA2        0.0000 
     91 O          44.0833    8.3379   43.7993 O.2       2 ALA2        0.0000 
     92 O          42.7614    9.0467   43.8001 O.2       2 ALA2        0.0000 
     93 CA         41.4394    9.7556   43.8008 C.3       6 GLY6        0.0000 
     94 CA         42.0629    7.7439   44.0547 C.3       6 GLY6        0.0000 
     95 O          40.7410    8.4527   44.0555 O.2       2 ALA2        0.0000 
     96 CA         49.0931   17.6819   43.4949 C.3       6 GLY6        0.0000 
     97 CA         47.7712   18.3907   43.4957 C.3       6 GLY6        0.0000 
@<TRIPOS>BOND
@<TRIPOS>SUBSTRUCTURE
     1 SER1       10 GROUP   
     2 ALA2       13 GROUP   
     3 ASP3        1 GROUP   
     4 LYS4       58 GROUP   
     5 PHE5        2 GROUP   
     6 GLY6       18 GROUP   
     7 CUB7        9 GROUP   
@<TRIPOS>SET

