#    Name: 2rjh_DCS_3_INTS_M
#    Modification time : Tue Mar 25 00:00:42 2014

@<TRIPOS>MOLECULE
2rjh_DCS_3_INTS_M
   56     0     6     0     0
SMALL
NO_CHARGES


@<TRIPOS>ATOM
      1 N          49.3550   14.7835   40.8955 N.am      1 SEC2        0.0000 
      2 N          49.0500   15.0300   42.2720 N.am      5 SEL2        0.0000 
      3 N          49.6600   14.5370   39.5190 N.am      3 SEP2        0.0000 
      4 CA         49.9340   17.5370   41.7370 C.3       2 GLC5        0.0000 
      5 CA         48.0280   17.2940   42.1130 C.3       6 GLL5        0.0000 
      6 CA         51.8400   17.7800   41.3610 C.3       4 GLP5        0.0000 
      7 CA         45.7040   15.4570   43.2665 C.3       2 GLC5        0.0000 
      8 CA         47.6080   15.6940   44.0260 C.3       6 GLL5        0.0000 
      9 CA         43.8000   15.2200   42.5070 C.3       4 GLP5        0.0000 
     10 N          45.3595   17.5175   44.5595 N.am      1 SEC2        0.0000 
     11 N          46.8490   16.6600   44.6100 N.am      5 SEL2        0.0000 
     12 N          43.8700   18.3750   44.5090 N.am      3 SEP2        0.0000 
     13 CA         50.4370   15.6720   43.3425 C.3       2 GLC5        0.0000 
     14 CA         49.2220   13.8500   42.8410 C.3       6 GLL5        0.0000 
     15 CA         51.6520   17.4940   43.8440 C.3       4 GLP5        0.0000 
     16 CA         50.3180   13.0575   41.5730 C.3       2 GLC5        0.0000 
     17 CA         51.4140   12.2650   40.3050 C.3       4 GLP5        0.0000 
     18 CA         50.0865   10.8125   45.5050 C.3       2 GLC5        0.0000 
     19 CA         48.7820   12.1160   44.6020 C.3       6 GLL5        0.0000 
     20 CA         51.3910    9.5090   46.4080 C.3       4 GLP5        0.0000 
     21 N          47.9565    8.4875   43.8635 N.am      1 SEC2        0.0000 
     22 N          48.1780    9.1450   45.0340 N.am      5 SEL2        0.0000 
     23 N          47.7350    7.8300   42.6930 N.am      3 SEP2        0.0000 
     24 N          48.4250    7.9335   45.1600 N.am      1 SEC2        0.0000 
     25 N          48.6720    6.7220   45.2860 N.am      3 SEP2        0.0000 
     26 N          49.7235    9.0145   45.0705 N.am      1 SEC2        0.0000 
     27 N          51.2690    8.8840   45.1070 N.am      3 SEP2        0.0000 
     28 N          49.0445    8.7405   46.4855 N.am      1 SEC2        0.0000 
     29 N          49.9110    8.3360   47.9370 N.am      3 SEP2        0.0000 
     30 N          48.9085   11.4210   47.7565 N.am      1 SEC2        0.0000 
     31 N          48.3180   10.4550   47.2640 N.am      5 SEL2        0.0000 
     32 N          49.4990   12.3870   48.2490 N.am      3 SEP2        0.0000 
     33 N          49.1145    9.3955   47.6005 N.am      1 SEC2        0.0000 
     34 CA         47.7335   15.6155   47.5560 C.3       2 GLC5        0.0000 
     35 CA         45.6080   14.9720   47.6140 C.3       6 GLL5        0.0000 
     36 CA         49.8590   16.2590   47.4980 C.3       4 GLP5        0.0000 
     37 CA         43.7920   14.8955   46.8655 C.3       2 GLC5        0.0000 
     38 CA         41.9760   14.8190   46.1170 C.3       4 GLP5        0.0000 
     39 N          43.8075   17.8550   47.2110 N.am      1 SEC2        0.0000 
     40 N          44.8760   17.2920   47.9070 N.am      5 SEL2        0.0000 
     41 N          42.7390   18.4180   46.5150 N.am      3 SEP2        0.0000 
     42 CA         45.7875   12.0960   49.1350 C.3       2 GLC5        0.0000 
     43 CA         46.0090   14.0610   48.7720 C.3       6 GLL5        0.0000 
     44 CA         45.5660   10.1310   49.4980 C.3       4 GLP5        0.0000 
     45 CA         49.7925   16.6603   43.6350 C.3       2 GLC5        0.0000 
     46 CA         46.2170   15.8997   41.8573 C.3       2 GLC5        0.0000 
     47 CA         48.2580   15.9590   42.8260 C.3       6 GLL5        0.0000 
     48 CA         44.2910   15.1730   41.2450 C.3       4 GLP5        0.0000 
     49 CA         48.6069   15.4236   46.3179 C.3       2 GLC5        0.0000 
     50 CA         50.7600   12.9228   43.9522 C.3       2 GLC5        0.0000 
     51 CA         48.5860   13.5240   44.0330 C.3       6 GLL5        0.0000 
     52 CA         52.6770   12.9440   43.8850 C.3       4 GLP5        0.0000 
     53 CA         48.0680   11.7357   42.9962 C.3       2 GLC5        0.0000 
     54 CA         47.2930   10.5700   41.9730 C.3       4 GLP5        0.0000 
     55 CA         46.2567   15.5117   49.9355 C.3       2 GLC5        0.0000 
     56 CA         46.7050   16.5070   51.6780 C.3       4 GLP5        0.0000 
@<TRIPOS>BOND
@<TRIPOS>SUBSTRUCTURE
     1 SEC2        1 GROUP        1 X    SEC  0     ROOT SEC X 2
     2 GLC5        4 GROUP        1 X    GLC  0     **** GLC X 6
     3 SEP2        3 GROUP        1 Y    SEP  0     ROOT SEP Y 9
     4 GLP5        6 GROUP        1 Y    GLP  0     **** GLP Y 13
     5 SEL2        2 GROUP        1 Z    SEL  0     ROOT SEL Z 16
     6 GLL5        5 GROUP        1 Z    GLL  0     **** GLL Z 20
@<TRIPOS>SET

