#    Name: 2rjh_DCS_3_ligand
#    Modification time : Tue Mar 25 00:00:42 2014

@<TRIPOS>MOLECULE
2rjh_DCS_3_ligand
   35    36     1     0     0
SMALL
NO_CHARGES


@<TRIPOS>ATOM
      1 N1         49.0500   15.0300   42.2720 N.ar      1 DCS362      0.0000 
      2 C2         48.2580   15.9590   42.8260 C.ar      1 DCS362      0.0000 
      3 C2A        48.0280   17.2940   42.1130 C.3       1 DCS362      0.0000 
      4 C3         47.6080   15.6940   44.0260 C.ar      1 DCS362      0.0000 
      5 O3         46.8490   16.6600   44.6100 O.3       1 DCS362      0.0000 
      6 C4         47.7610   14.4590   44.6470 C.ar      1 DCS362      0.0000 
      7 C4A        47.0250   14.1000   45.9390 C.3       1 DCS362      0.0000 
      8 C5         48.5860   13.5240   44.0330 C.ar      1 DCS362      0.0000 
      9 C6         49.2220   13.8500   42.8410 C.ar      1 DCS362      0.0000 
     10 C5A        48.7820   12.1160   44.6020 C.3       1 DCS362      0.0000 
     11 O4P        47.5310   11.6220   45.0920 O.3       1 DCS362      0.0000 
     12 P          47.4330   10.2530   45.9330 P.3       1 DCS362      0.0000 
     13 O1P        46.0410    9.8640   46.2540 O.co2     1 DCS362      0.0000 
     14 O2P        48.1780    9.1450   45.0340 O.co2     1 DCS362      0.0000 
     15 O3P        48.3180   10.4550   47.2640 O.co2     1 DCS362      0.0000 
     16 N          46.7350   15.3030   46.7310 N.4       1 DCS362      0.0000 
     17 CA         45.6080   14.9720   47.6140 C.3       1 DCS362      0.0000 
     18 C          45.0740   16.1750   48.3840 C.2       1 DCS362      0.0000 
     19 O          44.8760   17.2920   47.9070 O.2       1 DCS362      0.0000 
     20 ND         44.5910   15.7220   49.5370 N.am      1 DCS362      0.0000 
     21 OG         45.0530   14.3940   49.7860 O.3       1 DCS362      0.0000 
     22 CB         46.0090   14.0610   48.7720 C.3       1 DCS362      0.0000 
     23 H          47.6508   13.4034   46.5084 H         1 DCS362      0.0000 
     24 H          46.0981   13.5792   45.6728 H         1 DCS362      0.0000 
     25 H          49.8445   13.1247   42.4084 H         1 DCS362      0.0000 
     26 H          49.5328   12.1782   45.3954 H         1 DCS362      0.0000 
     27 H          49.1823   11.4856   43.8024 H         1 DCS362      0.0000 
     28 H          44.7922   14.5170   47.1096 H         1 DCS362      0.0000 
     29 H          44.0066   16.1834   50.1573 H         1 DCS362      0.0000 
     30 H          47.0084   14.3037   49.0618 H         1 DCS362      0.0000 
     31 H          45.9206   13.0462   48.4492 H         1 DCS362      0.0000 
     32 H          48.8834   17.7927   41.9735 H         1 DCS362      0.0000 
     33 H          47.6124   17.1672   41.2123 H         1 DCS362      0.0000 
     34 H          47.4208   17.8937   42.6343 H         1 DCS362      0.0000 
     35 H          47.5059   17.3194   44.9757 H         1 DCS362      0.0000 
@<TRIPOS>BOND
     1    2    1 ar   
     2    9    1 ar   
     3    3    2 1    
     4    4    2 ar   
     5   32    3 1    
     6   33    3 1    
     7   34    3 1    
     8    5    4 1    
     9    6    4 ar   
    10   35    5 1    
    11    7    6 1    
    12    8    6 ar   
    13   16    7 1    
    14   23    7 1    
    15   24    7 1    
    16    9    8 ar   
    17   10    8 1    
    18   25    9 1    
    19   11   10 1    
    20   26   10 1    
    21   27   10 1    
    22   12   11 1    
    23   13   12 ar   
    24   14   12 ar   
    25   15   12 ar   
    26   17   16 1    
    27   18   17 1    
    28   22   17 1    
    29   28   17 1    
    30   19   18 2    
    31   20   18 am   
    32   21   20 1    
    33   29   20 1    
    34   22   21 1    
    35   30   22 1    
    36   31   22 1    
@<TRIPOS>SUBSTRUCTURE
     1 DCS362      1 GROUP   
@<TRIPOS>SET

