#    Name: 4jve_1MQ_1_INTS_M
#    Modification time : Tue Mar 25 06:34:20 2014

@<TRIPOS>MOLECULE
4jve_1MQ_1_INTS_M
   62     0     3     0     0
SMALL
NO_CHARGES


@<TRIPOS>ATOM
      1 CA          6.8040  -14.9300   58.5875 C.3       1 GLC5        0.0000 
      2 CA          6.5980  -13.2650   57.3210 C.3       3 GLL5        0.0000 
      3 CA          7.0100  -16.5950   59.8540 C.3       2 GLP5        0.0000 
      4 CA          9.7535  -12.2800   56.8020 C.3       1 GLC5        0.0000 
      5 CA          9.0850  -13.7550   56.5450 C.3       3 GLL5        0.0000 
      6 CA         10.4220  -10.8050   57.0590 C.3       2 GLP5        0.0000 
      7 CA          3.3170  -12.3720   51.2555 C.3       1 GLC5        0.0000 
      8 CA          2.4920  -13.0140   52.9690 C.3       3 GLL5        0.0000 
      9 CA          4.1420  -11.7300   49.5420 C.3       2 GLP5        0.0000 
     10 CA          3.7680  -14.5230   52.7525 C.3       1 GLC5        0.0000 
     11 CA          5.0440  -16.0320   52.5360 C.3       2 GLP5        0.0000 
     12 CA          1.0155  -12.4945   50.4255 C.3       1 GLC5        0.0000 
     13 CA          1.0710  -13.1040   52.3110 C.3       3 GLL5        0.0000 
     14 CA          0.9600  -11.8850   48.5400 C.3       2 GLP5        0.0000 
     15 CA          3.0190  -15.5675   51.6780 C.3       1 GLC5        0.0000 
     16 CA          0.9940  -15.1030   50.8200 C.3       3 GLL5        0.0000 
     17 CA          4.4930  -19.1880   57.3605 C.3       1 GLC5        0.0000 
     18 CA          2.9550  -18.5930   58.8080 C.3       3 GLL5        0.0000 
     19 CA          6.0310  -19.7830   55.9130 C.3       2 GLP5        0.0000 
     20 CA          1.6870  -18.8720   57.4665 C.3       1 GLC5        0.0000 
     21 CA          0.4190  -19.1510   56.1250 C.3       2 GLP5        0.0000 
     22 CA          3.8135  -20.3300   59.3490 C.3       1 GLC5        0.0000 
     23 CA          4.6720  -22.0670   59.8900 C.3       2 GLP5        0.0000 
     24 CA          1.5895  -19.5075   60.0705 C.3       1 GLC5        0.0000 
     25 CA          0.2240  -20.4220   61.3330 C.3       2 GLP5        0.0000 
     26 CA          3.6235  -17.3145   60.1115 C.3       1 GLC5        0.0000 
     27 CA          4.2920  -16.0360   61.4150 C.3       2 GLP5        0.0000 
     28 CA          4.6785  -18.4955   56.2495 C.3       1 GLC5        0.0000 
     29 CA          3.3260  -17.2080   56.5860 C.3       3 GLL5        0.0000 
     30 CA          6.9085   -8.8605   54.4995 C.3       1 GLC5        0.0000 
     31 CA          5.7390   -8.8670   55.9160 C.3       3 GLL5        0.0000 
     32 CA          8.0780   -8.8540   53.0830 C.3       2 GLP5        0.0000 
     33 CA          7.7995   -9.3095   55.4575 C.3       1 GLC5        0.0000 
     34 CA          6.8540   -8.6990   56.9800 C.3       3 GLL5        0.0000 
     35 CA          8.7450   -9.9200   53.9350 C.3       2 GLP5        0.0000 
     36 CA          7.1605   -7.9240   58.7935 C.3       1 GLC5        0.0000 
     37 CA          7.4670   -7.1490   60.6070 C.3       2 GLP5        0.0000 
     38 CA          7.5965   -9.9060   58.1705 C.3       1 GLC5        0.0000 
     39 CA          8.3390  -11.1130   59.3610 C.3       2 GLP5        0.0000 
     40 CA          7.9652  -11.6803   54.7430 C.3       1 GLC5        0.0000 
     41 CA          7.4190  -13.4690   56.2100 C.3       3 GLL5        0.0000 
     42 CA          7.5068  -12.2050   58.0392 C.3       1 GLC5        0.0000 
     43 CA          8.9980  -13.5570   54.5684 C.3       1 GLC5        0.0000 
     44 CA         10.3940  -13.6020   53.5020 C.3       2 GLP5        0.0000 
     45 CA          5.6610  -14.6508   53.6715 C.3       1 GLC5        0.0000 
     46 CA          6.9520  -13.4120   54.8920 C.3       3 GLL5        0.0000 
     47 CA          7.6225  -15.3495   55.3949 C.3       1 GLC5        0.0000 
     48 CA          7.6430  -17.1870   55.1550 C.3       2 GLP5        0.0000 
     49 CA          2.1887  -17.0250   50.2593 C.3       1 GLC5        0.0000 
     50 CA         -0.1900  -17.1180   51.4420 C.3       3 GLL5        0.0000 
     51 CA          3.7790  -18.1180   49.6160 C.3       2 GLP5        0.0000 
     52 CA          1.3853  -17.8525   57.0832 C.3       1 GLC5        0.0000 
     53 CA          2.7160  -17.1250   57.8350 C.3       3 GLL5        0.0000 
     54 CA          3.3217  -16.2950   59.7283 C.3       1 GLC5        0.0000 
     55 CA          1.8447  -17.9087   56.1372 C.3       1 GLC5        0.0000 
     56 CA          3.9441  -15.6399   54.1049 C.3       1 GLC5        0.0000 
     57 CA          3.2150  -16.1250   55.7130 C.3       3 GLL5        0.0000 
     58 CA          7.2367   -7.1825   55.7205 C.3       1 GLC5        0.0000 
     59 CA          8.1770   -5.5820   54.9930 C.3       2 GLP5        0.0000 
     60 CA          0.4729  -18.6465   52.6377 C.3       1 GLC5        0.0000 
     61 CA         -0.5790  -16.5280   52.6600 C.3       3 GLL5        0.0000 
     62 CA          1.4130  -19.6930   53.6960 C.3       2 GLP5        0.0000 
@<TRIPOS>BOND
@<TRIPOS>SUBSTRUCTURE
     1 GLC5        1 GROUP        1 X    GLC  0     ROOT GLC X 6
     2 GLP5        3 GROUP        1 Y    GLP  0     ROOT GLP Y 13
     3 GLL5        2 GROUP        1 Z    GLL  0     ROOT GLL Z 20
@<TRIPOS>SET

