#    Name: 4jve_1MQ_1_ligand
#    Modification time : Tue Mar 25 06:34:20 2014

@<TRIPOS>MOLECULE
4jve_1MQ_1_ligand
   59    62     1     0     0
SMALL
NO_CHARGES


@<TRIPOS>ATOM
      1 C3          5.2620  -12.9850   57.1290 C.ar      1 1MQ201      0.0000 
      2 C2          6.5980  -13.2650   57.3210 C.ar      1 1MQ201      0.0000 
      3 C1          7.4190  -13.4690   56.2100 C.ar      1 1MQ201      0.0000 
      4 CL1         9.0850  -13.7550   56.5450 Cl        1 1MQ201      0.0000 
      5 C4          6.9520  -13.4120   54.8920 C.ar      1 1MQ201      0.0000 
      6 C5          5.6040  -13.1270   54.7220 C.ar      1 1MQ201      0.0000 
      7 C6          4.7540  -12.9110   55.8300 C.ar      1 1MQ201      0.0000 
      8 C7          3.2900  -12.5750   55.7250 C.3       1 1MQ201      0.0000 
      9 N1          3.0980  -11.4210   54.8720 N.am      1 1MQ201      0.0000 
     10 C8          3.3850  -10.0370   55.3250 C.3       1 1MQ201      0.0000 
     11 C9          2.6320  -11.6020   53.5890 C.2       1 1MQ201      0.0000 
     12 O1          2.3120  -10.6300   52.9050 O.2       1 1MQ201      0.0000 
     13 C10         2.4920  -13.0140   52.9690 C.3       1 1MQ201      0.0000 
     14 C11         1.0710  -13.1040   52.3110 C.3       1 1MQ201      0.0000 
     15 C12         0.6140  -14.5070   52.0270 C.ar      1 1MQ201      0.0000 
     16 C13        -0.1700  -15.2150   52.9450 C.ar      1 1MQ201      0.0000 
     17 C14        -0.5790  -16.5280   52.6600 C.ar      1 1MQ201      0.0000 
     18 C15        -0.1900  -17.1180   51.4420 C.ar      1 1MQ201      0.0000 
     19 C16         0.5960  -16.4040   50.5280 C.ar      1 1MQ201      0.0000 
     20 C17         0.9940  -15.1030   50.8200 C.ar      1 1MQ201      0.0000 
     21 O2          2.8120  -14.0540   53.8460 O.3       1 1MQ201      0.0000 
     22 C18         2.4410  -13.7720   55.1840 C.3       1 1MQ201      0.0000 
     23 C19         2.5060  -14.9690   56.0850 C.ar      1 1MQ201      0.0000 
     24 C20         1.8930  -14.9030   57.3460 C.ar      1 1MQ201      0.0000 
     25 C21         1.9870  -15.9830   58.2480 C.ar      1 1MQ201      0.0000 
     26 C22         2.7160  -17.1250   57.8350 C.ar      1 1MQ201      0.0000 
     27 CL2         2.9550  -18.5930   58.8080 Cl        1 1MQ201      0.0000 
     28 C23         3.3260  -17.2080   56.5860 C.ar      1 1MQ201      0.0000 
     29 C24         3.2150  -16.1250   55.7130 C.ar      1 1MQ201      0.0000 
     30 C25         4.5540   -9.7770   56.3380 C.2       1 1MQ201      0.0000 
     31 C26         2.0880   -9.5840   55.9560 C.2       1 1MQ201      0.0000 
     32 O3          1.2730   -8.8430   55.4600 O.co2     1 1MQ201      0.0000 
     33 O4          1.9270  -10.1050   57.1880 O.co2     1 1MQ201      0.0000 
     34 C27         5.7390   -8.8670   55.9160 C.2       1 1MQ201      0.0000 
     35 C28         6.8540   -8.6990   56.9800 C.3       1 1MQ201      0.0000 
     36 F1         -0.5500  -18.3770   51.1080 F         1 1MQ201      0.0000 
     37 H           4.6385  -12.8308   57.9290 H         1 1MQ201      0.0000 
     38 H           6.9919  -13.3245   58.2645 H         1 1MQ201      0.0000 
     39 H           7.5647  -13.5699   54.1131 H         1 1MQ201      0.0000 
     40 H           5.2038  -13.0693   53.7702 H         1 1MQ201      0.0000 
     41 H           2.9117  -12.3540   56.7287 H         1 1MQ201      0.0000 
     42 H           3.5353   -9.3900   54.4550 H         1 1MQ201      0.0000 
     43 H           3.2003  -13.0017   52.0884 H         1 1MQ201      0.0000 
     44 H           1.0991  -12.5181   51.3785 H         1 1MQ201      0.0000 
     45 H           0.3597  -12.6028   52.9867 H         1 1MQ201      0.0000 
     46 H          -0.4479  -14.7755   53.8293 H         1 1MQ201      0.0000 
     47 H          -1.1486  -17.0472   53.3234 H         1 1MQ201      0.0000 
     48 H           0.8760  -16.8444   49.6442 H         1 1MQ201      0.0000 
     49 H           1.5681  -14.5765   50.1498 H         1 1MQ201      0.0000 
     50 H           1.3855  -13.3992   55.2006 H         1 1MQ201      0.0000 
     51 H           1.3703  -14.0613   57.6172 H         1 1MQ201      0.0000 
     52 H           1.5528  -15.9464   59.1532 H         1 1MQ201      0.0000 
     53 H           3.8430  -18.0416   56.3138 H         1 1MQ201      0.0000 
     54 H           3.6567  -16.1684   54.7826 H         1 1MQ201      0.0000 
     55 H           4.5304  -10.1827   57.2151 H         1 1MQ201      0.0000 
     56 H           5.7767   -8.4493   55.0773 H         1 1MQ201      0.0000 
     57 H           7.2682   -9.5755   57.2255 H         1 1MQ201      0.0000 
     58 H           7.5915   -8.1071   56.6548 H         1 1MQ201      0.0000 
     59 H           6.5036   -8.2937   57.8243 H         1 1MQ201      0.0000 
@<TRIPOS>BOND
     1    2    1 ar   
     2    7    1 ar   
     3   37    1 1    
     4    3    2 ar   
     5   38    2 1    
     6    4    3 1    
     7    5    3 ar   
     8    6    5 ar   
     9   39    5 1    
    10    7    6 ar   
    11   40    6 1    
    12    8    7 1    
    13    9    8 1    
    14   22    8 1    
    15   41    8 1    
    16   10    9 1    
    17   11    9 am   
    18   30   10 1    
    19   31   10 1    
    20   42   10 1    
    21   12   11 2    
    22   13   11 1    
    23   14   13 1    
    24   21   13 1    
    25   43   13 1    
    26   15   14 1    
    27   44   14 1    
    28   45   14 1    
    29   16   15 ar   
    30   20   15 ar   
    31   17   16 ar   
    32   46   16 1    
    33   18   17 ar   
    34   47   17 1    
    35   19   18 ar   
    36   36   18 1    
    37   20   19 ar   
    38   48   19 1    
    39   49   20 1    
    40   22   21 1    
    41   23   22 1    
    42   50   22 1    
    43   24   23 ar   
    44   29   23 ar   
    45   25   24 ar   
    46   51   24 1    
    47   26   25 ar   
    48   52   25 1    
    49   27   26 1    
    50   28   26 ar   
    51   29   28 ar   
    52   53   28 1    
    53   54   29 1    
    54   34   30 2    
    55   55   30 1    
    56   32   31 ar   
    57   33   31 ar   
    58   35   34 1    
    59   56   34 1    
    60   57   35 1    
    61   58   35 1    
    62   59   35 1    
@<TRIPOS>SUBSTRUCTURE
     1 1MQ201      1 GROUP   
@<TRIPOS>SET

