#    Name: 1rev_TB9_1_INTS_M
#    Modification time : Tue Mar 25 00:37:23 2014

@<TRIPOS>MOLECULE
1rev_TB9_1_INTS_M
   73     0     6     0     0
SMALL
NO_CHARGES


@<TRIPOS>ATOM
      1 O           0.3960  -36.9885   17.1825 O.2       1 ALC1        0.0000 
      2 O           0.8980  -37.3110   18.5140 O.2       5 ALL1        0.0000 
      3 O          -0.1060  -36.6660   15.8510 O.2       3 ALP1        0.0000 
      4 CA          2.3280  -35.9600   18.4295 C.3       2 GLC5        0.0000 
      5 CA          2.1420  -37.7570   18.7700 C.3       6 GLL5        0.0000 
      6 CA          2.5140  -34.1630   18.0890 C.3       4 GLP5        0.0000 
      7 CA          3.3605  -36.1210   17.2175 C.3       2 GLC5        0.0000 
      8 CA          3.3020  -38.0590   17.5780 C.3       6 GLL5        0.0000 
      9 CA          3.4190  -34.1830   16.8570 C.3       4 GLP5        0.0000 
     10 CA          3.8525  -37.6035   15.8460 C.3       2 GLC5        0.0000 
     11 CA          4.4030  -37.1480   14.1140 C.3       4 GLP5        0.0000 
     12 CA          3.9870  -36.4995   20.1850 C.3       2 GLC5        0.0000 
     13 CA          3.6220  -38.3840   20.6320 C.3       6 GLL5        0.0000 
     14 CA          4.3520  -34.6150   19.7380 C.3       4 GLP5        0.0000 
     15 CA          1.9895  -39.2165   24.5870 C.3       2 GLC5        0.0000 
     16 CA          1.5670  -38.1600   23.1250 C.3       6 GLL5        0.0000 
     17 CA          2.4120  -40.2730   26.0490 C.3       4 GLP5        0.0000 
     18 CA         -2.9905  -36.2555   23.8065 C.3       2 GLC5        0.0000 
     19 CA         -2.8610  -36.0010   21.8380 C.3       6 GLL5        0.0000 
     20 CA         -3.1200  -36.5100   25.7750 C.3       4 GLP5        0.0000 
     21 CA         -2.4650  -34.4145   22.8920 C.3       2 GLC5        0.0000 
     22 CA         -2.0690  -32.8280   23.9460 C.3       4 GLP5        0.0000 
     23 CA         -4.3485  -34.7845   21.5660 C.3       2 GLC5        0.0000 
     24 CA         -5.8360  -33.5680   21.2940 C.3       4 GLP5        0.0000 
     25 CA         -4.1985  -36.2945   20.3755 C.3       2 GLC5        0.0000 
     26 CA         -5.5360  -36.5880   18.9130 C.3       4 GLP5        0.0000 
     27 CA          1.2560  -41.6425   21.3270 C.3       2 GLC5        0.0000 
     28 CA          2.7330  -40.2820   22.0090 C.3       6 GLL5        0.0000 
     29 CA         -0.2210  -43.0030   20.6450 C.3       4 GLP5        0.0000 
     30 CA          4.0645  -35.7455   21.6375 C.3       2 GLC5        0.0000 
     31 CA          3.7770  -36.8760   23.5370 C.3       6 GLL5        0.0000 
     32 CA          3.0945  -38.5745   24.7930 C.3       2 GLC5        0.0000 
     33 CA          2.4645  -37.6755   25.7930 C.3       2 GLC5        0.0000 
     34 CA          3.0080  -36.1580   24.6020 C.3       6 GLL5        0.0000 
     35 CA          1.9210  -39.1930   26.9840 C.3       4 GLP5        0.0000 
     36 CA          2.9010  -36.4405   27.1095 C.3       2 GLC5        0.0000 
     37 CA          3.4910  -35.2020   25.3750 C.3       6 GLL5        0.0000 
     38 CA          2.3110  -37.6790   28.8440 C.3       4 GLP5        0.0000 
     39 CA          1.8570  -35.8180   27.5290 C.3       2 GLC5        0.0000 
     40 CA          2.6420  -34.5480   26.4230 C.3       6 GLL5        0.0000 
     41 CA          1.0720  -37.0880   28.6350 C.3       4 GLP5        0.0000 
     42 CA          1.2755  -33.1555   25.7655 C.3       2 GLC5        0.0000 
     43 CA         -0.0910  -31.7630   25.1080 C.3       4 GLP5        0.0000 
     44 CA          6.2740  -34.1180   24.4020 C.3       2 GLC5        0.0000 
     45 CA          4.8940  -34.7090   25.2550 C.3       6 GLL5        0.0000 
     46 CA          7.6540  -33.5270   23.5490 C.3       4 GLP5        0.0000 
     47 CA          5.9800  -35.6860   25.9770 C.3       2 GLC5        0.0000 
     48 CA          7.0660  -36.6630   26.6990 C.3       4 GLP5        0.0000 
     49 CA          5.3105  -33.1375   26.1445 C.3       2 GLC5        0.0000 
     50 CA          5.7270  -31.5660   27.0340 C.3       4 GLP5        0.0000 
     51 CA         -1.5215  -38.4793   20.4883 C.3       2 GLC5        0.0000 
     52 CA          0.2840  -37.1300   19.7030 C.3       6 GLL5        0.0000 
     53 CA         -2.6950  -40.0630   21.0920 C.3       4 GLP5        0.0000 
     54 CA          2.8880  -39.9175   18.6290 C.3       2 GLC5        0.0000 
     55 CA          3.0540  -41.9270   19.0840 C.3       4 GLP5        0.0000 
     56 CA          4.7707  -39.5840   23.1580 C.3       2 GLC5        0.0000 
     57 CA          6.4070  -39.5310   24.2920 C.3       4 GLP5        0.0000 
     58 CA          2.7732  -39.9550   24.0365 C.3       2 GLC5        0.0000 
     59 CA          3.5360  -38.9920   22.0390 C.3       6 GLL5        0.0000 
     60 CA          1.1553  -35.4432   21.3783 C.3       2 GLC5        0.0000 
     61 CA         -0.4320  -36.8990   22.3890 C.3       6 GLL5        0.0000 
     62 CA          2.1150  -33.7510   20.5250 C.3       4 GLP5        0.0000 
     63 CA         -0.7568  -38.7617   22.9746 C.3       2 GLC5        0.0000 
     64 CA         -1.8950  -40.1910   23.4550 C.3       4 GLP5        0.0000 
     65 CA         -2.3940  -38.1700   21.3547 C.3       2 GLC5        0.0000 
     66 CA         -1.3250  -36.5530   21.3970 C.3       6 GLL5        0.0000 
     67 CA          0.9994  -35.3686   20.3325 C.3       2 GLC5        0.0000 
     68 CA         -0.9800  -36.6610   20.0660 C.3       6 GLL5        0.0000 
     69 CA          3.1050  -40.7060   20.3781 C.3       2 GLC5        0.0000 
     70 CA          4.9554  -36.7963   25.3936 C.3       2 GLC5        0.0000 
     71 CA          6.4690  -37.7330   26.0650 C.3       4 GLP5        0.0000 
     72 CA          3.1867  -33.1530   26.6745 C.3       2 GLC5        0.0000 
     73 CA          3.3070  -31.4310   27.4500 C.3       4 GLP5        0.0000 
@<TRIPOS>BOND
@<TRIPOS>SUBSTRUCTURE
     1 ALC1        1 GROUP        1 X    ALC  0     ROOT ALC X 1
     2 GLC5        4 GROUP        1 X    GLC  0     **** GLC X 6
     3 ALP1        3 GROUP        1 Y    ALP  0     ROOT ALP Y 8
     4 GLP5        6 GROUP        1 Y    GLP  0     **** GLP Y 13
     5 ALL1        2 GROUP        1 Z    ALL  0     ROOT ALL Z 15
     6 GLL5        5 GROUP        1 Z    GLL  0     **** GLL Z 20
@<TRIPOS>SET

