#    Name: 1rev_TB9_1_ligand
#    Modification time : Tue Mar 25 00:37:23 2014

@<TRIPOS>MOLECULE
1rev_TB9_1_ligand
   42    44     1     0     0
SMALL
NO_CHARGES


@<TRIPOS>ATOM
      1 N1          0.8980  -37.3110   18.5140 N.am      1 TB9999      0.0000 
      2 C1A         0.2840  -37.1300   19.7030 C.ar      1 TB9999      0.0000 
      3 C2          2.1420  -37.7570   18.7700 C.2       1 TB9999      0.0000 
      4 S2          3.3020  -38.0590   17.5780 S.2       1 TB9999      0.0000 
      5 N3          2.3500  -37.8790   20.1140 N.am      1 TB9999      0.0000 
      6 C3A         1.2110  -37.4930   20.7250 C.ar      1 TB9999      0.0000 
      7 C4          3.6220  -38.3840   20.6320 C.3       1 TB9999      0.0000 
      8 C5          3.5360  -38.9920   22.0390 C.3       1 TB9999      0.0000 
      9 N6          3.0190  -38.0210   23.0050 N.4       1 TB9999      0.0000 
     10 C7          1.5670  -38.1600   23.1250 C.3       1 TB9999      0.0000 
     11 C7A         0.8230  -37.3720   22.0740 C.ar      1 TB9999      0.0000 
     12 C8         -0.4320  -36.8990   22.3890 C.ar      1 TB9999      0.0000 
     13 CL9        -2.8610  -36.0010   21.8380 Cl        1 TB9999      0.0000 
     14 C9         -1.3250  -36.5530   21.3970 C.ar      1 TB9999      0.0000 
     15 C10        -0.9800  -36.6610   20.0660 C.ar      1 TB9999      0.0000 
     16 C11         2.7330  -40.2820   22.0090 C.3       1 TB9999      0.0000 
     17 C12         3.7770  -36.8760   23.5370 C.3       1 TB9999      0.0000 
     18 C13         3.0080  -36.1580   24.6020 C.2       1 TB9999      0.0000 
     19 C14         3.4910  -35.2020   25.3750 C.2       1 TB9999      0.0000 
     20 C15         2.6420  -34.5480   26.4230 C.3       1 TB9999      0.0000 
     21 C16         4.8940  -34.7090   25.2550 C.3       1 TB9999      0.0000 
     22 H           0.5164  -37.1508   17.6489 H         1 TB9999      0.0000 
     23 H           4.3793  -37.5721   20.6618 H         1 TB9999      0.0000 
     24 H           4.0368  -39.1603   19.9545 H         1 TB9999      0.0000 
     25 H           4.5744  -39.2627   22.3217 H         1 TB9999      0.0000 
     26 H           3.2562  -38.8466   24.0740 H         1 TB9999      0.0000 
     27 H           1.2302  -37.8202   24.1211 H         1 TB9999      0.0000 
     28 H           1.2749  -39.2222   23.0383 H         1 TB9999      0.0000 
     29 H          -0.7090  -36.8018   23.3844 H         1 TB9999      0.0000 
     30 H          -1.6525  -36.3964   19.3308 H         1 TB9999      0.0000 
     31 H           4.0119  -36.1699   22.7257 H         1 TB9999      0.0000 
     32 H           4.7351  -37.2202   23.9560 H         1 TB9999      0.0000 
     33 H           2.0040  -36.4927   24.6888 H         1 TB9999      0.0000 
     34 H           3.1493  -40.9647   21.4086 H         1 TB9999      0.0000 
     35 H           2.6602  -40.6953   22.9167 H         1 TB9999      0.0000 
     36 H           1.8008  -40.1316   21.6798 H         1 TB9999      0.0000 
     37 H           3.1480  -33.8484   26.9275 H         1 TB9999      0.0000 
     38 H           1.8405  -34.1009   26.0259 H         1 TB9999      0.0000 
     39 H           2.3064  -35.2086   27.0946 H         1 TB9999      0.0000 
     40 H           5.5590  -35.4387   25.4143 H         1 TB9999      0.0000 
     41 H           5.0801  -34.3361   24.3460 H         1 TB9999      0.0000 
     42 H           5.0906  -33.9840   25.9151 H         1 TB9999      0.0000 
@<TRIPOS>BOND
     1    2    1 1    
     2    3    1 am   
     3   22    1 1    
     4    6    2 ar   
     5   15    2 ar   
     6    4    3 2    
     7    5    3 am   
     8    6    5 1    
     9    7    5 1    
    10   11    6 ar   
    11    8    7 1    
    12   23    7 1    
    13   24    7 1    
    14    9    8 1    
    15   16    8 1    
    16   25    8 1    
    17   10    9 1    
    18   17    9 1    
    19   26    9 1    
    20   11   10 1    
    21   27   10 1    
    22   28   10 1    
    23   12   11 ar   
    24   14   12 ar   
    25   29   12 1    
    26   14   13 1    
    27   15   14 ar   
    28   30   15 1    
    29   34   16 1    
    30   35   16 1    
    31   36   16 1    
    32   18   17 1    
    33   31   17 1    
    34   32   17 1    
    35   19   18 2    
    36   33   18 1    
    37   20   19 1    
    38   21   19 1    
    39   37   20 1    
    40   38   20 1    
    41   39   20 1    
    42   40   21 1    
    43   41   21 1    
    44   42   21 1    
@<TRIPOS>SUBSTRUCTURE
     1 TB9999      1 GROUP   
@<TRIPOS>SET

