#    Name: 4gvx_NAP_2_INTS_M
#    Modification time : Mon Mar 24 23:52:08 2014

@<TRIPOS>MOLECULE
4gvx_NAP_2_INTS_M
   99     0    12     0     0
SMALL
NO_CHARGES


@<TRIPOS>ATOM
      1 N         -15.2930  -36.0715   39.9860 N.am      2 SEC2        0.0000 
      2 N         -15.3360  -35.4110   41.2030 N.am     10 SEL2        0.0000 
      3 N         -15.2500  -36.7320   38.7690 N.am      6 SEP2        0.0000 
      4 CA        -10.0475  -38.4275   40.7055 C.3       4 GLC5        0.0000 
      5 CA        -11.7580  -38.4730   41.3460 C.3      12 GLL5        0.0000 
      6 CA         -8.3370  -38.3820   40.0650 C.3       8 GLP5        0.0000 
      7 CA         -9.7120  -39.4670   41.0075 C.3       4 GLC5        0.0000 
      8 CA        -11.0870  -40.5520   41.9500 C.3      12 GLL5        0.0000 
      9 CA         -9.3685  -39.7700   43.0420 C.3       4 GLC5        0.0000 
     10 CA         -7.6500  -38.9880   44.1340 C.3       8 GLP5        0.0000 
     11 O          -7.8845  -45.4535   46.0215 O.2       1 ALC1        0.0000 
     12 O          -8.2300  -44.0690   46.0080 O.2       9 ALL1        0.0000 
     13 O          -7.5390  -46.8380   46.0350 O.2       5 ALP1        0.0000 
     14 N          -6.5405  -44.9515   43.8910 N.am      2 SEC2        0.0000 
     15 N          -7.7930  -44.1700   43.6410 N.am     10 SEL2        0.0000 
     16 N          -5.2880  -45.7330   44.1410 N.am      6 SEP2        0.0000 
     17 CA         -7.7935  -43.3570   40.4145 C.3       4 GLC5        0.0000 
     18 CA         -8.0040  -43.7830   42.3610 C.3      12 GLL5        0.0000 
     19 CA         -7.5830  -42.9310   38.4680 C.3       8 GLP5        0.0000 
     20 CA         -8.8490  -45.1455   41.5955 C.3       4 GLC5        0.0000 
     21 CA         -9.6940  -46.5080   40.8300 C.3       8 GLP5        0.0000 
     22 CA         -7.1120  -45.6855   42.6315 C.3       4 GLC5        0.0000 
     23 CA         -6.2200  -47.5880   42.9020 C.3       8 GLP5        0.0000 
     24 CA         -6.7530  -42.6800   42.9720 C.3       4 GLC5        0.0000 
     25 CA         -5.5020  -41.5770   43.5830 C.3       8 GLP5        0.0000 
     26 N          -8.9450  -43.7690   40.6800 N.am      2 SEC2        0.0000 
     27 N          -8.9040  -42.8040   42.0840 N.am     10 SEL2        0.0000 
     28 N          -8.9860  -44.7340   39.2760 N.am      6 SEP2        0.0000 
     29 N         -16.0550  -32.6370   43.5260 N.am      2 SEC2        0.0000 
     30 N         -14.9080  -32.7610   43.9930 N.am     10 SEL2        0.0000 
     31 N         -17.2020  -32.5130   43.0590 N.am      6 SEP2        0.0000 
     32 N         -12.9755  -32.1875   40.9225 N.am      2 SEC2        0.0000 
     33 N         -13.2520  -32.9670   42.0990 N.am     10 SEL2        0.0000 
     34 N         -12.6990  -31.4080   39.7460 N.am      6 SEP2        0.0000 
     35 CA         -9.1415  -31.3620   45.4415 C.3       4 GLC5        0.0000 
     36 CA        -10.4150  -32.8270   45.3380 C.3      12 GLL5        0.0000 
     37 CA         -7.8680  -29.8970   45.5450 C.3       8 GLP5        0.0000 
     38 CA        -10.2820  -35.4945   47.1025 C.3       4 GLC5        0.0000 
     39 CA        -10.4460  -33.6860   46.5730 C.3      12 GLL5        0.0000 
     40 CA        -10.1180  -37.3030   47.6320 C.3       8 GLP5        0.0000 
     41 N          -8.7135  -33.6510   48.4315 N.am      2 SEC2        0.0000 
     42 N          -9.1720  -33.8500   47.0950 N.am     10 SEL2        0.0000 
     43 N          -8.2550  -33.4520   49.7680 N.am      6 SEP2        0.0000 
     44 O          -8.6895  -34.3700   45.9515 O.2       1 ALC1        0.0000 
     45 O          -9.1720  -33.8500   47.0950 O.2       9 ALL1        0.0000 
     46 O          -8.2070  -34.8900   44.8080 O.2       5 ALP1        0.0000 
     47 CA        -11.9250  -33.0510   49.6095 C.3       4 GLC5        0.0000 
     48 CA        -11.2980  -32.9190   47.4980 C.3      12 GLL5        0.0000 
     49 CA        -12.5520  -33.1830   51.7210 C.3       8 GLP5        0.0000 
     50 CA        -13.2555  -33.8415   47.2540 C.3       4 GLC5        0.0000 
     51 CA        -15.2130  -34.7640   47.0100 C.3       8 GLP5        0.0000 
     52 N         -11.7320  -32.7555   49.6985 N.am      2 SEC2        0.0000 
     53 N         -10.9110  -33.1120   48.8130 N.am     10 SEL2        0.0000 
     54 N         -12.5530  -32.3990   50.5840 N.am      6 SEP2        0.0000 
     55 N          -9.5830  -33.2820   49.2905 N.am      2 SEC2        0.0000 
     56 CA        -11.5945  -30.4205   45.2240 C.3       4 GLC5        0.0000 
     57 CA        -11.0490  -31.5260   47.0650 C.3      12 GLL5        0.0000 
     58 CA        -12.1400  -29.3150   43.3830 C.3       8 GLP5        0.0000 
     59 CA         -9.4585  -30.7115   46.3050 C.3       4 GLC5        0.0000 
     60 N         -16.9655  -27.6680   46.0360 N.am      2 SEC2        0.0000 
     61 N         -16.4860  -28.8090   46.7720 N.am     10 SEL2        0.0000 
     62 N         -17.4450  -26.5270   45.3000 N.am      6 SEP2        0.0000 
     63 O         -17.0885  -29.6910   44.6115 O.2       1 ALC1        0.0000 
     64 O         -15.9830  -30.4910   45.2650 O.2       9 ALL1        0.0000 
     65 O         -18.1940  -28.8910   43.9580 O.2       5 ALP1        0.0000 
     66 CA        -14.2745  -26.5940   48.7520 C.3       4 GLC5        0.0000 
     67 CA        -14.0400  -28.6760   48.0090 C.3      12 GLL5        0.0000 
     68 CA        -14.5090  -24.5120   49.4950 C.3       8 GLP5        0.0000 
     69 CA        -11.1585  -28.2440   47.2825 C.3       4 GLC5        0.0000 
     70 CA        -11.8680  -29.6010   48.3350 C.3      12 GLL5        0.0000 
     71 CA        -10.4490  -26.8870   46.2300 C.3       8 GLP5        0.0000 
     72 N         -14.7855  -44.2825   40.1495 N.am      2 SEC2        0.0000 
     73 N         -15.0710  -42.9340   40.4540 N.am     10 SEL2        0.0000 
     74 N         -14.5000  -45.6310   39.8450 N.am      6 SEP2        0.0000 
     75 NZ        -13.5590  -43.9410   43.9780 N.4       3 LYC4        0.0000 
     76 NZ        -14.1530  -43.6590   42.6170 N.4      11 LYL4        0.0000 
     77 NZ        -12.0710  -45.0510   44.8210 N.4       7 LYP4        0.0000 
     78 N         -13.0700  -44.4270   43.0605 N.am      2 SEC2        0.0000 
     79 N         -14.1530  -43.6590   42.6170 N.am     10 SEL2        0.0000 
     80 N         -11.9870  -45.1950   43.5040 N.am      6 SEP2        0.0000 
     81 N         -13.5590  -43.9410   43.9780 N.am      2 SEC2        0.0000 
     82 N         -12.9650  -44.2230   45.3390 N.am      6 SEP2        0.0000 
     83 CA        -13.2188  -37.8819   39.7668 C.3       4 GLC5        0.0000 
     84 CA        -14.0230  -37.0810   38.1500 C.3       8 GLP5        0.0000 
     85 CA         -8.5808  -40.7015   43.9410 C.3       4 GLC5        0.0000 
     86 CA         -9.4050  -42.6120   44.4190 C.3      12 GLL5        0.0000 
     87 CA        -10.1560  -44.3708   43.3311 C.3       4 GLC5        0.0000 
     88 CA         -9.6180  -42.2180   43.0770 C.3      12 GLL5        0.0000 
     89 CA        -11.0340  -46.0760   42.8540 C.3       8 GLP5        0.0000 
     90 CA         -7.3900  -42.1213   43.6956 C.3       4 GLC5        0.0000 
     91 CA        -11.4742  -31.2055   44.0643 C.3       4 GLC5        0.0000 
     92 CA        -11.2020  -33.3650   44.1530 C.3      12 GLL5        0.0000 
     93 CA        -12.9808  -29.7175   45.1313 C.3       4 GLC5        0.0000 
     94 CA        -13.3340  -30.5970   46.7140 C.3      12 GLL5        0.0000 
     95 CA        -11.6655  -29.2958   50.1328 C.3       4 GLC5        0.0000 
     96 CA        -12.8320  -28.6580   48.6680 C.3      12 GLL5        0.0000 
     97 CA        -10.9810  -29.4620   51.7640 C.3       8 GLP5        0.0000 
     98 CA        -12.6146  -27.4874   47.2662 C.3       4 GLC5        0.0000 
     99 CA        -11.7260  -26.0660   46.4350 C.3       8 GLP5        0.0000 
@<TRIPOS>BOND
@<TRIPOS>SUBSTRUCTURE
     1 ALC1       11 GROUP        1 X    ALC  0     ROOT ALC X 1
     2 SEC2        1 GROUP        1 X    SEC  0     **** SEC X 2
     3 LYC4       75 GROUP        1 X    LYC  0     **** LYC X 4
     4 GLC5        4 GROUP        1 X    GLC  0     **** GLC X 6
     5 ALP1       13 GROUP        1 Y    ALP  0     ROOT ALP Y 8
     6 SEP2        3 GROUP        1 Y    SEP  0     **** SEP Y 9
     7 LYP4       77 GROUP        1 Y    LYP  0     **** LYP Y 11
     8 GLP5        6 GROUP        1 Y    GLP  0     **** GLP Y 13
     9 ALL1       12 GROUP        1 Z    ALL  0     ROOT ALL Z 15
    10 SEL2        2 GROUP        1 Z    SEL  0     **** SEL Z 16
    11 LYL4       76 GROUP        1 Z    LYL  0     **** LYL Z 18
    12 GLL5        5 GROUP        1 Z    GLL  0     **** GLL Z 20
@<TRIPOS>SET

