#    Name: 4gvx_NAP_2_ligand
#    Modification time : Mon Mar 24 23:52:08 2014

@<TRIPOS>MOLECULE
4gvx_NAP_2_ligand
   73    77     1     0     0
SMALL
NO_CHARGES


@<TRIPOS>ATOM
      1 PA        -14.4350  -36.0590   42.2310 P.3       1 NAP301      0.0000 
      2 O1A       -15.3360  -35.4110   41.2030 O.co2     1 NAP301      0.0000 
      3 O2A       -15.0450  -37.2420   42.9350 O.co2     1 NAP301      0.0000 
      4 O5B       -13.1000  -36.5050   41.5270 O.3       1 NAP301      0.0000 
      5 C5B       -12.2400  -37.3480   42.2440 C.3       1 NAP301      0.0000 
      6 C4B       -11.7580  -38.4730   41.3460 C.3       1 NAP301      0.0000 
      7 O4B       -10.7410  -39.1970   42.0100 O.3       1 NAP301      0.0000 
      8 C3B       -12.8300  -39.4550   40.9720 C.3       1 NAP301      0.0000 
      9 O3B       -12.7170  -39.7830   39.6330 O.3       1 NAP301      0.0000 
     10 C2B       -12.5720  -40.6100   41.8510 C.3       1 NAP301      0.0000 
     11 O2B       -13.0160  -41.8270   41.3250 O.3       1 NAP301      0.0000 
     12 C1B       -11.0870  -40.5520   41.9500 C.3       1 NAP301      0.0000 
     13 N9A       -10.5850  -41.2430   43.1130 N.pl3     1 NAP301      0.0000 
     14 C8A       -10.9320  -41.0600   44.4080 C.2       1 NAP301      0.0000 
     15 N7A       -10.2220  -41.8780   45.1820 N.2       1 NAP301      0.0000 
     16 C5A        -9.4050  -42.6120   44.4190 C.ar      1 NAP301      0.0000 
     17 C6A        -8.4710  -43.6140   44.6600 C.ar      1 NAP301      0.0000 
     18 N6A        -8.2300  -44.0690   46.0080 N.pl3     1 NAP301      0.0000 
     19 N1A        -7.7930  -44.1700   43.6410 N.ar      1 NAP301      0.0000 
     20 C2A        -8.0040  -43.7830   42.3610 C.ar      1 NAP301      0.0000 
     21 N3A        -8.9040  -42.8040   42.0840 N.ar      1 NAP301      0.0000 
     22 C4A        -9.6180  -42.2180   43.0770 C.ar      1 NAP301      0.0000 
     23 O3        -14.0720  -35.0560   43.4240 O.3       1 NAP301      0.0000 
     24 PN        -13.7130  -33.4910   43.4260 P.3       1 NAP301      0.0000 
     25 O1N       -14.9080  -32.7610   43.9930 O.co2     1 NAP301      0.0000 
     26 O2N       -13.2520  -32.9670   42.0990 O.co2     1 NAP301      0.0000 
     27 O5D       -12.5560  -33.3890   44.5070 O.3       1 NAP301      0.0000 
     28 C5D       -11.2020  -33.3650   44.1530 C.3       1 NAP301      0.0000 
     29 C4D       -10.4150  -32.8270   45.3380 C.3       1 NAP301      0.0000 
     30 O4D       -10.8610  -31.5390   45.6730 O.3       1 NAP301      0.0000 
     31 C3D       -10.4460  -33.6860   46.5730 C.3       1 NAP301      0.0000 
     32 O3D        -9.1720  -33.8500   47.0950 O.3       1 NAP301      0.0000 
     33 C2D       -11.2980  -32.9190   47.4980 C.3       1 NAP301      0.0000 
     34 O2D       -10.9110  -33.1120   48.8130 O.3       1 NAP301      0.0000 
     35 C1D       -11.0490  -31.5260   47.0650 C.3       1 NAP301      0.0000 
     36 N1N       -12.1180  -30.5630   47.3740 N.pl3     1 NAP301      0.0000 
     37 C2N       -13.3340  -30.5970   46.7140 C.ar      1 NAP301      0.0000 
     38 C3N       -14.3090  -29.6430   47.0450 C.ar      1 NAP301      0.0000 
     39 C7N       -15.6550  -29.6160   46.3610 C.2       1 NAP301      0.0000 
     40 O7N       -16.4860  -28.8090   46.7720 O.2       1 NAP301      0.0000 
     41 N7N       -15.9830  -30.4910   45.2650 N.am      1 NAP301      0.0000 
     42 C4N       -14.0400  -28.6760   48.0090 C.ar      1 NAP301      0.0000 
     43 C5N       -12.8320  -28.6580   48.6680 C.ar      1 NAP301      0.0000 
     44 C6N       -11.8680  -29.6010   48.3350 C.ar      1 NAP301      0.0000 
     45 P2B       -14.3910  -42.4750   41.7390 P.3       1 NAP301      0.0000 
     46 O1X       -15.2440  -41.4640   42.4670 O.co2     1 NAP301      0.0000 
     47 O2X       -15.0710  -42.9340   40.4540 O.co2     1 NAP301      0.0000 
     48 O3X       -14.1530  -43.6590   42.6170 O.co2     1 NAP301      0.0000 
     49 H         -12.7348  -37.8063   43.1137 H         1 NAP301      0.0000 
     50 H         -11.3511  -36.8170   42.6171 H         1 NAP301      0.0000 
     51 H         -11.3611  -38.0345   40.4309 H         1 NAP301      0.0000 
     52 H         -13.7724  -39.0205   41.2342 H         1 NAP301      0.0000 
     53 H         -12.9663  -40.3840   42.8254 H         1 NAP301      0.0000 
     54 H         -10.6771  -40.9995   41.0439 H         1 NAP301      0.0000 
     55 H         -11.6034  -40.4212   44.7157 H         1 NAP301      0.0000 
     56 H          -8.3552  -43.3894   46.7308 H         1 NAP301      0.0000 
     57 H          -7.9578  -45.0261   46.1073 H         1 NAP301      0.0000 
     58 H          -7.4766  -44.2352   41.5861 H         1 NAP301      0.0000 
     59 H         -11.0032  -32.7112   43.2992 H         1 NAP301      0.0000 
     60 H         -10.8116  -34.3597   43.9203 H         1 NAP301      0.0000 
     61 H          -9.3499  -32.7617   45.0148 H         1 NAP301      0.0000 
     62 H         -10.9378  -34.5995   46.3260 H         1 NAP301      0.0000 
     63 H         -12.3178  -33.1570   47.2997 H         1 NAP301      0.0000 
     64 H         -10.1170  -31.1797   47.5414 H         1 NAP301      0.0000 
     65 H         -13.5266  -31.2975   46.0001 H         1 NAP301      0.0000 
     66 H         -15.2881  -31.1664   45.0180 H         1 NAP301      0.0000 
     67 H         -16.8783  -30.3503   44.8423 H         1 NAP301      0.0000 
     68 H         -14.7607  -27.9656   48.2278 H         1 NAP301      0.0000 
     69 H         -12.6408  -27.9617   49.3945 H         1 NAP301      0.0000 
     70 H         -10.9499  -29.5808   48.8150 H         1 NAP301      0.0000 
     71 H         -12.8027  -40.7789   39.6025 H         1 NAP301      0.0000 
     72 H          -8.5572  -33.7526   46.3123 H         1 NAP301      0.0000 
     73 H         -11.2104  -34.0394   49.0373 H         1 NAP301      0.0000 
@<TRIPOS>BOND
     1    2    1 ar   
     2    3    1 ar   
     3    4    1 1    
     4   23    1 1    
     5    5    4 1    
     6    6    5 1    
     7   49    5 1    
     8   50    5 1    
     9    7    6 1    
    10    8    6 1    
    11   51    6 1    
    12   12    7 1    
    13    9    8 1    
    14   10    8 1    
    15   52    8 1    
    16   71    9 1    
    17   11   10 1    
    18   12   10 1    
    19   53   10 1    
    20   45   11 1    
    21   13   12 1    
    22   54   12 1    
    23   14   13 1    
    24   22   13 1    
    25   15   14 2    
    26   55   14 1    
    27   16   15 1    
    28   17   16 ar   
    29   22   16 ar   
    30   18   17 1    
    31   19   17 ar   
    32   56   18 1    
    33   57   18 1    
    34   20   19 ar   
    35   21   20 ar   
    36   58   20 1    
    37   22   21 ar   
    38   24   23 1    
    39   25   24 ar   
    40   26   24 ar   
    41   27   24 1    
    42   28   27 1    
    43   29   28 1    
    44   59   28 1    
    45   60   28 1    
    46   30   29 1    
    47   31   29 1    
    48   61   29 1    
    49   35   30 1    
    50   32   31 1    
    51   33   31 1    
    52   62   31 1    
    53   72   32 1    
    54   34   33 1    
    55   35   33 1    
    56   63   33 1    
    57   73   34 1    
    58   36   35 1    
    59   64   35 1    
    60   37   36 ar   
    61   44   36 ar   
    62   38   37 ar   
    63   65   37 1    
    64   39   38 1    
    65   42   38 ar   
    66   40   39 2    
    67   41   39 am   
    68   66   41 1    
    69   67   41 1    
    70   43   42 ar   
    71   68   42 1    
    72   44   43 ar   
    73   69   43 1    
    74   70   44 1    
    75   46   45 ar   
    76   47   45 ar   
    77   48   45 ar   
@<TRIPOS>SUBSTRUCTURE
     1 NAP301      1 GROUP   
@<TRIPOS>SET

