#    Name: 4epl_JAI_1_INTS_M
#    Modification time : Mon Mar 24 18:22:54 2014

@<TRIPOS>MOLECULE
4epl_JAI_1_INTS_M
   63     0     6     0     0
SMALL
NO_CHARGES


@<TRIPOS>ATOM
      1 N          42.8395  -22.2690  -21.0535 N.am      1 SEC2        0.0000 
      2 N          41.5310  -21.7300  -20.5370 N.am      5 SEL2        0.0000 
      3 N          44.1480  -22.8080  -21.5700 N.am      3 SEP2        0.0000 
      4 N          41.4315  -24.2070  -20.4295 N.am      1 SEC2        0.0000 
      5 N          40.6800  -23.5500  -19.5570 N.am      5 SEL2        0.0000 
      6 N          42.1830  -24.8640  -21.3020 N.am      3 SEP2        0.0000 
      7 CA         37.0670  -12.9230  -21.2625 C.3       2 GLC5        0.0000 
      8 CA         35.7920  -14.4570  -21.9540 C.3       6 GLL5        0.0000 
      9 CA         38.3420  -11.3890  -20.5710 C.3       4 GLP5        0.0000 
     10 CA         36.5720  -13.4885  -23.4335 C.3       2 GLC5        0.0000 
     11 CA         37.3520  -12.5200  -24.9130 C.3       4 GLP5        0.0000 
     12 CA         33.9185  -15.9360  -19.7155 C.3       2 GLC5        0.0000 
     13 CA         35.9170  -15.5830  -19.7390 C.3       6 GLL5        0.0000 
     14 CA         31.9200  -16.2890  -19.6920 C.3       4 GLP5        0.0000 
     15 CA         36.0765  -19.4235  -20.9265 C.3       2 GLC5        0.0000 
     16 CA         35.8620  -18.0180  -19.2930 C.3       6 GLL5        0.0000 
     17 CA         36.2910  -20.8290  -22.5600 C.3       4 GLP5        0.0000 
     18 CA         37.0350  -18.4105  -16.4120 C.3       2 GLC5        0.0000 
     19 CA         36.0590  -18.9520  -18.1000 C.3       6 GLL5        0.0000 
     20 CA         38.0110  -17.8690  -14.7240 C.3       4 GLP5        0.0000 
     21 CA         33.9100  -18.5175  -18.1365 C.3       2 GLC5        0.0000 
     22 CA         31.7610  -18.0830  -18.1730 C.3       4 GLP5        0.0000 
     23 CA         32.3770  -20.4905  -15.6505 C.3       2 GLC5        0.0000 
     24 CA         33.9480  -20.0150  -17.1080 C.3       6 GLL5        0.0000 
     25 CA         30.8060  -20.9660  -14.1930 C.3       4 GLP5        0.0000 
     26 CA         36.1335  -20.6510  -20.4095 C.3       2 GLC5        0.0000 
     27 CA         35.9760  -20.4730  -18.2590 C.3       6 GLL5        0.0000 
     28 CA         37.5545  -19.5455  -16.1260 C.3       2 GLC5        0.0000 
     29 CA         37.0980  -21.2220  -17.5280 C.3       6 GLL5        0.0000 
     30 CA         36.1925  -21.4385  -15.6300 C.3       2 GLC5        0.0000 
     31 CA         35.2870  -21.6550  -13.7320 C.3       4 GLP5        0.0000 
     32 CA         37.2875  -22.6680  -16.6070 C.3       2 GLC5        0.0000 
     33 CA         37.4770  -24.1140  -15.6860 C.3       4 GLP5        0.0000 
     34 CA         39.5370  -18.8250  -15.3540 C.3       2 GLC5        0.0000 
     35 CA         41.0630  -19.7810  -15.9840 C.3       6 GLL5        0.0000 
     36 CA         39.7295  -22.5075  -15.1360 C.3       2 GLC5        0.0000 
     37 CA         41.4570  -21.2520  -15.8230 C.3       6 GLL5        0.0000 
     38 CA         38.0020  -23.7630  -14.4490 C.3       4 GLP5        0.0000 
     39 CA         43.3575  -23.3355  -19.1450 C.3       2 GLC5        0.0000 
     40 CA         43.3130  -21.7130  -17.6950 C.3       6 GLL5        0.0000 
     41 CA         43.4020  -24.9580  -20.5950 C.3       4 GLP5        0.0000 
     42 CA         44.1400  -20.1070  -16.8820 C.3       2 GLC5        0.0000 
     43 CA         44.9670  -18.5010  -16.0690 C.3       4 GLP5        0.0000 
     44 CA         35.2660  -15.8193  -23.4065 C.3       2 GLC5        0.0000 
     45 CA         35.9040  -15.7780  -21.2380 C.3       6 GLL5        0.0000 
     46 CA         34.6840  -16.5210  -25.2170 C.3       4 GLP5        0.0000 
     47 CA         33.7800  -15.0583  -21.5515 C.3       2 GLC5        0.0000 
     48 CA         31.7120  -14.9990  -21.5070 C.3       4 GLP5        0.0000 
     49 CA         37.8107  -16.0962  -20.0112 C.3       2 GLC5        0.0000 
     50 CA         39.7110  -16.5120  -19.5340 C.3       4 GLP5        0.0000 
     51 CA         36.1635  -14.2692  -18.2995 C.3       2 GLC5        0.0000 
     52 CA         36.4190  -12.4610  -17.3070 C.3       4 GLP5        0.0000 
     53 CA         37.7957  -16.9035  -19.3015 C.3       2 GLC5        0.0000 
     54 CA         35.8990  -16.5720  -18.8450 C.3       6 GLL5        0.0000 
     55 CA         34.0517  -17.0595  -18.7580 C.3       2 GLC5        0.0000 
     56 CA         32.2230  -16.8240  -18.4470 C.3       4 GLP5        0.0000 
     57 CA         34.7735  -21.0968  -15.6520 C.3       2 GLC5        0.0000 
     58 CA         33.6400  -22.2268  -16.9330 C.3       2 GLC5        0.0000 
     59 CA         33.0200  -23.9150  -16.2940 C.3       4 GLP5        0.0000 
     60 CA         33.0105  -19.3107  -17.8725 C.3       2 GLC5        0.0000 
     61 CA         34.5720  -21.0620  -18.0360 C.3       6 GLL5        0.0000 
     62 CA         42.4950  -19.0767  -16.1307 C.3       2 GLC5        0.0000 
     63 CA         43.7300  -17.6370  -16.3580 C.3       4 GLP5        0.0000 
@<TRIPOS>BOND
@<TRIPOS>SUBSTRUCTURE
     1 SEC2        1 GROUP        1 X    SEC  0     ROOT SEC X 2
     2 GLC5        7 GROUP        1 X    GLC  0     **** GLC X 6
     3 SEP2        3 GROUP        1 Y    SEP  0     ROOT SEP Y 9
     4 GLP5        9 GROUP        1 Y    GLP  0     **** GLP Y 13
     5 SEL2        2 GROUP        1 Z    SEL  0     ROOT SEL Z 16
     6 GLL5        8 GROUP        1 Z    GLL  0     **** GLL Z 20
@<TRIPOS>SET

