#    Name: 4epl_JAI_1_ligand
#    Modification time : Mon Mar 24 18:22:54 2014

@<TRIPOS>MOLECULE
4epl_JAI_1_ligand
   51    51     1     0     0
SMALL
NO_CHARGES


@<TRIPOS>ATOM
      1 C          41.0340  -22.3460  -19.5600 C.2       1 JAI601      0.0000 
      2 N          39.4460  -21.6460  -17.8690 N.am      1 JAI601      0.0000 
      3 O1         41.5310  -21.7300  -20.5370 O.co2     1 JAI601      0.0000 
      4 O2         40.6800  -23.5500  -19.5570 O.co2     1 JAI601      0.0000 
      5 O3         34.8340  -17.8830  -16.4100 O.2       1 JAI601      0.0000 
      6 CA         40.8460  -21.5700  -18.2750 C.3       1 JAI601      0.0000 
      7 CB         41.8670  -21.8810  -17.1640 C.3       1 JAI601      0.0000 
      8 C01        35.7920  -14.4570  -21.9540 C.3       1 JAI601      0.0000 
      9 C02        35.9040  -15.7780  -21.2380 C.3       1 JAI601      0.0000 
     10 C03        35.9170  -15.5830  -19.7390 C.2       1 JAI601      0.0000 
     11 C04        35.8990  -16.5720  -18.8450 C.2       1 JAI601      0.0000 
     12 C05        35.8620  -18.0180  -19.2930 C.3       1 JAI601      0.0000 
     13 C06        36.0590  -18.9520  -18.1000 C.3       1 JAI601      0.0000 
     14 C07        34.9230  -18.8640  -17.1310 C.2       1 JAI601      0.0000 
     15 C09        33.9480  -20.0150  -17.1080 C.3       1 JAI601      0.0000 
     16 C10        34.5720  -21.0620  -18.0360 C.3       1 JAI601      0.0000 
     17 C11        35.9760  -20.4730  -18.2590 C.3       1 JAI601      0.0000 
     18 C12        37.0980  -21.2220  -17.5280 C.3       1 JAI601      0.0000 
     19 C13        38.4350  -20.8060  -18.1260 C.2       1 JAI601      0.0000 
     20 O14        38.5680  -19.7820  -18.7880 O.2       1 JAI601      0.0000 
     21 CD1        41.0630  -19.7810  -15.9840 C.3       1 JAI601      0.0000 
     22 CG1        41.4570  -21.2520  -15.8230 C.3       1 JAI601      0.0000 
     23 CG2        43.3130  -21.7130  -17.6950 C.3       1 JAI601      0.0000 
     24 H          39.2330  -22.5366  -17.2668 H         1 JAI601      0.0000 
     25 H          41.0343  -20.4767  -18.5647 H         1 JAI601      0.0000 
     26 H          41.7416  -23.0270  -17.0148 H         1 JAI601      0.0000 
     27 H          36.8247  -16.2823  -21.5447 H         1 JAI601      0.0000 
     28 H          35.0579  -16.4145  -21.5122 H         1 JAI601      0.0000 
     29 H          35.9423  -14.5689  -19.4512 H         1 JAI601      0.0000 
     30 H          35.9084  -16.4346  -17.8290 H         1 JAI601      0.0000 
     31 H          36.6534  -18.1963  -20.0190 H         1 JAI601      0.0000 
     32 H          34.9012  -18.2323  -19.7579 H         1 JAI601      0.0000 
     33 H          36.9481  -18.7316  -17.5419 H         1 JAI601      0.0000 
     34 H          33.0070  -19.7104  -17.5014 H         1 JAI601      0.0000 
     35 H          33.8717  -20.4154  -16.1247 H         1 JAI601      0.0000 
     36 H          34.0512  -21.0900  -18.9468 H         1 JAI601      0.0000 
     37 H          34.6494  -21.9825  -17.5377 H         1 JAI601      0.0000 
     38 H          36.1931  -20.6582  -19.3834 H         1 JAI601      0.0000 
     39 H          36.9574  -22.2851  -17.6556 H         1 JAI601      0.0000 
     40 H          37.0726  -20.9647  -16.4795 H         1 JAI601      0.0000 
     41 H          42.2928  -21.3260  -15.1254 H         1 JAI601      0.0000 
     42 H          40.6120  -21.8077  -15.4133 H         1 JAI601      0.0000 
     43 H          36.5582  -13.8516  -21.7384 H         1 JAI601      0.0000 
     44 H          35.7803  -14.5727  -22.9472 H         1 JAI601      0.0000 
     45 H          34.9547  -13.9699  -21.7058 H         1 JAI601      0.0000 
     46 H          41.8165  -19.2322  -16.3460 H         1 JAI601      0.0000 
     47 H          40.2917  -19.6695  -16.6107 H         1 JAI601      0.0000 
     48 H          40.7941  -19.3710  -15.1124 H         1 JAI601      0.0000 
     49 H          43.9931  -21.9067  -16.9880 H         1 JAI601      0.0000 
     50 H          43.5017  -22.3290  -18.4598 H         1 JAI601      0.0000 
     51 H          43.4839  -20.7825  -18.0190 H         1 JAI601      0.0000 
@<TRIPOS>BOND
     1    3    1 ar   
     2    4    1 ar   
     3    6    1 1    
     4    6    2 1    
     5   19    2 am   
     6   24    2 1    
     7   14    5 2    
     8    7    6 1    
     9   25    6 1    
    10   22    7 1    
    11   23    7 1    
    12   26    7 1    
    13    9    8 1    
    14   43    8 1    
    15   44    8 1    
    16   45    8 1    
    17   10    9 1    
    18   27    9 1    
    19   28    9 1    
    20   11   10 2    
    21   29   10 1    
    22   12   11 1    
    23   30   11 1    
    24   13   12 1    
    25   31   12 1    
    26   32   12 1    
    27   14   13 1    
    28   17   13 1    
    29   33   13 1    
    30   15   14 1    
    31   16   15 1    
    32   34   15 1    
    33   35   15 1    
    34   17   16 1    
    35   36   16 1    
    36   37   16 1    
    37   18   17 1    
    38   38   17 1    
    39   19   18 1    
    40   39   18 1    
    41   40   18 1    
    42   20   19 2    
    43   22   21 1    
    44   46   21 1    
    45   47   21 1    
    46   48   21 1    
    47   41   22 1    
    48   42   22 1    
    49   49   23 1    
    50   50   23 1    
    51   51   23 1    
@<TRIPOS>SUBSTRUCTURE
     1 JAI601      1 GROUP   
@<TRIPOS>SET

