#    Name: 3GF4_1_CAVITY_N1_6.mol2
#    Modification time : Mon Mar 10 19:02:20 2014

@<TRIPOS>MOLECULE
3GF4_1_CAVITY_N1_6.mol2
  185     0     6     0     0
SMALL
NO_CHARGES


@<TRIPOS>ATOM
      1 N         -22.7146  -43.2819    6.3098 N.2       2 ALA2        0.0000 
      2 N         -23.6182  -43.1274    7.4970 N.2       2 ALA2        0.0000 
      3 CZ        -23.0025  -43.4063    4.2117 C.ar      4 PHE5        0.0000 
      4 DU        -23.9061  -43.2518    5.3990 H         6 CUB7        0.0000 
      5 N         -24.8097  -43.0973    6.5863 N.2       2 ALA2        0.0000 
      6 CZ        -24.1940  -43.3761    3.3010 C.ar      4 PHE5        0.0000 
      7 DU        -25.0976  -43.2216    4.4883 H         6 CUB7        0.0000 
      8 CA        -26.0012  -43.0671    5.6756 C.3       5 GLY6        0.0000 
      9 O         -21.7711  -43.9639   -2.3588 O.2       2 ALA2        0.0000 
     10 CZ        -22.6747  -43.8094   -1.1716 C.ar      4 PHE5        0.0000 
     11 CZ        -24.4819  -43.5004    1.2030 C.ar      4 PHE5        0.0000 
     12 CZ        -25.3855  -43.3459    2.3903 C.ar      4 PHE5        0.0000 
     13 O         -26.2891  -43.1914    3.5776 O.2       2 ALA2        0.0000 
     14 O         -27.1927  -43.0369    4.7649 O.2       2 ALA2        0.0000 
     15 O         -23.8662  -43.7792   -2.0823 O.2       2 ALA2        0.0000 
     16 OG        -24.7698  -43.6247   -0.8950 O.2       1 SER1        0.0000 
     17 OG        -25.6734  -43.4702    0.2923 O.2       1 SER1        0.0000 
     18 DU        -26.5770  -43.3157    1.4796 H         6 CUB7        0.0000 
     19 O         -27.4806  -43.1612    2.6668 O.2       2 ALA2        0.0000 
     20 O         -25.0577  -43.7490   -2.9930 O.2       2 ALA2        0.0000 
     21 DU        -25.9613  -43.5945   -1.8057 H         6 CUB7        0.0000 
     22 DU        -26.8649  -43.4400   -0.6185 H         6 CUB7        0.0000 
     23 DU        -27.7685  -43.2855    0.5688 H         6 CUB7        0.0000 
     24 O         -28.6721  -43.1310    1.7561 O.2       2 ALA2        0.0000 
     25 OG        -26.2492  -43.7188   -3.9038 O.2       1 SER1        0.0000 
     26 O         -27.1528  -43.5643   -2.7165 O.2       2 ALA2        0.0000 
     27 O         -28.0564  -43.4098   -1.5292 O.2       2 ALA2        0.0000 
     28 O         -28.9600  -43.2553   -0.3419 O.2       2 ALA2        0.0000 
     29 O         -29.8636  -43.1008    0.8454 O.2       2 ALA2        0.0000 
     30 O         -30.7672  -42.9463    2.0327 O.2       2 ALA2        0.0000 
     31 CZ        -31.0551  -43.0706   -0.0654 C.ar      4 PHE5        0.0000 
     32 N         -22.1242  -48.4391   -2.0452 N.2       2 ALA2        0.0000 
     33 N         -23.0278  -48.2846   -0.8579 N.2       2 ALA2        0.0000 
     34 N         -23.9314  -48.1301    0.3294 N.2       2 ALA2        0.0000 
     35 OG        -24.8350  -47.9755    1.5166 O.2       1 SER1        0.0000 
     36 NZ        -25.7386  -47.8210    2.7039 N.2       3 LYS4        0.0000 
     37 NZ        -26.6422  -47.6665    3.8912 N.2       3 LYS4        0.0000 
     38 O         -27.5458  -47.5120    5.0785 O.2       2 ALA2        0.0000 
     39 N         -23.3157  -48.4089   -2.9559 N.2       2 ALA2        0.0000 
     40 N         -24.2193  -48.2544   -1.7687 N.2       2 ALA2        0.0000 
     41 N         -25.1229  -48.0999   -0.5814 N.2       2 ALA2        0.0000 
     42 OG        -26.0265  -47.9454    0.6059 O.2       1 SER1        0.0000 
     43 OG        -26.9301  -47.7909    1.7932 O.2       1 SER1        0.0000 
     44 CZ        -27.8337  -47.6363    2.9805 C.ar      4 PHE5        0.0000 
     45 O         -28.7373  -47.4818    4.1678 O.2       2 ALA2        0.0000 
     46 CZ        -25.4108  -48.2242   -2.6794 C.ar      4 PHE5        0.0000 
     47 OG        -26.3144  -48.0697   -1.4921 O.2       1 SER1        0.0000 
     48 OG        -27.2180  -47.9152   -0.3048 O.2       1 SER1        0.0000 
     49 OG        -28.1216  -47.7607    0.8825 O.2       1 SER1        0.0000 
     50 CZ        -29.0252  -47.6062    2.0697 C.ar      4 PHE5        0.0000 
     51 O         -29.9288  -47.4517    3.2570 O.2       2 ALA2        0.0000 
     52 CZ        -30.2167  -47.5760    1.1590 C.ar      4 PHE5        0.0000 
     53 CZ        -31.1203  -47.4215    2.3463 C.ar      4 PHE5        0.0000 
     54 CA        -32.0239  -47.2670    3.5336 C.3       5 GLY6        0.0000 
     55 CZ        -32.3118  -47.3913    1.4356 C.ar      4 PHE5        0.0000 
     56 CA        -33.2154  -47.2368    2.6228 C.3       5 GLY6        0.0000 
     57 NZ        -24.9527  -49.4673    1.6212 N.2       3 LYS4        0.0000 
     58 OG        -26.3416  -40.3323    1.2705 O.2       1 SER1        0.0000 
     59 OG        -26.6295  -40.4566   -0.8275 O.2       1 SER1        0.0000 
     60 DU        -27.5331  -40.3021    0.3597 H         6 CUB7        0.0000 
     61 CA        -28.4367  -40.1476    1.5470 C.3       5 GLY6        0.0000 
     62 CA        -29.3403  -39.9931    2.7343 C.3       5 GLY6        0.0000 
     63 CZ        -28.7246  -40.2719   -0.5510 C.ar      4 PHE5        0.0000 
     64 CA        -29.6282  -40.1174    0.6363 C.3       5 GLY6        0.0000 
     65 CZ        -29.9160  -40.2417   -1.4617 C.ar      4 PHE5        0.0000 
     66 O         -30.8196  -40.0872   -0.2744 O.2       2 ALA2        0.0000 
     67 CA        -22.5969  -41.7902    6.2052 C.3       5 GLY6        0.0000 
     68 N         -23.5005  -41.6357    7.3925 N.2       2 ALA2        0.0000 
     69 CA        -23.7884  -41.7600    5.2945 C.3       5 GLY6        0.0000 
     70 N         -24.6920  -41.6055    6.4818 N.2       2 ALA2        0.0000 
     71 CA        -24.9799  -41.7299    4.3838 C.3       5 GLY6        0.0000 
     72 CA        -25.8835  -41.5754    5.5710 C.3       5 GLY6        0.0000 
     73 OG        -25.2678  -41.8542    2.2857 O.2       1 SER1        0.0000 
     74 CA        -26.1714  -41.6997    3.4730 C.3       5 GLY6        0.0000 
     75 CA        -27.0750  -41.5452    4.6603 C.3       5 GLY6        0.0000 
     76 OG        -26.4593  -41.8240    1.3750 O.2       1 SER1        0.0000 
     77 CA        -27.3629  -41.6695    2.5623 C.3       5 GLY6        0.0000 
     78 CA        -28.2665  -41.5150    3.7496 C.3       5 GLY6        0.0000 
     79 OG        -25.8436  -42.1028   -1.9103 O.2       1 SER1        0.0000 
     80 OG        -26.7472  -41.9483   -0.7230 O.2       1 SER1        0.0000 
     81 DU        -27.6508  -41.7938    0.4643 H         6 CUB7        0.0000 
     82 DU        -28.5544  -41.6393    1.6516 H         6 CUB7        0.0000 
     83 O         -29.4580  -41.4848    2.8388 O.2       2 ALA2        0.0000 
     84 O         -27.9387  -41.9181   -1.6337 O.2       2 ALA2        0.0000 
     85 O         -28.8423  -41.7636   -0.4464 O.2       2 ALA2        0.0000 
     86 DU        -29.7459  -41.6091    0.7408 H         6 CUB7        0.0000 
     87 CA        -30.6495  -41.4546    1.9281 C.3       5 GLY6        0.0000 
     88 O         -30.0338  -41.7334   -1.3572 O.2       2 ALA2        0.0000 
     89 O         -30.9373  -41.5789   -0.1699 O.2       2 ALA2        0.0000 
     90 CA        -31.8409  -41.4244    1.0174 C.3       5 GLY6        0.0000 
     91 CZ        -26.5118  -38.9649   -0.9321 C.ar      4 PHE5        0.0000 
     92 CA        -27.4154  -38.8104    0.2552 C.3       5 GLY6        0.0000 
     93 CA        -28.3190  -38.6559    1.4425 C.3       5 GLY6        0.0000 
     94 CZ        -28.6069  -38.7802   -0.6555 C.ar      4 PHE5        0.0000 
     95 DU        -29.5104  -38.6257    0.5317 H         6 CUB7        0.0000 
     96 CZ        -30.4140  -38.4712    1.7190 C.ar      4 PHE5        0.0000 
     97 CZ        -29.7983  -38.7500   -1.5663 C.ar      4 PHE5        0.0000 
     98 OG        -30.7019  -38.5955   -0.3790 O.2       1 SER1        0.0000 
     99 CZ        -31.6055  -38.4410    0.8083 C.ar      4 PHE5        0.0000 
    100 O         -24.2990  -37.6579   -1.3132 O.2       2 ALA2        0.0000 
    101 CA        -25.2026  -37.5033   -0.1259 C.3       5 GLY6        0.0000 
    102 CA        -26.1062  -37.3488    1.0614 C.3       5 GLY6        0.0000 
    103 CZ        -26.3941  -37.4732   -1.0366 C.ar      4 PHE5        0.0000 
    104 CZ        -27.2977  -37.3187    0.1507 C.ar      4 PHE5        0.0000 
    105 CZ        -28.2013  -37.1641    1.3379 C.ar      4 PHE5        0.0000 
    106 CZ        -28.4891  -37.2885   -0.7601 C.ar      4 PHE5        0.0000 
    107 OG        -29.3927  -37.1340    0.4272 O.2       1 SER1        0.0000 
    108 CZ        -22.8323  -44.7737    6.4143 C.ar      4 PHE5        0.0000 
    109 DU        -23.7359  -44.6192    7.6016 H         6 CUB7        0.0000 
    110 CZ        -24.0238  -44.7435    5.5036 C.ar      4 PHE5        0.0000 
    111 DU        -24.9274  -44.5890    6.6909 H         6 CUB7        0.0000 
    112 CA        -25.8310  -44.4345    7.8781 C.3       5 GLY6        0.0000 
    113 N         -20.6973  -45.4858   -1.3436 N.2       2 ALA2        0.0000 
    114 CZ        -21.6009  -45.3313   -0.1563 C.ar      4 PHE5        0.0000 
    115 CZ        -22.5045  -45.1768    1.0310 C.ar      4 PHE5        0.0000 
    116 CZ        -23.4081  -45.0223    2.2183 C.ar      4 PHE5        0.0000 
    117 CZ        -24.3117  -44.8678    3.4056 C.ar      4 PHE5        0.0000 
    118 DU        -25.2153  -44.7133    4.5928 H         6 CUB7        0.0000 
    119 O         -26.1189  -44.5588    5.7801 O.2       2 ALA2        0.0000 
    120 O         -20.9852  -45.6101   -3.4416 O.2       2 ALA2        0.0000 
    121 O         -21.8888  -45.4556   -2.2543 O.2       2 ALA2        0.0000 
    122 DU        -22.7924  -45.3011   -1.0670 H         6 CUB7        0.0000 
    123 CZ        -23.6960  -45.1466    0.1203 C.ar      4 PHE5        0.0000 
    124 CZ        -24.5996  -44.9921    1.3075 C.ar      4 PHE5        0.0000 
    125 DU        -25.5032  -44.8376    2.4948 H         6 CUB7        0.0000 
    126 O         -26.4068  -44.6831    3.6821 O.2       2 ALA2        0.0000 
    127 O         -23.9839  -45.2709   -1.9777 O.2       2 ALA2        0.0000 
    128 DU        -24.8875  -45.1164   -0.7905 H         6 CUB7        0.0000 
    129 DU        -25.7911  -44.9619    0.3968 H         6 CUB7        0.0000 
    130 DU        -26.6947  -44.8074    1.5841 H         6 CUB7        0.0000 
    131 O         -27.5983  -44.6529    2.7714 O.2       2 ALA2        0.0000 
    132 O         -25.1754  -45.2407   -2.8885 O.2       2 ALA2        0.0000 
    133 DU        -26.0790  -45.0862   -1.7012 H         6 CUB7        0.0000 
    134 DU        -26.9826  -44.9317   -0.5139 H         6 CUB7        0.0000 
    135 DU        -27.8862  -44.7772    0.6734 H         6 CUB7        0.0000 
    136 O         -28.7898  -44.6227    1.8607 O.2       2 ALA2        0.0000 
    137 OG        -27.2705  -45.0561   -2.6119 O.2       1 SER1        0.0000 
    138 OG        -28.1741  -44.9015   -1.4246 O.2       1 SER1        0.0000 
    139 CZ        -29.0777  -44.7470   -0.2374 C.ar      4 PHE5        0.0000 
    140 O         -29.9813  -44.5925    0.9499 O.2       2 ALA2        0.0000 
    141 O         -30.8849  -44.4380    2.1372 O.2       2 ALA2        0.0000 
    142 O         -30.2692  -44.7169   -1.1481 O.2       2 ALA2        0.0000 
    143 CZ        -31.1728  -44.5623    0.0392 C.ar      4 PHE5        0.0000 
    144 O         -32.9800  -44.2533    2.4138 O.2       2 ALA2        0.0000 
    145 O         -33.8835  -44.0988    3.6010 O.2       2 ALA2        0.0000 
    146 CZ        -24.1415  -46.2352    5.6081 C.ar      4 PHE5        0.0000 
    147 DU        -25.0451  -46.0807    6.7954 H         6 CUB7        0.0000 
    148 CZ        -21.7186  -46.8230   -0.0517 C.ar      4 PHE5        0.0000 
    149 CZ        -24.4294  -46.3595    3.5101 C.ar      4 PHE5        0.0000 
    150 DU        -25.3330  -46.2050    4.6974 H         6 CUB7        0.0000 
    151 O         -26.2366  -46.0505    5.8847 O.2       2 ALA2        0.0000 
    152 CA        -27.1402  -45.8960    7.0720 C.3       5 GLY6        0.0000 
    153 CA        -21.1029  -47.1019   -3.3370 C.3       5 GLY6        0.0000 
    154 CA        -22.0065  -46.9473   -2.1498 C.3       5 GLY6        0.0000 
    155 CZ        -22.9101  -46.7928   -0.9625 C.ar      4 PHE5        0.0000 
    156 CZ        -23.8137  -46.6383    0.2248 C.ar      4 PHE5        0.0000 
    157 CZ        -24.7173  -46.4838    1.4121 C.ar      4 PHE5        0.0000 
    158 DU        -25.6209  -46.3293    2.5994 H         6 CUB7        0.0000 
    159 O         -22.2944  -47.0717   -4.2478 O.2       2 ALA2        0.0000 
    160 O         -23.1980  -46.9172   -3.0605 O.2       2 ALA2        0.0000 
    161 O         -24.1016  -46.7627   -1.8732 O.2       2 ALA2        0.0000 
    162 DU        -25.0052  -46.6081   -0.6859 H         6 CUB7        0.0000 
    163 DU        -25.9088  -46.4536    0.5014 H         6 CUB7        0.0000 
    164 DU        -26.8124  -46.2991    1.6886 H         6 CUB7        0.0000 
    165 O         -27.7160  -46.1446    2.8759 O.2       2 ALA2        0.0000 
    166 O         -25.2931  -46.7325   -2.7839 O.2       2 ALA2        0.0000 
    167 OG        -26.1967  -46.5780   -1.5967 O.2       1 SER1        0.0000 
    168 OG        -27.1003  -46.4235   -0.4094 O.2       1 SER1        0.0000 
    169 DU        -28.0039  -46.2689    0.7779 H         6 CUB7        0.0000 
    170 O         -28.9075  -46.1144    1.9652 O.2       2 ALA2        0.0000 
    171 CZ        -29.1954  -46.2388   -0.1328 C.ar      4 PHE5        0.0000 
    172 CZ        -30.0990  -46.0843    1.0545 C.ar      4 PHE5        0.0000 
    173 O         -31.0026  -45.9297    2.2417 O.2       2 ALA2        0.0000 
    174 O         -31.9062  -45.7752    3.4290 O.2       2 ALA2        0.0000 
    175 CZ        -31.2905  -46.0541    0.1437 C.ar      4 PHE5        0.0000 
    176 CZ        -32.1941  -45.8996    1.3310 C.ar      4 PHE5        0.0000 
    177 CZ        -33.0977  -45.7451    2.5183 C.ar      4 PHE5        0.0000 
    178 CZ        -22.7399  -48.1602    1.2401 C.ar      4 PHE5        0.0000 
    179 N         -23.6435  -48.0057    2.4274 N.2       2 ALA2        0.0000 
    180 N         -24.5471  -47.8512    3.6146 N.2       2 ALA2        0.0000 
    181 NZ        -25.4507  -47.6967    4.8019 N.2       3 LYS4        0.0000 
    182 CZ        -23.8934  -36.0418    0.6803 C.ar      4 PHE5        0.0000 
    183 CA        -24.1813  -36.1661   -1.4177 C.3       5 GLY6        0.0000 
    184 CZ        -25.0849  -36.0116   -0.2304 C.ar      4 PHE5        0.0000 
    185 N         -26.2764  -35.9814   -1.1412 N.2       2 ALA2        0.0000 
@<TRIPOS>BOND
@<TRIPOS>SUBSTRUCTURE
     1 SER1       16 GROUP   
     2 ALA2        1 GROUP   
     3 LYS4       36 GROUP   
     4 PHE5        3 GROUP   
     5 GLY6        8 GROUP   
     6 CUB7        4 GROUP   
@<TRIPOS>SET

