#    Name: 3gf4_UPG_1_INTS_M
#    Modification time : Tue Mar 25 07:42:30 2014

@<TRIPOS>MOLECULE
3gf4_UPG_1_INTS_M
   52     0     9     0     0
SMALL
NO_CHARGES


@<TRIPOS>ATOM
      1 O         -27.0545  -34.6940   -2.2790 O.2       1 ALC1        0.0000 
      2 O         -27.0180  -36.1280   -1.9120 O.2       7 ALL1        0.0000 
      3 O         -27.0910  -33.2600   -2.6460 O.2       4 ALP1        0.0000 
      4 CA        -26.0890  -38.4745    1.3330 C.3       3 GLC5        0.0000 
      5 CA        -26.8920  -38.5710   -0.5710 C.3       9 GLL5        0.0000 
      6 CA        -25.2860  -38.3780    3.2370 C.3       6 GLP5        0.0000 
      7 N         -24.2885  -37.5945   -3.3150 N.am      2 SEC2        0.0000 
      8 N         -25.0660  -36.4620   -2.7560 N.am      8 SEL2        0.0000 
      9 N         -23.5110  -38.7270   -3.8740 N.am      5 SEP2        0.0000 
     10 CA        -30.8380  -37.2145    1.4525 C.3       3 GLC5        0.0000 
     11 CA        -29.1600  -38.0920    0.3850 C.3       9 GLL5        0.0000 
     12 CA        -32.5160  -36.3370    2.5200 C.3       6 GLP5        0.0000 
     13 CA        -28.5285  -36.1385    0.8640 C.3       3 GLC5        0.0000 
     14 CA        -27.8970  -34.1850    1.3430 C.3       6 GLP5        0.0000 
     15 N         -32.5840  -39.6860   -0.6640 N.am      2 SEC2        0.0000 
     16 N         -31.4630  -38.4150   -0.3420 N.am      8 SEL2        0.0000 
     17 N         -33.7050  -40.9570   -0.9860 N.am      5 SEP2        0.0000 
     18 O         -31.7735  -37.1660   -0.6880 O.2       1 ALC1        0.0000 
     19 O         -31.4630  -38.4150   -0.3420 O.2       7 ALL1        0.0000 
     20 O         -32.0840  -35.9170   -1.0340 O.2       4 ALP1        0.0000 
     21 CA        -28.9905  -39.7020   -2.0080 C.3       3 GLC5        0.0000 
     22 CA        -29.8120  -40.2830   -0.1780 C.3       9 GLL5        0.0000 
     23 CA        -28.1690  -39.1210   -3.8380 C.3       6 GLP5        0.0000 
     24 N         -32.2755  -41.0690   -0.7595 N.am      2 SEC2        0.0000 
     25 N         -30.8460  -41.1810   -0.5330 N.am      8 SEL2        0.0000 
     26 N         -24.4975  -41.4350    0.1565 N.am      2 SEC2        0.0000 
     27 N         -25.4750  -42.2930   -0.1980 N.am      8 SEL2        0.0000 
     28 N         -23.5200  -40.5770    0.5110 N.am      5 SEP2        0.0000 
     29 N         -24.5665  -41.6580    1.4000 N.am      2 SEC2        0.0000 
     30 N         -25.6130  -42.7390    2.2890 N.am      8 SEL2        0.0000 
     31 CA        -26.1040  -48.8625   -2.9500 C.3       3 GLC5        0.0000 
     32 CA        -25.5320  -46.7880   -2.6140 C.3       9 GLL5        0.0000 
     33 CA        -26.6760  -50.9370   -3.2860 C.3       6 GLP5        0.0000 
     34 O         -27.8670  -47.4540   -3.1210 O.2       1 ALC1        0.0000 
     35 O         -26.7090  -47.6250   -2.6360 O.2       7 ALL1        0.0000 
     36 O         -29.0250  -47.2830   -3.6060 O.2       4 ALP1        0.0000 
     37 O         -24.4970  -49.9585   -1.8470 O.2       1 ALC1        0.0000 
     38 O         -24.0240  -48.6230   -2.0290 O.2       7 ALL1        0.0000 
     39 O         -24.9700  -51.2940   -1.6650 O.2       4 ALP1        0.0000 
     40 CA        -27.2643  -38.7345   -2.4030 C.3       3 GLC5        0.0000 
     41 CA        -29.1883  -38.1827   -1.9610 C.3       3 GLC5        0.0000 
     42 CA        -30.1050  -38.8350   -0.5510 C.3       9 GLL5        0.0000 
     43 CA        -28.7440  -37.9020   -3.8390 C.3       6 GLP5        0.0000 
     44 CA        -28.2197  -39.8550    3.0680 C.3       3 GLC5        0.0000 
     45 CA        -29.5200  -40.2230    1.3140 C.3       9 GLL5        0.0000 
     46 CA        -27.3690  -38.9240    4.5610 C.3       6 GLP5        0.0000 
     47 CA        -30.8797  -40.4990    2.1795 C.3       3 GLC5        0.0000 
     48 CA        -28.6210  -41.3490    1.8360 C.3       9 GLL5        0.0000 
     49 CA        -32.6160  -40.1970    3.1570 C.3       6 GLP5        0.0000 
     50 CA        -22.7162  -43.3683    0.2440 C.3       3 GLC5        0.0000 
     51 CA        -23.8140  -44.9480   -1.1010 C.3       9 GLL5        0.0000 
     52 CA        -22.2060  -42.2790    1.5860 C.3       6 GLP5        0.0000 
@<TRIPOS>BOND
@<TRIPOS>SUBSTRUCTURE
     1 ALC1        1 GROUP        1 X    ALC  0     ROOT ALC X 1
     2 SEC2        7 GROUP        1 X    SEC  0     **** SEC X 2
     3 GLC5        4 GROUP        1 X    GLC  0     **** GLC X 6
     4 ALP1        3 GROUP        1 Y    ALP  0     ROOT ALP Y 8
     5 SEP2        9 GROUP        1 Y    SEP  0     **** SEP Y 9
     6 GLP5        6 GROUP        1 Y    GLP  0     **** GLP Y 13
     7 ALL1        2 GROUP        1 Z    ALL  0     ROOT ALL Z 15
     8 SEL2        8 GROUP        1 Z    SEL  0     **** SEL Z 16
     9 GLL5        5 GROUP        1 Z    GLL  0     **** GLL Z 20
@<TRIPOS>SET

