#    Name: 3gf4_UPG_1_ligand
#    Modification time : Tue Mar 25 07:42:30 2014

@<TRIPOS>MOLECULE
3gf4_UPG_1_ligand
   58    60     1     0     0
SMALL
NO_CHARGES


@<TRIPOS>ATOM
      1 N1        -27.9760  -37.7540   -0.4150 N.am      1 UPG392      0.0000 
      2 C2        -28.0290  -36.5290   -1.1320 C.2       1 UPG392      0.0000 
      3 N3        -27.0180  -36.1280   -1.9120 N.am      1 UPG392      0.0000 
      4 C4        -25.9440  -36.8970   -2.0240 C.2       1 UPG392      0.0000 
      5 C5        -25.8270  -38.1250   -1.3650 C.2       1 UPG392      0.0000 
      6 C6        -26.8920  -38.5710   -0.5710 C.2       1 UPG392      0.0000 
      7 O2        -29.0210  -35.8130   -1.0350 O.2       1 UPG392      0.0000 
      8 O4        -25.0660  -36.4620   -2.7560 O.2       1 UPG392      0.0000 
      9 C1C       -29.1600  -38.0920    0.3850 C.3       1 UPG392      0.0000 
     10 C2C       -30.1050  -38.8350   -0.5510 C.3       1 UPG392      0.0000 
     11 O2C       -31.4630  -38.4150   -0.3420 O.3       1 UPG392      0.0000 
     12 C3C       -29.8120  -40.2830   -0.1780 C.3       1 UPG392      0.0000 
     13 C4C       -29.5200  -40.2230    1.3140 C.3       1 UPG392      0.0000 
     14 O4C       -28.8780  -38.9520    1.4930 O.3       1 UPG392      0.0000 
     15 O3C       -30.8460  -41.1810   -0.5330 O.3       1 UPG392      0.0000 
     16 C5C       -28.6210  -41.3490    1.8360 C.3       1 UPG392      0.0000 
     17 O5C       -27.4000  -41.3380    1.0990 O.3       1 UPG392      0.0000 
     18 PA        -26.3640  -42.5450    0.9890 P.3       1 UPG392      0.0000 
     19 O1A       -25.4750  -42.2930   -0.1980 O.co2     1 UPG392      0.0000 
     20 O2A       -25.6130  -42.7390    2.2890 O.co2     1 UPG392      0.0000 
     21 O3A       -27.2060  -43.8790    0.7990 O.3       1 UPG392      0.0000 
     22 PB        -27.7430  -44.1310   -0.6900 P.3       1 UPG392      0.0000 
     23 O1B       -29.2290  -44.4340   -0.5800 O.co2     1 UPG392      0.0000 
     24 O2B       -27.4620  -43.0000   -1.6850 O.co2     1 UPG392      0.0000 
     25 O3B       -26.8470  -45.4050   -1.1320 O.3       1 UPG392      0.0000 
     26 C1'       -25.9340  -45.3580   -2.2690 C.3       1 UPG392      0.0000 
     27 C2'       -25.5320  -46.7880   -2.6140 C.3       1 UPG392      0.0000 
     28 C3'       -24.5160  -47.3510   -1.5760 C.3       1 UPG392      0.0000 
     29 C4'       -23.3280  -46.3860   -1.3770 C.3       1 UPG392      0.0000 
     30 C5'       -23.8140  -44.9480   -1.1010 C.3       1 UPG392      0.0000 
     31 C6'       -22.6390  -43.9670   -1.0950 C.3       1 UPG392      0.0000 
     32 O2'       -26.7090  -47.6250   -2.6360 O.3       1 UPG392      0.0000 
     33 O3'       -24.0240  -48.6230   -2.0290 O.3       1 UPG392      0.0000 
     34 O4'       -22.5270  -46.8380   -0.2750 O.3       1 UPG392      0.0000 
     35 O5'       -24.7570  -44.5570   -2.1100 O.3       1 UPG392      0.0000 
     36 O6'       -21.6010  -44.3250   -2.0510 O.3       1 UPG392      0.0000 
     37 H         -27.0800  -35.2215   -2.4225 H         1 UPG392      0.0000 
     38 H         -24.9836  -38.6858   -1.4597 H         1 UPG392      0.0000 
     39 H         -26.8435  -39.4880   -0.1262 H         1 UPG392      0.0000 
     40 H         -29.6666  -37.1955    0.6925 H         1 UPG392      0.0000 
     41 H         -29.7503  -38.6715   -1.5459 H         1 UPG392      0.0000 
     42 H         -28.8585  -40.5326   -0.6658 H         1 UPG392      0.0000 
     43 H         -30.4580  -40.2350    1.8427 H         1 UPG392      0.0000 
     44 H         -29.1628  -42.2891    1.7163 H         1 UPG392      0.0000 
     45 H         -28.4574  -41.1765    2.9014 H         1 UPG392      0.0000 
     46 H         -26.5053  -45.0037   -3.1599 H         1 UPG392      0.0000 
     47 H         -25.0468  -46.7865   -3.5777 H         1 UPG392      0.0000 
     48 H         -25.0304  -47.4488   -0.6329 H         1 UPG392      0.0000 
     49 H         -22.7523  -46.3737   -2.2912 H         1 UPG392      0.0000 
     50 H         -24.2699  -44.9344   -0.1218 H         1 UPG392      0.0000 
     51 H         -22.2318  -43.9333   -0.0681 H         1 UPG392      0.0000 
     52 H         -23.0388  -42.9592   -1.3091 H         1 UPG392      0.0000 
     53 H         -31.4945  -37.4699   -0.6673 H         1 UPG392      0.0000 
     54 H         -30.6014  -42.0446   -0.0921 H         1 UPG392      0.0000 
     55 H         -27.3858  -47.1060   -3.1580 H         1 UPG392      0.0000 
     56 H         -24.7906  -49.2541   -1.9103 H         1 UPG392      0.0000 
     57 H         -21.6103  -46.9614   -0.6550 H         1 UPG392      0.0000 
     58 H         -21.9292  -45.1627   -2.4876 H         1 UPG392      0.0000 
@<TRIPOS>BOND
     1    2    1 1    
     2    6    1 1    
     3    9    1 1    
     4    3    2 1    
     5    7    2 2    
     6    4    3 1    
     7   37    3 1    
     8    5    4 1    
     9    8    4 2    
    10    6    5 2    
    11   38    5 1    
    12   39    6 1    
    13   10    9 1    
    14   14    9 1    
    15   40    9 1    
    16   11   10 1    
    17   12   10 1    
    18   41   10 1    
    19   53   11 1    
    20   13   12 1    
    21   15   12 1    
    22   42   12 1    
    23   14   13 1    
    24   16   13 1    
    25   43   13 1    
    26   54   15 1    
    27   17   16 1    
    28   44   16 1    
    29   45   16 1    
    30   18   17 1    
    31   19   18 ar   
    32   20   18 ar   
    33   21   18 1    
    34   22   21 1    
    35   23   22 ar   
    36   24   22 ar   
    37   25   22 1    
    38   26   25 1    
    39   27   26 1    
    40   35   26 1    
    41   46   26 1    
    42   28   27 1    
    43   32   27 1    
    44   47   27 1    
    45   29   28 1    
    46   33   28 1    
    47   48   28 1    
    48   30   29 1    
    49   34   29 1    
    50   49   29 1    
    51   31   30 1    
    52   35   30 1    
    53   50   30 1    
    54   36   31 1    
    55   51   31 1    
    56   52   31 1    
    57   55   32 1    
    58   56   33 1    
    59   57   34 1    
    60   58   36 1    
@<TRIPOS>SUBSTRUCTURE
     1 UPG392      1 GROUP   
@<TRIPOS>SET

