#    Name: 3qqf_X07_1_INTS_M
#    Modification time : Tue Mar 25 10:00:52 2014

@<TRIPOS>MOLECULE
3qqf_X07_1_INTS_M
   34     0     9     0     0
SMALL
NO_CHARGES


@<TRIPOS>ATOM
      1 CA         64.3240   43.5575  -47.8635 C.3       3 GLC5        0.0000 
      2 CA         65.4340   44.8760  -46.7160 C.3       9 GLL5        0.0000 
      3 CA         63.2140   42.2390  -49.0110 C.3       6 GLP5        0.0000 
      4 O          63.0650   46.8100  -49.1425 O.2       1 ALC1        0.0000 
      5 O          63.9290   45.9480  -48.3270 O.2       7 ALL1        0.0000 
      6 O          62.2010   47.6720  -49.9580 O.2       4 ALP1        0.0000 
      7 O          66.9030   46.4610  -52.5700 O.2       1 ALC1        0.0000 
      8 O          66.9350   45.8710  -51.2230 O.2       7 ALL1        0.0000 
      9 O          66.8710   47.0510  -53.9170 O.2       4 ALP1        0.0000 
     10 N          64.2605   47.5435  -51.4055 N.am      2 SEC2        0.0000 
     11 N          65.2340   47.2030  -50.4170 N.am      8 SEL2        0.0000 
     12 N          63.2870   47.8840  -52.3940 N.am      5 SEP2        0.0000 
     13 CA         62.9525   44.0270  -48.2735 C.3       3 GLC5        0.0000 
     14 CA         62.6910   45.8150  -47.5360 C.3       9 GLL5        0.0000 
     15 CA         61.1400   48.4825  -48.1270 C.3       3 GLC5        0.0000 
     16 CA         62.6220   48.2440  -46.7390 C.3       9 GLL5        0.0000 
     17 CA         59.6580   48.7210  -49.5150 C.3       6 GLP5        0.0000 
     18 CA         66.4606   46.2551  -45.9521 C.3       3 GLC5        0.0000 
     19 CA         65.9640   47.8890  -44.9980 C.3       6 GLP5        0.0000 
     20 CA         69.0735   46.1665  -47.1445 C.3       3 GLC5        0.0000 
     21 CA         67.8350   44.5940  -47.2670 C.3       9 GLL5        0.0000 
     22 CA         70.4340   47.4140  -46.3990 C.3       6 GLP5        0.0000 
     23 CA         67.9032   46.9657  -49.5060 C.3       3 GLC5        0.0000 
     24 CA         67.5910   45.2440  -48.5130 C.3       9 GLL5        0.0000 
     25 CA         68.8670   48.4480  -50.3020 C.3       6 GLP5        0.0000 
     26 CA         65.8443   46.7602  -46.7220 C.3       3 GLC5        0.0000 
     27 CA         66.2880   45.7230  -48.9070 C.3       9 GLL5        0.0000 
     28 CA         65.2961   44.3984  -49.6237 C.3       3 GLC5        0.0000 
     29 CA         65.1610   45.5400  -47.9850 C.3       9 GLL5        0.0000 
     30 CA         64.5420   43.2850  -50.9000 C.3       6 GLP5        0.0000 
     31 CA         60.6343   45.9881  -46.8253 C.3       3 GLC5        0.0000 
     32 CA         62.3800   46.4500  -45.0850 C.3       9 GLL5        0.0000 
     33 CA         58.7650   45.5850  -47.6130 C.3       6 GLP5        0.0000 
     34 CA         64.2141   47.6504  -45.3104 C.3       3 GLC5        0.0000 
@<TRIPOS>BOND
@<TRIPOS>SUBSTRUCTURE
     1 ALC1        4 GROUP        1 X    ALC  0     ROOT ALC X 1
     2 SEC2       10 GROUP        1 X    SEC  0     **** SEC X 2
     3 GLC5        1 GROUP        1 X    GLC  0     **** GLC X 6
     4 ALP1        6 GROUP        1 Y    ALP  0     ROOT ALP Y 8
     5 SEP2       12 GROUP        1 Y    SEP  0     **** SEP Y 9
     6 GLP5        3 GROUP        1 Y    GLP  0     **** GLP Y 13
     7 ALL1        5 GROUP        1 Z    ALL  0     ROOT ALL Z 15
     8 SEL2       11 GROUP        1 Z    SEL  0     **** SEL Z 16
     9 GLL5        2 GROUP        1 Z    GLL  0     **** GLL Z 20
@<TRIPOS>SET

