#    Name: 3qqf_X07_1_ligand
#    Modification time : Tue Mar 25 10:00:52 2014

@<TRIPOS>MOLECULE
3qqf_X07_1_ligand
   32    33     1     0     0
SMALL
NO_CHARGES


@<TRIPOS>ATOM
      1 C1         65.4340   44.8760  -46.7160 C.ar      1 X07543      0.0000 
      2 C2         66.7250   44.4210  -46.3750 C.ar      1 X07543      0.0000 
      3 C3         67.8350   44.5940  -47.2670 C.ar      1 X07543      0.0000 
      4 C4         67.5910   45.2440  -48.5130 C.ar      1 X07543      0.0000 
      5 C5         66.2880   45.7230  -48.9070 C.ar      1 X07543      0.0000 
      6 C6         65.1610   45.5400  -47.9850 C.ar      1 X07543      0.0000 
      7 N7         63.9290   45.9480  -48.3270 N.pl3     1 X07543      0.0000 
      8 C8         66.1560   46.2640  -50.1740 C.2       1 X07543      0.0000 
      9 N9         66.9350   45.8710  -51.2230 N.am      1 X07543      0.0000 
     10 O10        65.2340   47.2030  -50.4170 O.2       1 X07543      0.0000 
     11 N11        69.0590   44.1660  -46.9520 N.pl3     1 X07543      0.0000 
     12 O12        70.1020   44.3320  -47.7940 O.2       1 X07543      0.0000 
     13 O13        69.2810   43.6070  -45.8860 O.2       1 X07543      0.0000 
     14 C14        62.6910   45.8150  -47.5360 C.3       1 X07543      0.0000 
     15 C15        62.3240   48.7910  -44.3920 C.ar      1 X07543      0.0000 
     16 N16        62.5010   49.1660  -45.7110 N.ar      1 X07543      0.0000 
     17 C17        62.6220   48.2440  -46.7390 C.ar      1 X07543      0.0000 
     18 C18        62.5630   46.8500  -46.4440 C.ar      1 X07543      0.0000 
     19 C19        62.3800   46.4500  -45.0850 C.ar      1 X07543      0.0000 
     20 C20        62.2600   47.4160  -44.0540 C.ar      1 X07543      0.0000 
     21 H          64.6498   44.7451  -46.0646 H         1 X07543      0.0000 
     22 H          66.8837   43.9559  -45.4735 H         1 X07543      0.0000 
     23 H          68.3798   45.3816  -49.1691 H         1 X07543      0.0000 
     24 H          63.7756   46.4326  -49.2761 H         1 X07543      0.0000 
     25 H          67.6274   45.1782  -51.0216 H         1 X07543      0.0000 
     26 H          66.7450   46.3103  -52.1010 H         1 X07543      0.0000 
     27 H          62.6438   44.8089  -47.0751 H         1 X07543      0.0000 
     28 H          61.8082   45.8930  -48.2005 H         1 X07543      0.0000 
     29 H          62.2379   49.4918  -43.6510 H         1 X07543      0.0000 
     30 H          62.7528   48.5424  -47.7056 H         1 X07543      0.0000 
     31 H          62.3356   45.4535  -44.8575 H         1 X07543      0.0000 
     32 H          62.1308   47.1282  -43.0928 H         1 X07543      0.0000 
@<TRIPOS>BOND
     1    2    1 ar   
     2    6    1 ar   
     3   21    1 1    
     4    3    2 ar   
     5   22    2 1    
     6    4    3 ar   
     7   11    3 1    
     8    5    4 ar   
     9   23    4 1    
    10    6    5 ar   
    11    8    5 1    
    12    7    6 1    
    13   14    7 1    
    14   24    7 1    
    15    9    8 am   
    16   10    8 2    
    17   25    9 1    
    18   26    9 1    
    19   12   11 2    
    20   13   11 2    
    21   18   14 1    
    22   27   14 1    
    23   28   14 1    
    24   16   15 ar   
    25   20   15 ar   
    26   29   15 1    
    27   17   16 ar   
    28   18   17 ar   
    29   30   17 1    
    30   19   18 ar   
    31   20   19 ar   
    32   31   19 1    
    33   32   20 1    
@<TRIPOS>SUBSTRUCTURE
     1 X07543      1 GROUP   
@<TRIPOS>SET

