#    Name: 3ox1_695_2_INTS_M
#    Modification time : Tue Mar 25 05:32:25 2014

@<TRIPOS>MOLECULE
3ox1_695_2_INTS_M
   37     0     6     0     0
SMALL
NO_CHARGES


@<TRIPOS>ATOM
      1 N          20.3120  -21.7960  -15.9485 N.am      1 SEC2        0.0000 
      2 N          21.1670  -21.0230  -16.0880 N.am      5 SEL2        0.0000 
      3 N          19.4570  -22.5690  -15.8090 N.am      3 SEP2        0.0000 
      4 CA         22.8205  -22.9350  -11.6030 C.3       2 GLC5        0.0000 
      5 CA         21.8790  -22.1500  -13.2660 C.3       6 GLL5        0.0000 
      6 CA         23.7620  -23.7200   -9.9400 C.3       4 GLP5        0.0000 
      7 CA         20.6170  -22.6025  -11.7080 C.3       2 GLC5        0.0000 
      8 CA         19.3550  -23.0550  -10.1500 C.3       4 GLP5        0.0000 
      9 CA         21.8360  -20.8825  -11.9780 C.3       2 GLC5        0.0000 
     10 CA         21.7930  -19.6150  -10.6900 C.3       4 GLP5        0.0000 
     11 CA         22.7295  -23.2315  -14.9480 C.3       2 GLC5        0.0000 
     12 CA         23.5800  -24.3130  -16.6300 C.3       4 GLP5        0.0000 
     13 CA         21.2700  -23.9035  -13.3270 C.3       2 GLC5        0.0000 
     14 CA         20.6610  -25.6570  -13.3880 C.3       4 GLP5        0.0000 
     15 CA         24.3500  -14.9445  -16.5695 C.3       2 GLC5        0.0000 
     16 CA         25.0820  -15.7910  -15.1000 C.3       6 GLL5        0.0000 
     17 CA         23.6180  -14.0980  -18.0390 C.3       4 GLP5        0.0000 
     18 CA         26.3330  -17.1105  -10.6160 C.3       2 GLC5        0.0000 
     19 CA         26.8790  -18.5900  -11.5530 C.3       6 GLL5        0.0000 
     20 CA         25.7870  -15.6310   -9.6790 C.3       4 GLP5        0.0000 
     21 CA         27.9035  -17.8770   -9.6895 C.3       2 GLC5        0.0000 
     22 CA         28.9280  -17.1640   -7.8260 C.3       4 GLP5        0.0000 
     23 CA         28.7335  -19.6005  -11.2355 C.3       2 GLC5        0.0000 
     24 CA         30.5880  -20.6110  -10.9180 C.3       4 GLP5        0.0000 
     25 CA         26.2805  -20.2845  -10.2300 C.3       2 GLC5        0.0000 
     26 CA         25.6820  -21.9790   -8.9070 C.3       4 GLP5        0.0000 
     27 CA         24.8205  -18.5975  -11.1340 C.3       2 GLC5        0.0000 
     28 CA         22.7620  -18.6050  -10.7150 C.3       4 GLP5        0.0000 
     29 CA         22.6157  -14.9483  -15.4162 C.3       2 GLC5        0.0000 
     30 CA         23.7940  -15.6750  -14.2920 C.3       6 GLL5        0.0000 
     31 CA         21.5650  -14.8360  -16.8450 C.3       4 GLP5        0.0000 
     32 CA         21.7482  -14.8000  -14.8420 C.3       2 GLC5        0.0000 
     33 CA         22.3920  -14.2490  -12.9180 C.3       6 GLL5        0.0000 
     34 CA         22.1155  -16.0634  -15.5461 C.3       2 GLC5        0.0000 
     35 CA         21.6990  -16.5120  -13.3730 C.3       6 GLL5        0.0000 
     36 CA         25.7900  -15.5938  -12.8365 C.3       2 GLC5        0.0000 
     37 CA         26.0070  -14.8550  -10.8140 C.3       4 GLP5        0.0000 
@<TRIPOS>BOND
@<TRIPOS>SUBSTRUCTURE
     1 SEC2        1 GROUP        1 X    SEC  0     ROOT SEC X 2
     2 GLC5        4 GROUP        1 X    GLC  0     **** GLC X 6
     3 SEP2        3 GROUP        1 Y    SEP  0     ROOT SEP Y 9
     4 GLP5        6 GROUP        1 Y    GLP  0     **** GLP Y 13
     5 SEL2        2 GROUP        1 Z    SEL  0     ROOT SEL Z 16
     6 GLL5        5 GROUP        1 Z    GLL  0     **** GLL Z 20
@<TRIPOS>SET

