#    Name: 3ox1_695_2_ligand
#    Modification time : Tue Mar 25 05:32:26 2014

@<TRIPOS>MOLECULE
3ox1_695_2_ligand
   39    40     1     0     0
SMALL
NO_CHARGES


@<TRIPOS>ATOM
      1 C1         23.7940  -15.6750  -14.2920 C.ar      1 695234      0.0000 
      2 N1         22.8490  -21.4490  -14.0840 N.pl3     1 695234      0.0000 
      3 O1         21.1670  -21.0230  -16.0880 O.2       1 695234      0.0000 
      4 S1         22.4310  -20.4240  -15.2590 S.o2      1 695234      0.0000 
      5 C2         23.5390  -14.4460  -13.6830 C.ar      1 695234      0.0000 
      6 N2         26.3200  -16.8720  -13.1820 N.am      1 695234      0.0000 
      7 O2         23.7610  -20.2330  -16.2000 O.2       1 695234      0.0000 
      8 C3         22.3920  -14.2490  -12.9180 C.ar      1 695234      0.0000 
      9 O3         28.4780  -17.3860  -12.8570 O.2       1 695234      0.0000 
     10 C4         21.4710  -15.2790  -12.7600 C.ar      1 695234      0.0000 
     11 C5         21.6990  -16.5120  -13.3730 C.ar      1 695234      0.0000 
     12 C6         22.8570  -16.7170  -14.1440 C.ar      1 695234      0.0000 
     13 C7         23.0540  -17.9670  -14.7360 C.ar      1 695234      0.0000 
     14 C8         22.1240  -18.9980  -14.5760 C.ar      1 695234      0.0000 
     15 C9         20.9750  -18.7810  -13.8080 C.ar      1 695234      0.0000 
     16 C10        20.7630  -17.5320  -13.2050 C.ar      1 695234      0.0000 
     17 C13        21.8790  -22.1500  -13.2660 C.3       1 695234      0.0000 
     18 C16        25.0820  -15.7910  -15.1000 C.3       1 695234      0.0000 
     19 C17        26.0640  -16.8740  -14.6180 C.3       1 695234      0.0000 
     20 C19        27.3000  -17.5720  -12.5860 C.2       1 695234      0.0000 
     21 C20        26.8790  -18.5900  -11.5530 C.3       1 695234      0.0000 
     22 H          23.8426  -21.5614  -13.9660 H         1 695234      0.0000 
     23 H          24.2124  -13.6702  -13.8020 H         1 695234      0.0000 
     24 H          25.6672  -16.2662  -12.6130 H         1 695234      0.0000 
     25 H          22.2262  -13.3380  -12.4685 H         1 695234      0.0000 
     26 H          20.6267  -15.1354  -12.1956 H         1 695234      0.0000 
     27 H          23.9031  -18.1327  -15.3029 H         1 695234      0.0000 
     28 H          20.2889  -19.5311  -13.6851 H         1 695234      0.0000 
     29 H          19.9210  -17.3735  -12.6431 H         1 695234      0.0000 
     30 H          25.6040  -14.8147  -15.0888 H         1 695234      0.0000 
     31 H          24.8270  -15.9950  -16.1579 H         1 695234      0.0000 
     32 H          25.6594  -17.8586  -14.9422 H         1 695234      0.0000 
     33 H          27.0121  -16.7401  -15.1849 H         1 695234      0.0000 
     34 H          22.3204  -22.7415  -12.5912 H         1 695234      0.0000 
     35 H          21.2920  -21.5169  -12.7614 H         1 695234      0.0000 
     36 H          21.2791  -22.7304  -13.8166 H         1 695234      0.0000 
     37 H          27.6649  -19.0684  -11.1612 H         1 695234      0.0000 
     38 H          26.3854  -18.1662  -10.7936 H         1 695234      0.0000 
     39 H          26.2761  -19.2865  -11.9421 H         1 695234      0.0000 
@<TRIPOS>BOND
     1    5    1 ar   
     2   12    1 ar   
     3   18    1 1    
     4    4    2 1    
     5   17    2 1    
     6   22    2 1    
     7    4    3 2    
     8    7    4 2    
     9   14    4 1    
    10    8    5 ar   
    11   23    5 1    
    12   19    6 1    
    13   20    6 am   
    14   24    6 1    
    15   10    8 ar   
    16   25    8 1    
    17   20    9 2    
    18   11   10 ar   
    19   26   10 1    
    20   12   11 ar   
    21   16   11 ar   
    22   13   12 ar   
    23   14   13 ar   
    24   27   13 1    
    25   15   14 ar   
    26   16   15 ar   
    27   28   15 1    
    28   29   16 1    
    29   34   17 1    
    30   35   17 1    
    31   36   17 1    
    32   19   18 1    
    33   30   18 1    
    34   31   18 1    
    35   32   19 1    
    36   33   19 1    
    37   21   20 1    
    38   37   21 1    
    39   38   21 1    
    40   39   21 1    
@<TRIPOS>SUBSTRUCTURE
     1 695234      1 GROUP   
@<TRIPOS>SET

