#    Name: 3w0h_W12_1_INTS_M
#    Modification time : Tue Mar 25 01:55:31 2014

@<TRIPOS>MOLECULE
3w0h_W12_1_INTS_M
  113     0     9     0     0
SMALL
NO_CHARGES


@<TRIPOS>ATOM
      1 CA        -12.2695    9.3070  -12.9755 C.3       3 GLC5        0.0000 
      2 CA        -11.5970    7.3880  -12.1210 C.3       9 GLL5        0.0000 
      3 CA        -12.9420   11.2260  -13.8300 C.3       6 GLP5        0.0000 
      4 CA         -6.9565    3.9465  -16.4260 C.3       3 GLC5        0.0000 
      5 CA         -7.8430    3.2230  -14.7460 C.3       9 GLL5        0.0000 
      6 CA         -6.0700    4.6700  -18.1060 C.3       6 GLP5        0.0000 
      7 CA        -10.5085    8.4550  -15.2960 C.3       3 GLC5        0.0000 
      8 CA         -9.7090    7.1450  -14.2070 C.3       9 GLL5        0.0000 
      9 CA        -11.3080    9.7650  -16.3850 C.3       6 GLP5        0.0000 
     10 CA         -3.3345    2.3735  -13.3720 C.3       3 GLC5        0.0000 
     11 CA         -4.4620    0.5930  -12.5920 C.3       9 GLL5        0.0000 
     12 CA         -2.2070    4.1540  -14.1520 C.3       6 GLP5        0.0000 
     13 CA         -1.0280    0.3940  -10.7285 C.3       3 GLC5        0.0000 
     14 CA         -2.6020   -0.7700  -11.6920 C.3       9 GLL5        0.0000 
     15 CA          0.5460    1.5580   -9.7650 C.3       6 GLP5        0.0000 
     16 CA         -3.1265   -2.7135  -11.8035 C.3       3 GLC5        0.0000 
     17 CA         -3.6510   -4.6570  -11.9150 C.3       6 GLP5        0.0000 
     18 CA         -1.4740   -1.0235   -9.9625 C.3       3 GLC5        0.0000 
     19 CA         -0.3460   -1.2770   -8.2330 C.3       6 GLP5        0.0000 
     20 CA         -6.6220   -0.4575   -9.3210 C.3       3 GLC5        0.0000 
     21 CA         -4.7990   -0.7790  -10.5160 C.3       9 GLL5        0.0000 
     22 CA         -8.4450   -0.1360   -8.1260 C.3       6 GLP5        0.0000 
     23 CA         -4.2250   -2.7180  -11.2155 C.3       3 GLC5        0.0000 
     24 CA         -4.7445   -2.0635   -8.7145 C.3       3 GLC5        0.0000 
     25 CA         -4.6900   -3.3480   -6.9130 C.3       6 GLP5        0.0000 
     26 CA         -6.3930   -2.1170  -10.1080 C.3       3 GLC5        0.0000 
     27 CA         -7.9870   -3.4550   -9.7000 C.3       6 GLP5        0.0000 
     28 CA        -12.7615    3.1965  -12.4600 C.3       3 GLC5        0.0000 
     29 CA        -12.2490    4.3200  -14.3170 C.3       9 GLL5        0.0000 
     30 CA        -13.2740    2.0730  -10.6030 C.3       6 GLP5        0.0000 
     31 CA        -14.7795    3.0615  -14.7725 C.3       3 GLC5        0.0000 
     32 CA        -13.4660    4.2600  -15.2160 C.3       9 GLL5        0.0000 
     33 CA        -16.0930    1.8630  -14.3290 C.3       6 GLP5        0.0000 
     34 CA        -13.3530    3.5575  -17.0185 C.3       3 GLC5        0.0000 
     35 CA        -13.2400    2.8550  -18.8210 C.3       6 GLP5        0.0000 
     36 N         -18.0020    9.7620   -9.1285 N.am      2 SEC2        0.0000 
     37 N         -17.0510    9.2640   -9.8390 N.am      8 SEL2        0.0000 
     38 N         -18.9530   10.2600   -8.4180 N.am      5 SEP2        0.0000 
     39 N         -17.9735   10.1710  -10.9980 N.am      2 SEC2        0.0000 
     40 N         -18.8960   11.0780  -12.1570 N.am      5 SEP2        0.0000 
     41 O         -16.4915   10.1325  -10.7610 O.2       1 ALC1        0.0000 
     42 O         -17.0510    9.2640   -9.8390 O.2       7 ALL1        0.0000 
     43 O         -15.9320   11.0010  -11.6830 O.2       4 ALP1        0.0000 
     44 CA        -17.5975    8.6700   -8.1305 C.3       3 GLC5        0.0000 
     45 CA        -15.9370    9.1830   -8.9350 C.3       9 GLL5        0.0000 
     46 CA        -19.2580    8.1570   -7.3260 C.3       6 GLP5        0.0000 
     47 CA        -16.1540   10.5845   -7.7595 C.3       3 GLC5        0.0000 
     48 CA        -16.3710   11.9860   -6.5840 C.3       6 GLP5        0.0000 
     49 CA        -16.3650   10.6130  -10.0945 C.3       3 GLC5        0.0000 
     50 CA        -16.7930   12.0430  -11.2540 C.3       6 GLP5        0.0000 
     51 CA        -13.0585    9.0740   -7.0260 C.3       3 GLC5        0.0000 
     52 CA        -13.8290    8.0040   -8.5240 C.3       9 GLL5        0.0000 
     53 CA        -12.2880   10.1440   -5.5280 C.3       6 GLP5        0.0000 
     54 CA        -12.0505    7.7855   -7.6320 C.3       3 GLC5        0.0000 
     55 CA        -10.2720    7.5670   -6.7400 C.3       6 GLP5        0.0000 
     56 CA         -7.1095    7.5510  -12.1755 C.3       3 GLC5        0.0000 
     57 CA         -8.3530    7.4160  -13.5550 C.3       9 GLL5        0.0000 
     58 CA         -5.8660    7.6860  -10.7960 C.3       6 GLP5        0.0000 
     59 CA         -6.0815    7.6555  -13.5195 C.3       3 GLC5        0.0000 
     60 CA         -7.6040    8.5030  -14.2920 C.3       9 GLL5        0.0000 
     61 CA         -4.5590    6.8080  -12.7470 C.3       6 GLP5        0.0000 
     62 CA         -9.4560    9.1340  -15.3385 C.3       3 GLC5        0.0000 
     63 CA         -6.0805    9.5530  -14.7020 C.3       3 GLC5        0.0000 
     64 CA         -4.5570   10.6030  -15.1120 C.3       6 GLP5        0.0000 
     65 CA        -11.1120    4.5535  -16.7035 C.3       3 GLC5        0.0000 
     66 CA        -11.3850    5.4770  -14.7400 C.3       9 GLL5        0.0000 
     67 CA        -10.8390    3.6300  -18.6670 C.3       6 GLP5        0.0000 
     68 CA         -7.1895    6.1720  -11.6170 C.3       3 GLC5        0.0000 
     69 CA         -8.5130    4.6580  -12.4380 C.3       9 GLL5        0.0000 
     70 CA         -5.8940    4.7055  -11.4555 C.3       3 GLC5        0.0000 
     71 CA         -7.4470    3.7380  -12.4160 C.3       9 GLL5        0.0000 
     72 CA         -4.3410    5.6730  -10.4950 C.3       6 GLP5        0.0000 
     73 CA         -8.0700    5.4220  -16.0135 C.3       3 GLC5        0.0000 
     74 CA         -8.8900    4.1250  -14.7430 C.3       9 GLL5        0.0000 
     75 CA         -7.2500    6.7190  -17.2840 C.3       6 GLP5        0.0000 
     76 CA         -9.8645    3.8775  -16.7050 C.3       3 GLC5        0.0000 
     77 CA         -6.8335    1.8175  -10.8910 C.3       3 GLC5        0.0000 
     78 CA         -5.5350    1.6370  -12.3360 C.3       9 GLL5        0.0000 
     79 CA         -8.1320    1.9980   -9.4460 C.3       6 GLP5        0.0000 
     80 N          -4.8540   -0.2555  -14.6320 N.am      2 SEC2        0.0000 
     81 N          -5.0380   -0.4980  -13.3190 N.am      8 SEL2        0.0000 
     82 N          -4.6700   -0.0130  -15.9450 N.am      5 SEP2        0.0000 
     83 N          -6.1305   -1.2295  -13.7530 N.am      2 SEC2        0.0000 
     84 N          -7.2230   -1.9610  -14.1870 N.am      5 SEP2        0.0000 
     85 CA         -1.3820    1.4105  -10.1310 C.3       3 GLC5        0.0000 
     86 CA         -3.3100    1.2630  -10.4970 C.3       9 GLL5        0.0000 
     87 CA         -3.4810    1.9375   -8.7595 C.3       3 GLC5        0.0000 
     88 CA         -3.6520    2.6120   -7.0220 C.3       6 GLP5        0.0000 
     89 CA        -10.6140    6.8020   -9.5712 C.3       3 GLC5        0.0000 
     90 CA        -11.8580    5.3910  -10.2390 C.3       9 GLL5        0.0000 
     91 CA         -9.1030    7.5870   -9.0290 C.3       6 GLP5        0.0000 
     92 CA        -12.4025    3.6643  -10.7230 C.3       3 GLC5        0.0000 
     93 CA        -10.1167    6.6095  -10.4737 C.3       3 GLC5        0.0000 
     94 CA        -11.2040    5.1200  -11.4470 C.3       9 GLL5        0.0000 
     95 CA        -10.5152    7.5555  -10.2777 C.3       3 GLC5        0.0000 
     96 CA        -13.7895    6.7489  -11.9593 C.3       3 GLC5        0.0000 
     97 CA        -12.3920    6.6430   -9.9880 C.3       9 GLL5        0.0000 
     98 CA        -15.6180    6.2280  -12.6280 C.3       6 GLP5        0.0000 
     99 CA         -5.9663    2.1482  -15.3607 C.3       3 GLC5        0.0000 
    100 CA         -4.4520    1.1790  -16.5660 C.3       6 GLP5        0.0000 
    101 CA         -4.7252    1.1470  -14.5150 C.3       3 GLC5        0.0000 
    102 CA        -14.2378    5.2590  -13.6973 C.3       3 GLC5        0.0000 
    103 CA        -16.2608    7.6078  -10.5813 C.3       3 GLC5        0.0000 
    104 CA        -15.1520    7.9380   -9.2820 C.3       9 GLL5        0.0000 
    105 CA        -16.9770    6.6550  -12.0540 C.3       6 GLP5        0.0000 
    106 CA        -13.9699   10.1236   -9.0836 C.3       3 GLC5        0.0000 
    107 CA        -13.2530   11.9650   -9.3510 C.3       6 GLP5        0.0000 
    108 CA         -8.3882    9.7718  -13.7007 C.3       3 GLC5        0.0000 
    109 CA         -8.7980   11.5840  -13.4780 C.3       6 GLP5        0.0000 
    110 CA         -7.7837    7.3054  -15.6852 C.3       3 GLC5        0.0000 
    111 CA        -12.5146    6.2272  -16.0461 C.3       3 GLC5        0.0000 
    112 CA        -12.9080    7.5710  -17.3390 C.3       6 GLP5        0.0000 
    113 CA         -7.8405    2.8015  -11.2210 C.3       3 GLC5        0.0000 
@<TRIPOS>BOND
@<TRIPOS>SUBSTRUCTURE
     1 ALC1       41 GROUP        1 X    ALC  0     ROOT ALC X 1
     2 SEC2       36 GROUP        1 X    SEC  0     **** SEC X 2
     3 GLC5        1 GROUP        1 X    GLC  0     **** GLC X 6
     4 ALP1       43 GROUP        1 Y    ALP  0     ROOT ALP Y 8
     5 SEP2       38 GROUP        1 Y    SEP  0     **** SEP Y 9
     6 GLP5        3 GROUP        1 Y    GLP  0     **** GLP Y 13
     7 ALL1       42 GROUP        1 Z    ALL  0     ROOT ALL Z 15
     8 SEL2       37 GROUP        1 Z    SEL  0     **** SEL Z 16
     9 GLL5        2 GROUP        1 Z    GLL  0     **** GLL Z 20
@<TRIPOS>SET

