#    Name: 3w0h_W12_1_ligand
#    Modification time : Tue Mar 25 01:55:31 2014

@<TRIPOS>MOLECULE
3w0h_W12_1_ligand
   75    76     1     0     0
SMALL
NO_CHARGES


@<TRIPOS>ATOM
      1 C4        -12.3920    6.6430   -9.9880 C.ar      1 W12501      0.0000 
      2 C5        -11.8580    5.3910  -10.2390 C.ar      1 W12501      0.0000 
      3 C6        -11.2040    5.1200  -11.4470 C.ar      1 W12501      0.0000 
      4 C7        -11.0570    6.1440  -12.3900 C.ar      1 W12501      0.0000 
      5 C8        -11.5970    7.3880  -12.1210 C.ar      1 W12501      0.0000 
      6 C10       -10.3530    5.8460  -13.6930 C.3       1 W12501      0.0000 
      7 C13        -9.2400    4.8460  -13.6020 C.ar      1 W12501      0.0000 
      8 C15        -7.8430    3.2230  -14.7460 C.ar      1 W12501      0.0000 
      9 C11        -9.7090    7.1450  -14.2070 C.3       1 W12501      0.0000 
     10 C20        -4.4620    0.5930  -12.5920 C.3       1 W12501      0.0000 
     11 C21        -3.8170    0.0650  -11.3090 C.3       1 W12501      0.0000 
     12 C22        -2.6020   -0.7700  -11.6920 C.3       1 W12501      0.0000 
     13 C24        -4.7990   -0.7790  -10.5160 C.3       1 W12501      0.0000 
     14 C26       -12.2490    4.3200  -14.3170 C.3       1 W12501      0.0000 
     15 C28       -13.4660    4.2600  -15.2160 C.3       1 W12501      0.0000 
     16 O01       -17.0510    9.2640   -9.8390 O.3       1 W12501      0.0000 
     17 C1        -15.9370    9.1830   -8.9350 C.3       1 W12501      0.0000 
     18 C2        -15.1520    7.9380   -9.2820 C.3       1 W12501      0.0000 
     19 O02       -15.9880    6.8070   -8.9690 O.3       1 W12501      0.0000 
     20 C3        -13.8290    8.0040   -8.5240 C.3       1 W12501      0.0000 
     21 O03       -13.0440    6.8620   -8.7790 O.3       1 W12501      0.0000 
     22 C9        -12.2580    7.6600  -10.9320 C.ar      1 W12501      0.0000 
     23 C25        -8.3530    7.4160  -13.5550 C.3       1 W12501      0.0000 
     24 C27        -7.6040    8.5030  -14.2920 C.3       1 W12501      0.0000 
     25 C12       -11.3850    5.4770  -14.7400 C.3       1 W12501      0.0000 
     26 C18        -8.5130    4.6580  -12.4380 C.ar      1 W12501      0.0000 
     27 C17        -7.4470    3.7380  -12.4160 C.ar      1 W12501      0.0000 
     28 C14        -8.8900    4.1250  -14.7430 C.ar      1 W12501      0.0000 
     29 C16        -7.1180    3.0120  -13.5650 C.ar      1 W12501      0.0000 
     30 O04        -6.0940    2.0860  -13.5810 O.3       1 W12501      0.0000 
     31 C19        -5.5350    1.6370  -12.3360 C.3       1 W12501      0.0000 
     32 O05        -5.0380   -0.4980  -13.3190 O.3       1 W12501      0.0000 
     33 C23        -3.3100    1.2630  -10.4970 C.3       1 W12501      0.0000 
     34 H         -11.9393    4.6427   -9.5311 H         1 W12501      0.0000 
     35 H         -10.8389    4.1870  -11.6376 H         1 W12501      0.0000 
     36 H         -11.5057    8.1465  -12.8324 H         1 W12501      0.0000 
     37 H          -7.5930    2.7111  -15.5951 H         1 W12501      0.0000 
     38 H         -10.3829    7.9807  -13.9986 H         1 W12501      0.0000 
     39 H          -9.5800    7.0715  -15.2904 H         1 W12501      0.0000 
     40 H          -3.6757    1.0587  -13.1919 H         1 W12501      0.0000 
     41 H         -11.6907    3.3937  -14.4039 H         1 W12501      0.0000 
     42 H         -12.5670    4.4558  -13.2885 H         1 W12501      0.0000 
     43 H         -16.2667    9.1057   -7.9007 H         1 W12501      0.0000 
     44 H         -15.2790   10.0443   -9.0337 H         1 W12501      0.0000 
     45 H         -14.9413    7.9870  -10.3455 H         1 W12501      0.0000 
     46 H         -14.0688    8.1112   -7.4518 H         1 W12501      0.0000 
     47 H         -13.3197    8.9341   -8.8309 H         1 W12501      0.0000 
     48 H         -12.6408    8.5880  -10.7486 H         1 W12501      0.0000 
     49 H          -7.7658    6.4962  -13.5625 H         1 W12501      0.0000 
     50 H          -8.5120    7.7182  -12.5185 H         1 W12501      0.0000 
     51 H         -10.8687    5.2244  -15.6781 H         1 W12501      0.0000 
     52 H         -12.0194    6.3529  -14.9416 H         1 W12501      0.0000 
     53 H          -8.7428    5.1834  -11.5874 H         1 W12501      0.0000 
     54 H          -6.9120    3.6029  -11.5509 H         1 W12501      0.0000 
     55 H          -9.4380    4.2746  -15.6177 H         1 W12501      0.0000 
     56 H          -5.0781    2.4658  -11.7805 H         1 W12501      0.0000 
     57 H          -6.3015    1.1869  -11.6925 H         1 W12501      0.0000 
     58 H          -1.9282   -0.2338  -12.2004 H         1 W12501      0.0000 
     59 H          -2.1364   -1.1390  -10.8876 H         1 W12501      0.0000 
     60 H          -2.8527   -1.5479  -12.2682 H         1 W12501      0.0000 
     61 H          -4.3895   -1.1340   -9.6756 H         1 W12501      0.0000 
     62 H          -5.6081   -0.2552  -10.2493 H         1 W12501      0.0000 
     63 H          -5.1200   -1.5671  -11.0412 H         1 W12501      0.0000 
     64 H         -13.2133    4.1316  -16.1750 H         1 W12501      0.0000 
     65 H         -14.0731    3.5047  -14.9692 H         1 W12501      0.0000 
     66 H         -14.0070    5.0995  -15.1652 H         1 W12501      0.0000 
     67 H          -6.7164    8.6926  -13.8722 H         1 W12501      0.0000 
     68 H          -7.4303    8.2539  -15.2448 H         1 W12501      0.0000 
     69 H          -8.1133    9.3636  -14.3022 H         1 W12501      0.0000 
     70 H          -2.8785    0.9761   -9.6417 H         1 W12501      0.0000 
     71 H          -2.6313    1.7946  -11.0037 H         1 W12501      0.0000 
     72 H          -4.0518    1.8887  -10.2556 H         1 W12501      0.0000 
     73 H         -16.7381    9.8546  -10.5828 H         1 W12501      0.0000 
     74 H         -15.3936    6.1761   -8.4704 H         1 W12501      0.0000 
     75 H          -4.5111   -1.3012  -13.0408 H         1 W12501      0.0000 
@<TRIPOS>BOND
     1    2    1 ar   
     2   21    1 1    
     3   22    1 ar   
     4    3    2 ar   
     5   34    2 1    
     6    4    3 ar   
     7   35    3 1    
     8    5    4 ar   
     9    6    4 1    
    10   22    5 ar   
    11   36    5 1    
    12    7    6 1    
    13    9    6 1    
    14   25    6 1    
    15   26    7 ar   
    16   28    7 ar   
    17   28    8 ar   
    18   29    8 ar   
    19   37    8 1    
    20   23    9 1    
    21   38    9 1    
    22   39    9 1    
    23   11   10 1    
    24   31   10 1    
    25   32   10 1    
    26   40   10 1    
    27   12   11 1    
    28   13   11 1    
    29   33   11 1    
    30   58   12 1    
    31   59   12 1    
    32   60   12 1    
    33   61   13 1    
    34   62   13 1    
    35   63   13 1    
    36   15   14 1    
    37   25   14 1    
    38   41   14 1    
    39   42   14 1    
    40   64   15 1    
    41   65   15 1    
    42   66   15 1    
    43   17   16 1    
    44   73   16 1    
    45   18   17 1    
    46   43   17 1    
    47   44   17 1    
    48   19   18 1    
    49   20   18 1    
    50   45   18 1    
    51   74   19 1    
    52   21   20 1    
    53   46   20 1    
    54   47   20 1    
    55   48   22 1    
    56   24   23 1    
    57   49   23 1    
    58   50   23 1    
    59   67   24 1    
    60   68   24 1    
    61   69   24 1    
    62   51   25 1    
    63   52   25 1    
    64   27   26 ar   
    65   53   26 1    
    66   29   27 ar   
    67   54   27 1    
    68   55   28 1    
    69   30   29 1    
    70   31   30 1    
    71   56   31 1    
    72   57   31 1    
    73   75   32 1    
    74   70   33 1    
    75   71   33 1    
    76   72   33 1    
@<TRIPOS>SUBSTRUCTURE
     1 W12501      1 GROUP   
@<TRIPOS>SET

