#    Name: 2jfg_UMA_1_INTS_M
#    Modification time : Tue Mar 25 20:40:20 2014

@<TRIPOS>MOLECULE
2jfg_UMA_1_INTS_M
   75     0     9     0     0
SMALL
NO_CHARGES


@<TRIPOS>ATOM
      1 O          33.5730   20.3660   24.6930 O.2       1 ALC1        0.0000 
      2 O          33.5140   19.6890   23.5240 O.2       7 ALL1        0.0000 
      3 O          33.6320   21.0430   25.8620 O.2       4 ALP1        0.0000 
      4 CA         34.5560   20.2040   19.5770 C.3       3 GLC5        0.0000 
      5 CA         33.5000   19.4120   21.1510 C.3       9 GLL5        0.0000 
      6 CA         35.6120   20.9960   18.0030 C.3       6 GLP5        0.0000 
      7 CA         31.6350   20.5815   20.7555 C.3       3 GLC5        0.0000 
      8 CA         29.7700   21.7510   20.3600 C.3       6 GLP5        0.0000 
      9 CA         31.4975   17.5140   20.3185 C.3       3 GLC5        0.0000 
     10 CA         33.2460   18.0590   21.3290 C.3       9 GLL5        0.0000 
     11 CA         29.7490   16.9690   19.3080 C.3       6 GLP5        0.0000 
     12 N          34.7650   22.0170   23.1870 N.am      2 SEC2        0.0000 
     13 N          33.8800   21.4300   22.1520 N.am      8 SEL2        0.0000 
     14 N          35.6500   22.6040   24.2220 N.am      5 SEP2        0.0000 
     15 CA         34.8295   16.3165   23.4715 C.3       3 GLC5        0.0000 
     16 CA         32.9030   16.0990   22.8050 C.3       9 GLL5        0.0000 
     17 CA         36.7560   16.5340   24.1380 C.3       6 GLP5        0.0000 
     18 O          30.0285   16.8670   22.3400 O.2       1 ALC1        0.0000 
     19 O          30.4760   15.7880   23.1910 O.2       7 ALL1        0.0000 
     20 O          29.5810   17.9460   21.4890 O.2       4 ALP1        0.0000 
     21 N          30.8945   16.9390   17.5900 N.am      2 SEC2        0.0000 
     22 N          32.2160   16.5830   17.2850 N.am      8 SEL2        0.0000 
     23 N          29.5730   17.2950   17.8950 N.am      5 SEP2        0.0000 
     24 N          35.6740   16.6665   19.2190 N.am      2 SEC2        0.0000 
     25 N          34.7100   16.2770   17.9530 N.am      8 SEL2        0.0000 
     26 N          36.6380   17.0560   20.4850 N.am      5 SEP2        0.0000 
     27 N          36.7075   14.0240   15.6100 N.am      2 SEC2        0.0000 
     28 N          35.5730   13.2290   16.4540 N.am      8 SEL2        0.0000 
     29 N          37.8420   14.8190   14.7660 N.am      5 SEP2        0.0000 
     30 N          35.2605   15.5095   13.9165 N.am      2 SEC2        0.0000 
     31 N          34.4280   15.0230   14.9650 N.am      8 SEL2        0.0000 
     32 N          36.0930   15.9960   12.8680 N.am      5 SEP2        0.0000 
     33 N          33.8375   15.4545   13.8165 N.am      2 SEC2        0.0000 
     34 N          33.2470   15.8860   12.6680 N.am      5 SEP2        0.0000 
     35 CA         29.7975   14.8020   18.9485 C.3       3 GLC5        0.0000 
     36 CA         29.8460   12.6350   18.5890 C.3       9 GLL5        0.0000 
     37 CA         27.6885   13.0835   18.8975 C.3       3 GLC5        0.0000 
     38 CA         25.5310   13.5320   19.2060 C.3       6 GLP5        0.0000 
     39 CA         30.4045   10.3985   11.7280 C.3       3 GLC5        0.0000 
     40 CA         31.7520   10.8450   13.0260 C.3       9 GLL5        0.0000 
     41 CA         29.0570    9.9520   10.4300 C.3       6 GLP5        0.0000 
     42 O          31.1865    8.8745   11.9985 O.2       1 ALC1        0.0000 
     43 O          32.2380    9.6290   12.4320 O.2       7 ALL1        0.0000 
     44 O          30.1350    8.1200   11.5650 O.2       4 ALP1        0.0000 
     45 N          31.5730   14.3855   12.3650 N.am      2 SEC2        0.0000 
     46 N          32.3030   13.1880   13.3250 N.am      8 SEL2        0.0000 
     47 N          30.8430   15.5830   11.4050 N.am      5 SEP2        0.0000 
     48 CA         30.8670   11.1215   10.7730 C.3       3 GLC5        0.0000 
     49 CA         32.6770   12.2910   11.1160 C.3       9 GLL5        0.0000 
     50 CA         33.5855   12.8350    9.2355 C.3       3 GLC5        0.0000 
     51 CA         34.4940   13.3790    7.3550 C.3       6 GLP5        0.0000 
     52 O          31.1160   14.2070   11.0840 O.2       1 ALC1        0.0000 
     53 O          31.3890   12.8310   10.7630 O.2       7 ALL1        0.0000 
     54 O          30.8430   15.5830   11.4050 O.2       4 ALP1        0.0000 
     55 CA         31.5260    5.6430   15.5360 C.3       3 GLC5        0.0000 
     56 CA         31.0450    7.4660   15.5890 C.3       9 GLL5        0.0000 
     57 CA         32.0070    3.8200   15.4830 C.3       6 GLP5        0.0000 
     58 O          28.3195   10.0025   14.7875 O.2       1 ALC1        0.0000 
     59 O          28.5080    9.5570   16.2450 O.2       7 ALL1        0.0000 
     60 O          28.1310   10.4480   13.3300 O.2       4 ALP1        0.0000 
     61 N          27.0110    8.0100   14.3270 N.am      2 SEC2        0.0000 
     62 N          26.8440    7.5750   15.7650 N.am      8 SEL2        0.0000 
     63 N          27.1780    8.4450   12.8890 N.am      5 SEP2        0.0000 
     64 CA         25.5265   11.3630   15.0490 C.3       3 GLC5        0.0000 
     65 CA         26.3900   10.7520   16.5120 C.3       9 GLL5        0.0000 
     66 CA         24.6630   11.9740   13.5860 C.3       6 GLP5        0.0000 
     67 CA         26.0295   12.4805   17.2530 C.3       3 GLC5        0.0000 
     68 CA         25.6690   14.2090   17.9940 C.3       6 GLP5        0.0000 
     69 CA         30.7100   15.9468   20.6850 C.3       3 GLC5        0.0000 
     70 CA         31.7860   14.2090   21.8590 C.3       9 GLL5        0.0000 
     71 CA         33.0760   12.2624   21.5832 C.3       3 GLC5        0.0000 
     72 CA         33.1460   10.3450   22.3400 C.3       6 GLP5        0.0000 
     73 CA         30.6500   14.2580   14.7568 C.3       3 GLC5        0.0000 
     74 CA         31.1320   12.0530   15.0880 C.3       9 GLL5        0.0000 
     75 CA         29.6370   15.9440   14.5970 C.3       6 GLP5        0.0000 
@<TRIPOS>BOND
@<TRIPOS>SUBSTRUCTURE
     1 ALC1        1 GROUP        1 X    ALC  0     ROOT ALC X 1
     2 SEC2       12 GROUP        1 X    SEC  0     **** SEC X 2
     3 GLC5        4 GROUP        1 X    GLC  0     **** GLC X 6
     4 ALP1        3 GROUP        1 Y    ALP  0     ROOT ALP Y 8
     5 SEP2       14 GROUP        1 Y    SEP  0     **** SEP Y 9
     6 GLP5        6 GROUP        1 Y    GLP  0     **** GLP Y 13
     7 ALL1        2 GROUP        1 Z    ALL  0     ROOT ALL Z 15
     8 SEL2       13 GROUP        1 Z    SEL  0     **** SEL Z 16
     9 GLL5        5 GROUP        1 Z    GLL  0     **** GLL Z 20
@<TRIPOS>SET

