#    Name: 2jfg_UMA_1_ligand
#    Modification time : Tue Mar 25 20:40:21 2014

@<TRIPOS>MOLECULE
2jfg_UMA_1_ligand
   82    84     1     0     0
SMALL
NO_CHARGES


@<TRIPOS>ATOM
      1 N1         33.1490   17.5340   22.5790 N.am      1 UMA1440     0.0000 
      2 C2         33.2940   18.3700   23.7050 C.2       1 UMA1440     0.0000 
      3 N3         33.5140   19.6890   23.5240 N.am      1 UMA1440     0.0000 
      4 C4         33.6440   20.2120   22.2850 C.2       1 UMA1440     0.0000 
      5 C5         33.5000   19.4120   21.1510 C.2       1 UMA1440     0.0000 
      6 C6         33.2460   18.0590   21.3290 C.2       1 UMA1440     0.0000 
      7 O2         33.1810   17.8860   24.8580 O.2       1 UMA1440     0.0000 
      8 O4         33.8800   21.4300   22.1520 O.2       1 UMA1440     0.0000 
      9 C1B        32.9030   16.0990   22.8050 C.3       1 UMA1440     0.0000 
     10 C2B        31.5560   15.6400   22.2650 C.3       1 UMA1440     0.0000 
     11 O2'        30.4760   15.7880   23.1910 O.3       1 UMA1440     0.0000 
     12 C3B        31.7860   14.2090   21.8590 C.3       1 UMA1440     0.0000 
     13 C4B        33.2580   14.2120   21.4830 C.3       1 UMA1440     0.0000 
     14 O4B        33.8510   15.4070   22.0140 O.3       1 UMA1440     0.0000 
     15 O3B        31.6040   13.3490   22.9910 O.3       1 UMA1440     0.0000 
     16 C5B        33.4900   14.1490   19.9820 C.3       1 UMA1440     0.0000 
     17 O5B        32.8110   15.2270   19.3190 O.3       1 UMA1440     0.0000 
     18 PA         33.3270   15.7390   17.8870 P.3       1 UMA1440     0.0000 
     19 O1A        32.2160   16.5830   17.2850 O.co2     1 UMA1440     0.0000 
     20 O2A        34.7100   16.2770   17.9530 O.co2     1 UMA1440     0.0000 
     21 O3A        33.3830   14.3340   17.1250 O.3       1 UMA1440     0.0000 
     22 PB         34.3290   13.8850   15.9150 P.3       1 UMA1440     0.0000 
     23 O1B        35.5730   13.2290   16.4540 O.co2     1 UMA1440     0.0000 
     24 O2B        34.4280   15.0230   14.9650 O.co2     1 UMA1440     0.0000 
     25 O1'        33.4440   12.7130   15.3130 O.3       1 UMA1440     0.0000 
     26 C1'        32.1940   13.0910   14.7450 C.3       1 UMA1440     0.0000 
     27 C2'        31.1320   12.0530   15.0880 C.3       1 UMA1440     0.0000 
     28 N2'        30.9380   12.0790   16.5350 N.am      1 UMA1440     0.0000 
     29 C7'        29.8770   12.6840   17.0850 C.2       1 UMA1440     0.0000 
     30 O7'        28.9900   13.2360   16.4250 O.2       1 UMA1440     0.0000 
     31 C8'        29.8460   12.6350   18.5890 C.3       1 UMA1440     0.0000 
     32 C3'        31.6080   10.7010   14.5560 C.3       1 UMA1440     0.0000 
     33 O3'        30.6380    9.6900   14.7690 O.3       1 UMA1440     0.0000 
     34 C4'        31.7520   10.8450   13.0260 C.3       1 UMA1440     0.0000 
     35 O4'        32.2380    9.6290   12.4320 O.3       1 UMA1440     0.0000 
     36 C5'        32.6850   11.9900   12.6220 C.3       1 UMA1440     0.0000 
     37 O5'        32.3030   13.1880   13.3250 O.3       1 UMA1440     0.0000 
     38 C6'        32.6770   12.2910   11.1160 C.3       1 UMA1440     0.0000 
     39 O6'        31.3890   12.8310   10.7630 O.3       1 UMA1440     0.0000 
     40 C18        30.8210    8.9330   15.9630 C.3       1 UMA1440     0.0000 
     41 C19        29.5710    8.9830   16.7840 C.2       1 UMA1440     0.0000 
     42 O18        29.5560    8.5000   17.9110 O.2       1 UMA1440     0.0000 
     43 C20        31.0450    7.4660   15.5890 C.3       1 UMA1440     0.0000 
     44 N4         28.5080    9.5570   16.2450 N.am      1 UMA1440     0.0000 
     45 C21        27.2490    9.5850   16.9790 C.3       1 UMA1440     0.0000 
     46 C22        26.5270    8.2830   16.7490 C.2       1 UMA1440     0.0000 
     47 O19        25.6390    7.9250   17.5440 O.co2     1 UMA1440     0.0000 
     48 O20        26.8440    7.5750   15.7650 O.co2     1 UMA1440     0.0000 
     49 C23        26.3900   10.7520   16.5120 C.3       1 UMA1440     0.0000 
     50 H          33.5855   20.3201   24.3595 H         1 UMA1440     0.0000 
     51 H          33.5795   19.8124   20.2208 H         1 UMA1440     0.0000 
     52 H          33.1313   17.4547   20.4936 H         1 UMA1440     0.0000 
     53 H          32.9853   15.8412   23.8191 H         1 UMA1440     0.0000 
     54 H          31.3815   16.2048   21.3431 H         1 UMA1440     0.0000 
     55 H          31.2155   13.9715   21.0320 H         1 UMA1440     0.0000 
     56 H          33.7229   13.3392   21.9389 H         1 UMA1440     0.0000 
     57 H          33.1347   13.1718   19.6243 H         1 UMA1440     0.0000 
     58 H          34.5743   14.1892   19.8041 H         1 UMA1440     0.0000 
     59 H          31.8577   14.0379   15.1596 H         1 UMA1440     0.0000 
     60 H          30.2296   12.3323   14.5714 H         1 UMA1440     0.0000 
     61 H          31.6642   11.6056   17.1025 H         1 UMA1440     0.0000 
     62 H          32.5536   10.4707   14.9536 H         1 UMA1440     0.0000 
     63 H          30.7589   11.0792   12.6222 H         1 UMA1440     0.0000 
     64 H          33.7019   11.7138   12.9001 H         1 UMA1440     0.0000 
     65 H          32.8827   11.3611   10.5881 H         1 UMA1440     0.0000 
     66 H          33.4801   12.9976   10.9121 H         1 UMA1440     0.0000 
     67 H          31.6433    9.2635   16.5390 H         1 UMA1440     0.0000 
     68 H          28.5079    9.9984   15.3156 H         1 UMA1440     0.0000 
     69 H          27.4344    9.6951   18.0350 H         1 UMA1440     0.0000 
     70 H          30.6489   13.0747   18.9915 H         1 UMA1440     0.0000 
     71 H          29.0412   13.0990   18.9592 H         1 UMA1440     0.0000 
     72 H          29.8250   11.6950   18.9296 H         1 UMA1440     0.0000 
     73 H          31.8518    7.3494   15.0097 H         1 UMA1440     0.0000 
     74 H          31.1793    6.8930   16.3974 H         1 UMA1440     0.0000 
     75 H          30.2670    7.0876   15.0875 H         1 UMA1440     0.0000 
     76 H          26.8454   11.6302   16.6582 H         1 UMA1440     0.0000 
     77 H          26.1783   10.6904   15.5366 H         1 UMA1440     0.0000 
     78 H          25.5177   10.7895   16.9995 H         1 UMA1440     0.0000 
     79 H          29.9451   16.5627   22.8476 H         1 UMA1440     0.0000 
     80 H          30.7902   13.6999   23.4543 H         1 UMA1440     0.0000 
     81 H          31.5013    8.9653   12.5617 H         1 UMA1440     0.0000 
     82 H          31.5478   13.8084   10.6232 H         1 UMA1440     0.0000 
@<TRIPOS>BOND
     1    2    1 1    
     2    6    1 1    
     3    9    1 1    
     4    3    2 1    
     5    7    2 2    
     6    4    3 1    
     7   50    3 1    
     8    5    4 1    
     9    8    4 2    
    10    6    5 2    
    11   51    5 1    
    12   52    6 1    
    13   10    9 1    
    14   14    9 1    
    15   53    9 1    
    16   11   10 1    
    17   12   10 1    
    18   54   10 1    
    19   79   11 1    
    20   13   12 1    
    21   15   12 1    
    22   55   12 1    
    23   14   13 1    
    24   16   13 1    
    25   56   13 1    
    26   80   15 1    
    27   17   16 1    
    28   57   16 1    
    29   58   16 1    
    30   18   17 1    
    31   19   18 ar   
    32   20   18 ar   
    33   21   18 1    
    34   22   21 1    
    35   23   22 ar   
    36   24   22 ar   
    37   25   22 1    
    38   26   25 1    
    39   27   26 1    
    40   37   26 1    
    41   59   26 1    
    42   28   27 1    
    43   32   27 1    
    44   60   27 1    
    45   29   28 am   
    46   61   28 1    
    47   30   29 2    
    48   31   29 1    
    49   70   31 1    
    50   71   31 1    
    51   72   31 1    
    52   33   32 1    
    53   34   32 1    
    54   62   32 1    
    55   40   33 1    
    56   35   34 1    
    57   36   34 1    
    58   63   34 1    
    59   81   35 1    
    60   37   36 1    
    61   38   36 1    
    62   64   36 1    
    63   39   38 1    
    64   65   38 1    
    65   66   38 1    
    66   82   39 1    
    67   41   40 1    
    68   43   40 1    
    69   67   40 1    
    70   42   41 2    
    71   44   41 am   
    72   73   43 1    
    73   74   43 1    
    74   75   43 1    
    75   45   44 1    
    76   68   44 1    
    77   46   45 1    
    78   49   45 1    
    79   69   45 1    
    80   47   46 ar   
    81   48   46 ar   
    82   76   49 1    
    83   77   49 1    
    84   78   49 1    
@<TRIPOS>SUBSTRUCTURE
     1 UMA1440     1 GROUP   
@<TRIPOS>SET

