#    Name: 3ibd_CPZ_1_INTS_M
#    Modification time : Tue Mar 25 16:10:23 2014

@<TRIPOS>MOLECULE
3ibd_CPZ_1_INTS_M
   27     0     6     0     0
SMALL
NO_CHARGES


@<TRIPOS>ATOM
      1 CA         23.8220   13.1890   23.2605 C.3       2 GLC5        0.0000 
      2 CA         22.8110   13.6110   24.9180 C.3       6 GLL5        0.0000 
      3 CA         24.8330   12.7670   21.6030 C.3       4 GLP5        0.0000 
      4 CA         23.2755   14.3240   22.6335 C.3       2 GLC5        0.0000 
      5 CA         22.1550   14.5120   24.2160 C.3       6 GLL5        0.0000 
      6 CA         24.3960   14.1360   21.0510 C.3       4 GLP5        0.0000 
      7 O          23.1865   11.2610   24.1945 O.2       1 ALC1        0.0000 
      8 O          22.4330   12.4410   24.4880 O.2       5 ALL1        0.0000 
      9 O          23.9400   10.0810   23.9010 O.2       3 ALP1        0.0000 
     10 CA         28.0960   15.3840   30.1440 C.3       2 GLC5        0.0000 
     11 CA         26.8150   14.3440   29.0550 C.3       6 GLL5        0.0000 
     12 CA         29.3770   16.4240   31.2330 C.3       4 GLP5        0.0000 
     13 CA         27.4945   13.9045   27.3775 C.3       2 GLC5        0.0000 
     14 CA         28.1740   13.4650   25.7000 C.3       4 GLP5        0.0000 
     15 CA         26.0900   13.0545   30.6450 C.3       2 GLC5        0.0000 
     16 CA         25.3650   11.7650   32.2350 C.3       4 GLP5        0.0000 
     17 CA         25.0782   16.8428   25.4050 C.3       2 GLC5        0.0000 
     18 CA         25.1790   15.2480   27.1440 C.3       6 GLL5        0.0000 
     19 CA         25.4450   18.5130   24.1560 C.3       4 GLP5        0.0000 
     20 CA         22.9750   12.6440   28.2227 C.3       2 GLC5        0.0000 
     21 CA         24.2130   12.7770   26.6080 C.3       6 GLL5        0.0000 
     22 CA         21.2770   12.4440   29.3430 C.3       4 GLP5        0.0000 
     23 CA         23.1004   15.8599   27.2213 C.3       2 GLC5        0.0000 
     24 CA         23.7420   13.8470   25.8890 C.3       6 GLL5        0.0000 
     25 CA         21.9740   17.2100   28.1710 C.3       4 GLP5        0.0000 
     26 CA         21.2784   13.7417   26.1959 C.3       2 GLC5        0.0000 
     27 CA         19.8410   13.3630   27.5820 C.3       4 GLP5        0.0000 
@<TRIPOS>BOND
@<TRIPOS>SUBSTRUCTURE
     1 ALC1        7 GROUP        1 X    ALC  0     ROOT ALC X 1
     2 GLC5        1 GROUP        1 X    GLC  0     **** GLC X 6
     3 ALP1        9 GROUP        1 Y    ALP  0     ROOT ALP Y 8
     4 GLP5        3 GROUP        1 Y    GLP  0     **** GLP Y 13
     5 ALL1        8 GROUP        1 Z    ALL  0     ROOT ALL Z 15
     6 GLL5        2 GROUP        1 Z    GLL  0     **** GLL Z 20
@<TRIPOS>SET

