#    Name: 3ibd_CPZ_1_ligand
#    Modification time : Tue Mar 25 16:10:23 2014

@<TRIPOS>MOLECULE
3ibd_CPZ_1_ligand
   19    20     1     0     0
SMALL
NO_CHARGES


@<TRIPOS>ATOM
      1 C11        24.2440   15.0970   26.1640 C.ar      1 CPZ501      0.0000 
      2 C10        25.1790   15.2480   27.1440 C.ar      1 CPZ501      0.0000 
      3 C9         25.6100   14.1680   27.8670 C.ar      1 CPZ501      0.0000 
      4 C8         25.1330   12.9110   27.5970 C.ar      1 CPZ501      0.0000 
      5 C7         24.2130   12.7770   26.6080 C.ar      1 CPZ501      0.0000 
      6 C6         23.7420   13.8470   25.8890 C.ar      1 CPZ501      0.0000 
      7 C4         22.8110   13.6110   24.9180 C.2       1 CPZ501      0.0000 
      8 C2         22.1550   14.5120   24.2160 C.2       1 CPZ501      0.0000 
      9 N1         21.4020   13.8720   23.4190 N.2       1 CPZ501      0.0000 
     10 C5         21.5250   12.6120   23.5840 C.2       1 CPZ501      0.0000 
     11 N3         22.4330   12.4410   24.4880 N.pl3     1 CPZ501      0.0000 
     12 CL         26.8150   14.3440   29.0550 Cl        1 CPZ501      0.0000 
     13 H          23.9105   15.9146   25.6273 H         1 CPZ501      0.0000 
     14 H          25.5702   16.1903   27.3466 H         1 CPZ501      0.0000 
     15 H          25.4649   12.1022   28.1291 H         1 CPZ501      0.0000 
     16 H          23.8422   11.8173   26.3786 H         1 CPZ501      0.0000 
     17 H          22.2503   15.4792   24.3122 H         1 CPZ501      0.0000 
     18 H          21.0309   11.9030   23.1196 H         1 CPZ501      0.0000 
     19 H          22.7837   11.5750   24.8026 H         1 CPZ501      0.0000 
@<TRIPOS>BOND
     1    2    1 ar   
     2    6    1 ar   
     3   13    1 1    
     4    3    2 ar   
     5   14    2 1    
     6    4    3 ar   
     7   12    3 1    
     8    5    4 ar   
     9   15    4 1    
    10    6    5 ar   
    11   16    5 1    
    12    7    6 1    
    13    8    7 2    
    14   11    7 1    
    15    9    8 1    
    16   17    8 1    
    17   10    9 2    
    18   11   10 1    
    19   18   10 1    
    20   19   11 1    
@<TRIPOS>SUBSTRUCTURE
     1 CPZ501      1 GROUP   
@<TRIPOS>SET

