#    Name: 2g1s_4IG_1_INTS_M
#    Modification time : Tue Mar 25 13:25:00 2014

@<TRIPOS>MOLECULE
2g1s_4IG_1_INTS_M
   81     0     9     0     0
SMALL
NO_CHARGES


@<TRIPOS>ATOM
      1 CA         80.3715   26.9685   73.7735 C.3       3 GLC5        0.0000 
      2 CA         78.5360   26.0040   73.4320 C.3       9 GLL5        0.0000 
      3 CA         82.2070   27.9330   74.1150 C.3       6 GLP5        0.0000 
      4 CA         81.0925   26.0465   73.7765 C.3       3 GLC5        0.0000 
      5 CA         79.9780   24.1600   73.4380 C.3       9 GLL5        0.0000 
      6 O          77.1430   25.1780   69.5370 O.2       1 ALC1        0.0000 
      7 O          78.5040   24.7840   70.1570 O.2       7 ALL1        0.0000 
      8 O          75.7820   25.5720   68.9170 O.2       4 ALP1        0.0000 
      9 O          78.5975   23.6250   69.0140 O.2       1 ALC1        0.0000 
     10 O          78.6910   22.4660   67.8710 O.2       4 ALP1        0.0000 
     11 O          78.6885   26.1970   75.3860 O.2       1 ALC1        0.0000 
     12 O          77.9990   26.9980   74.1300 O.2       7 ALL1        0.0000 
     13 O          79.3780   25.3960   76.6420 O.2       4 ALP1        0.0000 
     14 O          78.9320   27.2630   75.2670 O.2       1 ALC1        0.0000 
     15 O          79.8650   27.5280   76.4040 O.2       4 ALP1        0.0000 
     16 O          77.8390   28.2655   73.6265 O.2       1 ALC1        0.0000 
     17 O          77.6790   29.5330   73.1230 O.2       4 ALP1        0.0000 
     18 CA         79.2850   22.6130   75.0355 C.3       3 GLC5        0.0000 
     19 CA         80.8890   23.2670   74.2690 C.3       9 GLL5        0.0000 
     20 CA         77.6810   21.9590   75.8020 C.3       6 GLP5        0.0000 
     21 CA         83.7895   24.7750   74.9715 C.3       3 GLC5        0.0000 
     22 CA         82.2470   23.9070   74.5600 C.3       9 GLL5        0.0000 
     23 CA         85.3320   25.6430   75.3830 C.3       6 GLP5        0.0000 
     24 CA         82.2270   25.9200   74.3375 C.3       3 GLC5        0.0000 
     25 CA         80.8325   19.4085   68.6055 C.3       3 GLC5        0.0000 
     26 CA         81.0680   20.8700   70.1720 C.3       9 GLL5        0.0000 
     27 CA         80.5970   17.9470   67.0390 C.3       6 GLP5        0.0000 
     28 CA         84.8695   21.3375   69.6835 C.3       3 GLC5        0.0000 
     29 CA         83.6830   21.4360   67.7770 C.3       9 GLL5        0.0000 
     30 CA         86.0560   21.2390   71.5900 C.3       6 GLP5        0.0000 
     31 CA         84.2630   26.5740   68.0835 C.3       3 GLC5        0.0000 
     32 CA         84.1890   24.7660   69.3750 C.3       9 GLL5        0.0000 
     33 CA         84.3370   28.3820   66.7920 C.3       6 GLP5        0.0000 
     34 CA         85.8910   24.4085   72.5085 C.3       3 GLC5        0.0000 
     35 CA         85.0720   25.0040   70.6000 C.3       9 GLL5        0.0000 
     36 CA         86.7100   23.8130   74.4170 C.3       6 GLP5        0.0000 
     37 CA         85.5640   23.1215   71.0950 C.3       3 GLC5        0.0000 
     38 CA         87.0380   26.1760   70.4180 C.3       3 GLC5        0.0000 
     39 CA         84.9930   26.4600   71.0730 C.3       9 GLL5        0.0000 
     40 CA         89.0830   25.8920   69.7630 C.3       6 GLP5        0.0000 
     41 CA         85.1625   26.0515   73.2280 C.3       3 GLC5        0.0000 
     42 CA         83.6000   27.1965   72.5940 C.3       3 GLC5        0.0000 
     43 CA         84.4865   27.9395   69.4690 C.3       3 GLC5        0.0000 
     44 CA         83.9800   29.4190   67.8650 C.3       6 GLP5        0.0000 
     45 N          87.8010   26.7325   71.9575 N.am      2 SEC2        0.0000 
     46 N          86.0930   26.7080   71.9210 N.am      8 SEL2        0.0000 
     47 N          89.5090   26.7570   71.9940 N.am      5 SEP2        0.0000 
     48 CA         87.6250   26.9505   71.1070 C.3       3 GLC5        0.0000 
     49 CA         86.1670   28.0090   72.4510 C.3       9 GLL5        0.0000 
     50 CA         88.0530   28.3600   72.9500 C.3       3 GLC5        0.0000 
     51 CA         89.9390   28.7110   73.4490 C.3       6 GLP5        0.0000 
     52 CA         85.7495   26.8260   73.9170 C.3       3 GLC5        0.0000 
     53 CA         86.6950   29.9670   73.0540 C.3       3 GLC5        0.0000 
     54 CA         87.2230   31.9250   73.6570 C.3       6 GLP5        0.0000 
     55 CA         84.1870   27.9710   73.2830 C.3       3 GLC5        0.0000 
     56 CA         85.3570   19.4635   64.7775 C.3       3 GLC5        0.0000 
     57 CA         84.3290   21.0230   65.3080 C.3       9 GLL5        0.0000 
     58 CA         86.3850   17.9040   64.2470 C.3       6 GLP5        0.0000 
     59 CA         78.0410   23.0450   72.3955 C.3       3 GLC5        0.0000 
     60 CA         79.7660   23.9800   72.0390 C.3       9 GLL5        0.0000 
     61 CA         76.4430   21.7940   72.1980 C.3       6 GLP5        0.0000 
     62 CA         81.4740   24.8635   76.0057 C.3       3 GLC5        0.0000 
     63 CA         81.3800   26.1400   77.5970 C.3       6 GLP5        0.0000 
     64 CA         81.9710   22.1230   75.4608 C.3       3 GLC5        0.0000 
     65 CA         82.3740   20.6590   76.5070 C.3       6 GLP5        0.0000 
     66 CA         78.4190   22.0793   71.6497 C.3       3 GLC5        0.0000 
     67 CA         80.5600   23.0410   71.2150 C.3       9 GLL5        0.0000 
     68 CA         86.4898   24.3145   69.2837 C.3       3 GLC5        0.0000 
     69 CA         88.3490   23.7440   68.5800 C.3       6 GLP5        0.0000 
     70 CA         82.7720   19.5772   65.1880 C.3       3 GLC5        0.0000 
     71 CA         81.4200   18.0750   65.7420 C.3       6 GLP5        0.0000 
     72 CA         84.7080   19.5027   62.8178 C.3       3 GLC5        0.0000 
     73 CA         83.9190   21.1360   63.9600 C.3       9 GLL5        0.0000 
     74 CA         85.0570   17.9920   62.1610 C.3       6 GLP5        0.0000 
     75 CA         82.0708   19.7785   65.9428 C.3       3 GLC5        0.0000 
     76 CA         83.3810   21.3050   66.3220 C.3       9 GLL5        0.0000 
     77 CA         79.5150   22.1058   65.7678 C.3       3 GLC5        0.0000 
     78 CA         82.0620   21.6590   65.9650 C.3       9 GLL5        0.0000 
     79 CA         77.8790   22.2970   66.6990 C.3       6 GLP5        0.0000 
     80 CA         81.3526   19.9759   64.9925 C.3       3 GLC5        0.0000 
     81 CA         80.4270   22.1180   64.3770 C.3       9 GLL5        0.0000 
@<TRIPOS>BOND
@<TRIPOS>SUBSTRUCTURE
     1 ALC1        6 GROUP        1 X    ALC  0     ROOT ALC X 1
     2 SEC2       45 GROUP        1 X    SEC  0     **** SEC X 2
     3 GLC5        1 GROUP        1 X    GLC  0     **** GLC X 6
     4 ALP1        8 GROUP        1 Y    ALP  0     ROOT ALP Y 8
     5 SEP2       47 GROUP        1 Y    SEP  0     **** SEP Y 9
     6 GLP5        3 GROUP        1 Y    GLP  0     **** GLP Y 13
     7 ALL1        7 GROUP        1 Z    ALL  0     ROOT ALL Z 15
     8 SEL2       46 GROUP        1 Z    SEL  0     **** SEL Z 16
     9 GLL5        2 GROUP        1 Z    GLL  0     **** GLL Z 20
@<TRIPOS>SET

