#    Name: 2g1s_4IG_1_ligand
#    Modification time : Tue Mar 25 13:25:00 2014

@<TRIPOS>MOLECULE
2g1s_4IG_1_ligand
   59    62     1     0     0
SMALL
NO_CHARGES


@<TRIPOS>ATOM
      1 C1         78.8340   24.8840   71.4570 C.ar      1 4IG885      0.0000 
      2 N1         78.2340   25.8950   72.1340 N.ar      1 4IG885      0.0000 
      3 C2         78.5360   26.0040   73.4320 C.ar      1 4IG885      0.0000 
      4 N2         79.3640   25.1780   74.0920 N.ar      1 4IG885      0.0000 
      5 C3         79.9780   24.1600   73.4380 C.ar      1 4IG885      0.0000 
      6 C4         79.7660   23.9800   72.0390 C.ar      1 4IG885      0.0000 
      7 N3         78.5040   24.7840   70.1570 N.pl3     1 4IG885      0.0000 
      8 N4         77.9990   26.9980   74.1300 N.pl3     1 4IG885      0.0000 
      9 C5         80.8890   23.2670   74.2690 C.3       1 4IG885      0.0000 
     10 C6         82.2470   23.9070   74.5600 C.3       1 4IG885      0.0000 
     11 C7         80.2300   21.6880   70.9880 C.ar      1 4IG885      0.0000 
     12 C8         81.0680   20.8700   70.1720 C.ar      1 4IG885      0.0000 
     13 C9         82.2350   21.4110   69.5800 C.ar      1 4IG885      0.0000 
     14 C10        82.5810   22.8050   69.8100 C.ar      1 4IG885      0.0000 
     15 C11        81.7210   23.5610   70.6230 C.ar      1 4IG885      0.0000 
     16 C12        80.5600   23.0410   71.2150 C.ar      1 4IG885      0.0000 
     17 O3         83.0620   20.5800   68.7560 O.3       1 4IG885      0.0000 
     18 C14        83.6830   21.4360   67.7770 C.3       1 4IG885      0.0000 
     19 C15        84.5630   22.5560   68.3650 C.2       1 4IG885      0.0000 
     20 N5         83.7600   23.3450   69.1980 N.am      1 4IG885      0.0000 
     21 C16        84.1890   24.7660   69.3750 C.3       1 4IG885      0.0000 
     22 C17        85.0720   25.0040   70.6000 C.3       1 4IG885      0.0000 
     23 C18        84.9930   26.4600   71.0730 C.3       1 4IG885      0.0000 
     24 O1         86.0930   26.7080   71.9210 O.3       1 4IG885      0.0000 
     25 C19        86.1670   28.0090   72.4510 C.3       1 4IG885      0.0000 
     26 O4         85.7250   22.7320   68.0630 O.2       1 4IG885      0.0000 
     27 C20        83.9190   21.1360   63.9600 C.ar      1 4IG885      0.0000 
     28 C21        84.3290   21.0230   65.3080 C.ar      1 4IG885      0.0000 
     29 C22        83.3810   21.3050   66.3220 C.ar      1 4IG885      0.0000 
     30 C23        82.0620   21.6590   65.9650 C.ar      1 4IG885      0.0000 
     31 C24        81.6880   21.7630   64.6270 C.ar      1 4IG885      0.0000 
     32 C25        82.5990   21.5080   63.5910 C.ar      1 4IG885      0.0000 
     33 F2         84.7990   20.8910   62.9890 F         1 4IG885      0.0000 
     34 F1         80.4270   22.1180   64.3770 F         1 4IG885      0.0000 
     35 H          77.5962   25.1201   69.9064 H         1 4IG885      0.0000 
     36 H          79.1960   24.3825   69.5570 H         1 4IG885      0.0000 
     37 H          77.4274   27.6377   73.6163 H         1 4IG885      0.0000 
     38 H          78.2148   27.0170   75.1063 H         1 4IG885      0.0000 
     39 H          81.0486   22.3195   73.7371 H         1 4IG885      0.0000 
     40 H          80.3943   23.0330   75.2212 H         1 4IG885      0.0000 
     41 H          79.3900   21.2859   71.4059 H         1 4IG885      0.0000 
     42 H          80.8210   19.8927   70.0177 H         1 4IG885      0.0000 
     43 H          81.9595   24.5673   70.7965 H         1 4IG885      0.0000 
     44 H          84.8066   20.5799   67.6850 H         1 4IG885      0.0000 
     45 H          83.2978   25.4169   69.4564 H         1 4IG885      0.0000 
     46 H          84.7409   25.1032   68.4771 H         1 4IG885      0.0000 
     47 H          86.1065   24.7659   70.3496 H         1 4IG885      0.0000 
     48 H          84.7491   24.3480   71.4092 H         1 4IG885      0.0000 
     49 H          84.0364   26.5880   71.5829 H         1 4IG885      0.0000 
     50 H          85.0000   27.0945   70.1848 H         1 4IG885      0.0000 
     51 H          85.2697   20.7494   65.5427 H         1 4IG885      0.0000 
     52 H          81.3732   21.8411   66.7091 H         1 4IG885      0.0000 
     53 H          82.3366   21.5831   62.6263 H         1 4IG885      0.0000 
     54 H          82.8317   23.3059   75.1048 H         1 4IG885      0.0000 
     55 H          82.7459   24.1181   73.7194 H         1 4IG885      0.0000 
     56 H          82.1528   24.7633   75.0678 H         1 4IG885      0.0000 
     57 H          86.9667   28.1251   73.0400 H         1 4IG885      0.0000 
     58 H          86.2303   28.7002   71.7311 H         1 4IG885      0.0000 
     59 H          85.3626   28.2320   73.0016 H         1 4IG885      0.0000 
@<TRIPOS>BOND
     1    2    1 ar   
     2    6    1 ar   
     3    7    1 1    
     4    3    2 ar   
     5    4    3 ar   
     6    8    3 1    
     7    5    4 ar   
     8    6    5 ar   
     9    9    5 1    
    10   16    6 1    
    11   35    7 1    
    12   36    7 1    
    13   37    8 1    
    14   38    8 1    
    15   10    9 1    
    16   39    9 1    
    17   40    9 1    
    18   54   10 1    
    19   55   10 1    
    20   56   10 1    
    21   12   11 ar   
    22   16   11 ar   
    23   41   11 1    
    24   13   12 ar   
    25   42   12 1    
    26   14   13 ar   
    27   17   13 1    
    28   15   14 ar   
    29   20   14 1    
    30   16   15 ar   
    31   43   15 1    
    32   18   17 1    
    33   19   18 1    
    34   29   18 1    
    35   44   18 1    
    36   20   19 am   
    37   26   19 2    
    38   21   20 1    
    39   22   21 1    
    40   45   21 1    
    41   46   21 1    
    42   23   22 1    
    43   47   22 1    
    44   48   22 1    
    45   24   23 1    
    46   49   23 1    
    47   50   23 1    
    48   25   24 1    
    49   57   25 1    
    50   58   25 1    
    51   59   25 1    
    52   28   27 ar   
    53   32   27 ar   
    54   33   27 1    
    55   29   28 ar   
    56   51   28 1    
    57   30   29 ar   
    58   31   30 ar   
    59   52   30 1    
    60   32   31 ar   
    61   34   31 1    
    62   53   32 1    
@<TRIPOS>SUBSTRUCTURE
     1 4IG885      1 GROUP   
@<TRIPOS>SET

