#    Name: 1hbv_GAN_1_INTS_M
#    Modification time : Tue Mar 25 05:21:00 2014

@<TRIPOS>MOLECULE
1hbv_GAN_1_INTS_M
   68     0    12     0     0
SMALL
NO_CHARGES


@<TRIPOS>ATOM
      1 OD1        -6.1395   17.1135   18.1215 O.co2     3 ASC3        0.0000 
      2 OD1        -4.4280   16.7710   18.8980 O.co2    11 ASL3        0.0000 
      3 OD1        -7.8510   17.4560   17.3450 O.co2     7 ASP3        0.0000 
      4 O          -5.8395   15.8795   22.3035 O.2       1 ALC1        0.0000 
      5 O          -6.3570   17.1560   21.7790 O.2       9 ALL1        0.0000 
      6 O          -5.3220   14.6030   22.8280 O.2       5 ALP1        0.0000 
      7 CA        -10.0270   18.1455   22.1645 C.3       4 GLC5        0.0000 
      8 CA         -8.7050   16.7170   21.4720 C.3      12 GLL5        0.0000 
      9 CA        -11.3490   19.5740   22.8570 C.3       8 GLP5        0.0000 
     10 CA         -8.7165   14.8840   20.4630 C.3       4 GLC5        0.0000 
     11 CA         -8.7280   13.0510   19.4540 C.3       8 GLP5        0.0000 
     12 CA         -6.0160   19.9155   28.3240 C.3       4 GLC5        0.0000 
     13 CA         -5.8960   19.0210   26.6480 C.3      12 GLL5        0.0000 
     14 CA         -6.1360   20.8100   30.0000 C.3       8 GLP5        0.0000 
     15 CA         -4.3880   16.0960   28.2720 C.3       4 GLC5        0.0000 
     16 CA         -4.2900   17.0960   26.2770 C.3      12 GLL5        0.0000 
     17 CA         -4.4860   15.0960   30.2670 C.3       8 GLP5        0.0000 
     18 CA        -12.6400   15.6545   24.8860 C.3       4 GLC5        0.0000 
     19 CA        -11.5120   16.7700   25.5720 C.3      12 GLL5        0.0000 
     20 CA        -13.7680   14.5390   24.2000 C.3       8 GLP5        0.0000 
     21 CA        -10.9480   12.0475   29.5715 C.3       4 GLC5        0.0000 
     22 CA        -12.7940   12.9710   28.9620 C.3      12 GLL5        0.0000 
     23 CA         -9.1020   11.1240   30.1810 C.3       8 GLP5        0.0000 
     24 CA        -11.9015   12.4960   27.2550 C.3       4 GLC5        0.0000 
     25 CA        -11.0090   12.0210   25.5480 C.3       8 GLP5        0.0000 
     26 CA         -8.3655   18.9055   32.1630 C.3       4 GLC5        0.0000 
     27 CA         -8.8090   16.9480   31.9160 C.3      12 GLL5        0.0000 
     28 CA         -7.9220   20.8630   32.4100 C.3       8 GLP5        0.0000 
     29 CA         -7.0240   14.0860   31.9875 C.3       4 GLC5        0.0000 
     30 CA         -8.0810   15.0700   33.1780 C.3      12 GLL5        0.0000 
     31 CA         -5.9670   13.1020   30.7970 C.3       8 GLP5        0.0000 
     32 N         -12.8195   17.4380   34.3905 N.am      2 SEC2        0.0000 
     33 N         -12.0240   16.3120   34.1420 N.am     10 SEL2        0.0000 
     34 N         -13.6150   18.5640   34.6390 N.am      6 SEP2        0.0000 
     35 CA        -10.6070   13.0405   35.0125 C.3       4 GLC5        0.0000 
     36 CA        -12.4540   13.1010   33.7960 C.3      12 GLL5        0.0000 
     37 CA         -8.7600   12.9800   36.2290 C.3       8 GLP5        0.0000 
     38 CA         -8.8054   19.2214   23.3331 C.3       4 GLC5        0.0000 
     39 CA         -7.6940   17.3450   23.7270 C.3      12 GLL5        0.0000 
     40 CA        -10.2400   20.5800   22.9060 C.3       8 GLP5        0.0000 
     41 CA         -2.9215   19.9975   26.2560 C.3       4 GLC5        0.0000 
     42 CA         -4.6210   18.4400   26.0610 C.3      12 GLL5        0.0000 
     43 CA         -1.6140   21.1580   26.8720 C.3       8 GLP5        0.0000 
     44 CA         -2.0868   19.5888   25.7795 C.3       4 GLC5        0.0000 
     45 CA         -2.3980   17.3520   24.7890 C.3      12 GLL5        0.0000 
     46 CA         -4.5595   15.2115   25.7220 C.3       4 GLC5        0.0000 
     47 CA         -3.1800   16.5660   25.6330 C.3      12 GLL5        0.0000 
     48 CA         -5.3840   13.5920   25.4890 C.3       8 GLP5        0.0000 
     49 CA         -8.5435   13.9885   25.0138 C.3       4 GLC5        0.0000 
     50 CA         -8.3080   16.0710   24.2740 C.3      12 GLL5        0.0000 
     51 CA         -8.5120   11.8760   25.0210 C.3       8 GLP5        0.0000 
     52 CA         -6.9795   14.8465   25.2478 C.3       4 GLC5        0.0000 
     53 CA        -11.2360   18.3675   24.4847 C.3       4 GLC5        0.0000 
     54 CA        -10.7340   17.5520   26.6530 C.3      12 GLL5        0.0000 
     55 CA        -15.2510   15.5718   28.9068 C.3       4 GLC5        0.0000 
     56 CA        -13.4480   14.3020   29.2470 C.3      12 GLL5        0.0000 
     57 CA        -16.6300   16.9190   27.9570 C.3       8 GLP5        0.0000 
     58 CA        -15.0155   13.1479   28.6571 C.3       4 GLC5        0.0000 
     59 CA        -16.6980   12.6980   27.9050 C.3       8 GLP5        0.0000 
     60 CA        -10.1445   18.0650   32.5270 C.3       4 GLC5        0.0000 
     61 CA         -9.2350   16.0340   33.0340 C.3      12 GLL5        0.0000 
     62 CA        -11.2670   19.6390   32.5790 C.3       8 GLP5        0.0000 
     63 CA         -7.4275   16.4035   34.5210 C.3       4 GLC5        0.0000 
     64 CA         -6.1970   17.2550   35.9360 C.3       8 GLP5        0.0000 
     65 CA         -8.7354   14.8806   34.7365 C.3       4 GLC5        0.0000 
     66 CA         -8.5070   14.4440   36.4340 C.3       8 GLP5        0.0000 
     67 CA         -2.0973   17.0901   26.6265 C.3       4 GLC5        0.0000 
     68 CA         -1.0060   16.5870   27.9590 C.3       8 GLP5        0.0000 
@<TRIPOS>BOND
@<TRIPOS>SUBSTRUCTURE
     1 ALC1        4 GROUP        1 X    ALC  0     ROOT ALC X 1
     2 SEC2       32 GROUP        1 X    SEC  0     **** SEC X 2
     3 ASC3        1 GROUP        1 X    ASC  0     **** ASC X 3
     4 GLC5        7 GROUP        1 X    GLC  0     **** GLC X 6
     5 ALP1        6 GROUP        1 Y    ALP  0     ROOT ALP Y 8
     6 SEP2       34 GROUP        1 Y    SEP  0     **** SEP Y 9
     7 ASP3        3 GROUP        1 Y    ASP  0     **** ASP Y 10
     8 GLP5        9 GROUP        1 Y    GLP  0     **** GLP Y 13
     9 ALL1        5 GROUP        1 Z    ALL  0     ROOT ALL Z 15
    10 SEL2       33 GROUP        1 Z    SEL  0     **** SEL Z 16
    11 ASL3        2 GROUP        1 Z    ASL  0     **** ASL Z 17
    12 GLL5        8 GROUP        1 Z    GLL  0     **** GLL Z 20
@<TRIPOS>SET

