#    Name: 1hbv_GAN_1_ligand
#    Modification time : Tue Mar 25 05:21:01 2014

@<TRIPOS>MOLECULE
1hbv_GAN_1_ligand
   95    96     1     0     0
SMALL
NO_CHARGES


@<TRIPOS>ATOM
      1 N1         -4.4280   16.7710   18.8980 N.4       1 GAN600      0.0000 
      2 C2         -4.3680   17.2180   20.3280 C.3       1 GAN600      0.0000 
      3 C3         -3.3620   18.3720   20.4750 C.3       1 GAN600      0.0000 
      4 C4         -5.7600   17.7000   20.7290 C.2       1 GAN600      0.0000 
      5 O5         -6.2830   18.5900   20.0580 O.2       1 GAN600      0.0000 
      6 N6         -6.3570   17.1560   21.7790 N.am      1 GAN600      0.0000 
      7 C7         -7.6830   17.5640   22.2180 C.3       1 GAN600      0.0000 
      8 C8         -8.7050   16.7170   21.4720 C.3       1 GAN600      0.0000 
      9 C9         -7.6940   17.3450   23.7270 C.2       1 GAN600      0.0000 
     10 C10        -7.0530   18.2710   24.5480 C.2       1 GAN600      0.0000 
     11 C11        -7.0060   18.1300   26.0900 C.3       1 GAN600      0.0000 
     12 C12        -5.8960   19.0210   26.6480 C.3       1 GAN600      0.0000 
     13 C13        -4.6210   18.4400   26.0610 C.ar      1 GAN600      0.0000 
     14 C14        -3.8370   19.2340   25.2190 C.ar      1 GAN600      0.0000 
     15 C15        -2.7210   18.6870   24.5850 C.ar      1 GAN600      0.0000 
     16 C16        -2.3980   17.3520   24.7890 C.ar      1 GAN600      0.0000 
     17 C17        -3.1800   16.5660   25.6330 C.ar      1 GAN600      0.0000 
     18 C18        -4.2900   17.0960   26.2770 C.ar      1 GAN600      0.0000 
     19 C19        -8.3400   18.4400   26.7670 C.3       1 GAN600      0.0000 
     20 C20        -8.3080   16.0710   24.2740 C.3       1 GAN600      0.0000 
     21 C21        -8.8420   16.1310   25.7390 C.3       1 GAN600      0.0000 
     22 N22        -9.3220   17.4680   26.2090 N.4       1 GAN600      0.0000 
     23 C23       -10.7340   17.5520   26.6530 C.3       1 GAN600      0.0000 
     24 C24       -11.5120   16.7700   25.5720 C.3       1 GAN600      0.0000 
     25 C25       -11.1870   17.1440   28.0890 C.2       1 GAN600      0.0000 
     26 O26       -10.8830   17.8630   29.0480 O.2       1 GAN600      0.0000 
     27 N27       -11.9160   16.0210   28.2460 N.am      1 GAN600      0.0000 
     28 C28       -12.4280   15.5100   29.5150 C.3       1 GAN600      0.0000 
     29 C29       -13.4480   14.3020   29.2470 C.3       1 GAN600      0.0000 
     30 C30       -14.2960   14.1470   30.4660 C.3       1 GAN600      0.0000 
     31 C31       -12.7940   12.9710   28.9620 C.3       1 GAN600      0.0000 
     32 C32       -11.2970   15.0750   30.4500 C.2       1 GAN600      0.0000 
     33 O33       -10.3540   14.3820   30.0320 O.2       1 GAN600      0.0000 
     34 N34       -11.4050   15.4490   31.7110 N.am      1 GAN600      0.0000 
     35 C35       -10.4580   15.0950   32.7660 C.3       1 GAN600      0.0000 
     36 C37        -9.2350   16.0340   33.0340 C.3       1 GAN600      0.0000 
     37 C38        -8.8090   16.9480   31.9160 C.3       1 GAN600      0.0000 
     38 C39        -8.0810   15.0700   33.1780 C.3       1 GAN600      0.0000 
     39 C40       -11.3900   15.2500   33.9910 C.2       1 GAN600      0.0000 
     40 O36       -12.0240   16.3120   34.1420 O.2       1 GAN600      0.0000 
     41 O41       -11.8900   14.1670   34.6250 O.3       1 GAN600      0.0000 
     42 C42       -12.4540   13.1010   33.7960 C.3       1 GAN600      0.0000 
     43 H          -4.0800   16.4133   20.9549 H         1 GAN600      0.0000 
     44 H          -5.9055   16.4032   22.3486 H         1 GAN600      0.0000 
     45 H          -7.8364   18.5943   22.0089 H         1 GAN600      0.0000 
     46 H          -6.5760   19.0982   24.1794 H         1 GAN600      0.0000 
     47 H          -6.7357   17.0922   26.3162 H         1 GAN600      0.0000 
     48 H          -5.8762   18.9452   27.7078 H         1 GAN600      0.0000 
     49 H          -6.0327   20.0179   26.3062 H         1 GAN600      0.0000 
     50 H          -4.0832   20.2186   25.0680 H         1 GAN600      0.0000 
     51 H          -2.1430   19.2715   23.9709 H         1 GAN600      0.0000 
     52 H          -1.5814   16.9410   24.3178 H         1 GAN600      0.0000 
     53 H          -2.9280   15.5732   25.7805 H         1 GAN600      0.0000 
     54 H          -4.8585   16.5212   26.8980 H         1 GAN600      0.0000 
     55 H          -8.6283   19.4467   26.5299 H         1 GAN600      0.0000 
     56 H          -8.2353   18.3051   27.8270 H         1 GAN600      0.0000 
     57 H          -7.5620   15.2490   24.2201 H         1 GAN600      0.0000 
     58 H          -9.1502   15.7570   23.6204 H         1 GAN600      0.0000 
     59 H          -8.0296   15.7652   26.4042 H         1 GAN600      0.0000 
     60 H          -9.6603   15.3832   25.8255 H         1 GAN600      0.0000 
     61 H          -9.4746   18.0134   25.0436 H         1 GAN600      0.0000 
     62 H         -11.0755   18.6199   26.4877 H         1 GAN600      0.0000 
     63 H         -12.1629   15.4248   27.3988 H         1 GAN600      0.0000 
     64 H         -13.0129   16.2812   30.0219 H         1 GAN600      0.0000 
     65 H         -14.0770   14.5929   28.4232 H         1 GAN600      0.0000 
     66 H         -12.2176   16.0506   32.0388 H         1 GAN600      0.0000 
     67 H         -10.1696   14.0903   32.7363 H         1 GAN600      0.0000 
     68 H          -9.3573   16.5384   33.9410 H         1 GAN600      0.0000 
     69 H          -3.5394   16.4481   18.5722 H         1 GAN600      0.0000 
     70 H          -5.0771   16.0211   18.7702 H         1 GAN600      0.0000 
     71 H          -4.7121   17.5116   18.2890 H         1 GAN600      0.0000 
     72 H          -2.4402   18.0984   20.2002 H         1 GAN600      0.0000 
     73 H          -3.6144   19.1587   19.9117 H         1 GAN600      0.0000 
     74 H          -3.3026   18.6949   21.4196 H         1 GAN600      0.0000 
     75 H          -8.6365   16.8388   20.4818 H         1 GAN600      0.0000 
     76 H          -8.5845   15.7416   21.6564 H         1 GAN600      0.0000 
     77 H          -9.6419   16.9509   21.7319 H         1 GAN600      0.0000 
     78 H         -11.3941   17.1735   24.6647 H         1 GAN600      0.0000 
     79 H         -11.2091   15.8189   25.5114 H         1 GAN600      0.0000 
     80 H         -12.4940   16.7534   25.7601 H         1 GAN600      0.0000 
     81 H         -13.7475   13.9405   31.2762 H         1 GAN600      0.0000 
     82 H         -14.8135   14.9788   30.6666 H         1 GAN600      0.0000 
     83 H         -14.9599   13.4060   30.3648 H         1 GAN600      0.0000 
     84 H         -12.2101   13.0102   28.1511 H         1 GAN600      0.0000 
     85 H         -12.2194   12.6691   29.7227 H         1 GAN600      0.0000 
     86 H         -13.4700   12.2517   28.8019 H         1 GAN600      0.0000 
     87 H          -8.0233   17.5099   32.1746 H         1 GAN600      0.0000 
     88 H          -8.5469   16.4366   31.0976 H         1 GAN600      0.0000 
     89 H          -9.5416   17.5739   31.6484 H         1 GAN600      0.0000 
     90 H          -7.2576   15.5245   33.5178 H         1 GAN600      0.0000 
     91 H          -8.2924   14.3304   33.8170 H         1 GAN600      0.0000 
     92 H          -7.8418   14.6441   32.3054 H         1 GAN600      0.0000 
     93 H         -11.7763   12.7233   33.1650 H         1 GAN600      0.0000 
     94 H         -12.7948   12.3410   34.3495 H         1 GAN600      0.0000 
     95 H         -13.2203   13.4271   33.2424 H         1 GAN600      0.0000 
@<TRIPOS>BOND
     1    2    1 1    
     2   69    1 1    
     3   70    1 1    
     4   71    1 1    
     5    3    2 1    
     6    4    2 1    
     7   43    2 1    
     8   72    3 1    
     9   73    3 1    
    10   74    3 1    
    11    5    4 2    
    12    6    4 am   
    13    7    6 1    
    14   44    6 1    
    15    8    7 1    
    16    9    7 1    
    17   45    7 1    
    18   75    8 1    
    19   76    8 1    
    20   77    8 1    
    21   10    9 2    
    22   20    9 1    
    23   11   10 1    
    24   46   10 1    
    25   12   11 1    
    26   19   11 1    
    27   47   11 1    
    28   13   12 1    
    29   48   12 1    
    30   49   12 1    
    31   14   13 ar   
    32   18   13 ar   
    33   15   14 ar   
    34   50   14 1    
    35   16   15 ar   
    36   51   15 1    
    37   17   16 ar   
    38   52   16 1    
    39   18   17 ar   
    40   53   17 1    
    41   54   18 1    
    42   22   19 1    
    43   55   19 1    
    44   56   19 1    
    45   21   20 1    
    46   57   20 1    
    47   58   20 1    
    48   22   21 1    
    49   59   21 1    
    50   60   21 1    
    51   23   22 1    
    52   61   22 1    
    53   24   23 1    
    54   25   23 1    
    55   62   23 1    
    56   78   24 1    
    57   79   24 1    
    58   80   24 1    
    59   26   25 2    
    60   27   25 am   
    61   28   27 1    
    62   63   27 1    
    63   29   28 1    
    64   32   28 1    
    65   64   28 1    
    66   30   29 1    
    67   31   29 1    
    68   65   29 1    
    69   81   30 1    
    70   82   30 1    
    71   83   30 1    
    72   84   31 1    
    73   85   31 1    
    74   86   31 1    
    75   33   32 2    
    76   34   32 am   
    77   35   34 1    
    78   66   34 1    
    79   36   35 1    
    80   39   35 1    
    81   67   35 1    
    82   37   36 1    
    83   38   36 1    
    84   68   36 1    
    85   87   37 1    
    86   88   37 1    
    87   89   37 1    
    88   90   38 1    
    89   91   38 1    
    90   92   38 1    
    91   40   39 2    
    92   41   39 1    
    93   42   41 1    
    94   93   42 1    
    95   94   42 1    
    96   95   42 1    
@<TRIPOS>SUBSTRUCTURE
     1 GAN600      1 GROUP   
@<TRIPOS>SET

