#    Name: 1jjt_BDS_1_INTS_M
#    Modification time : Tue Mar 25 08:57:43 2014

@<TRIPOS>MOLECULE
1jjt_BDS_1_INTS_M
   65     0    12     0     0
SMALL
NO_CHARGES


@<TRIPOS>ATOM
      1 Zn         58.3285   27.7105   31.2785 Zn        3 ZIC7        0.0000 
      2 Zn         57.8030   26.9000   31.6360 Zn       11 ZIL7        0.0000 
      3 Zn         58.8540   28.5210   30.9210 Zn        7 ZIP7        0.0000 
      4 Zn         56.9165   27.1075   32.1920 Zn        3 ZIC7        0.0000 
      5 Zn         56.0300   27.3150   32.7480 Zn        7 ZIP7        0.0000 
      6 Zn         59.3510   27.4500   31.5775 Zn        3 ZIC7        0.0000 
      7 Zn         59.8480   26.3790   32.2340 Zn       11 ZIL7        0.0000 
      8 N          61.1950   25.6895   32.1465 N.am      1 SEC2        0.0000 
      9 N          59.8480   26.3790   32.2340 N.am      9 SEL2        0.0000 
     10 N          62.5420   25.0000   32.0590 N.am      5 SEP2        0.0000 
     11 CA         59.9880   22.4125   33.3370 C.3       4 GLC5        0.0000 
     12 CA         58.9370   23.7310   32.4450 C.3      12 GLL5        0.0000 
     13 CA         61.0390   21.0940   34.2290 C.3       8 GLP5        0.0000 
     14 CA         56.8945   19.7885   30.8890 C.3       4 GLC5        0.0000 
     15 CA         56.4800   21.3720   30.7130 C.3      12 GLL5        0.0000 
     16 CA         57.3090   18.2050   31.0650 C.3       8 GLP5        0.0000 
     17 CA         57.0190   20.1310   28.3575 C.3       4 GLC5        0.0000 
     18 CA         56.7150   21.8570   27.1600 C.3      12 GLL5        0.0000 
     19 CA         57.3230   18.4050   29.5550 C.3       8 GLP5        0.0000 
     20 CA         54.7195   21.7755   27.7985 C.3       4 GLC5        0.0000 
     21 CA         52.7240   21.6940   28.4370 C.3       8 GLP5        0.0000 
     22 CA         56.4500   22.8420   25.8705 C.3       4 GLC5        0.0000 
     23 CA         56.1850   23.8270   24.5810 C.3       8 GLP5        0.0000 
     24 NZ         58.1815   28.3005   35.8655 N.4       2 LYC4        0.0000 
     25 NZ         57.5670   27.2450   34.6300 N.4      10 LYL4        0.0000 
     26 NZ         58.7960   29.3560   37.1010 N.4       6 LYP4        0.0000 
     27 Zn         56.7985   27.2800   33.6890 Zn        3 ZIC7        0.0000 
     28 Zn         57.5670   27.2450   34.6300 Zn       11 ZIL7        0.0000 
     29 N          58.1815   28.3005   35.8655 N.am      1 SEC2        0.0000 
     30 N          57.5670   27.2450   34.6300 N.am      9 SEL2        0.0000 
     31 N          58.7960   29.3560   37.1010 N.am      5 SEP2        0.0000 
     32 NZ         59.0510   28.0945   36.4885 N.4       2 LYC4        0.0000 
     33 NZ         59.3060   26.8330   35.8760 N.4      10 LYL4        0.0000 
     34 N          59.0510   28.0945   36.4885 N.am      1 SEC2        0.0000 
     35 N          59.3060   26.8330   35.8760 N.am      9 SEL2        0.0000 
     36 N          60.5370   26.2095   36.3435 N.am      1 SEC2        0.0000 
     37 N          61.7680   25.5860   36.8110 N.am      5 SEP2        0.0000 
     38 CA         55.5345   22.9915   35.0925 C.3       4 GLC5        0.0000 
     39 CA         57.3350   24.1930   35.2490 C.3      12 GLL5        0.0000 
     40 CA         53.7340   21.7900   34.9360 C.3       8 GLP5        0.0000 
     41 CA         59.2480   25.6075   40.1095 C.3       4 GLC5        0.0000 
     42 CA         57.6010   25.0360   41.2320 C.3      12 GLL5        0.0000 
     43 CA         60.8950   26.1790   38.9870 C.3       8 GLP5        0.0000 
     44 CA         55.3685   25.4445   38.2480 C.3       4 GLC5        0.0000 
     45 CA         57.3590   24.8350   39.0030 C.3      12 GLL5        0.0000 
     46 CA         53.3780   26.0540   37.4930 C.3       8 GLP5        0.0000 
     47 CA         58.0953   20.7345   31.6050 C.3       4 GLC5        0.0000 
     48 CA         58.1780   23.0330   31.3310 C.3      12 GLL5        0.0000 
     49 CA         58.4720   18.9460   31.7070 C.3       8 GLP5        0.0000 
     50 CA         57.2590   20.2938   29.3788 C.3       4 GLC5        0.0000 
     51 CA         56.7650   21.6650   29.3740 C.3      12 GLL5        0.0000 
     52 CA         60.2839   24.8246   34.0498 C.3       4 GLC5        0.0000 
     53 CA         58.1260   24.9420   33.0130 C.3      12 GLL5        0.0000 
     54 CA         62.0750   24.9760   34.4680 C.3       8 GLP5        0.0000 
     55 CA         56.3353   25.6827   35.1472 C.3       4 GLC5        0.0000 
     56 CA         58.4540   25.0100   34.5340 C.3      12 GLL5        0.0000 
     57 CA         54.7760   26.7640   35.4030 C.3       8 GLP5        0.0000 
     58 CA         56.0615   25.6477   36.2993 C.3       4 GLC5        0.0000 
     59 CA         57.6160   24.0690   36.7340 C.3      12 GLL5        0.0000 
     60 CA         59.7108   24.5490   38.4360 C.3       4 GLC5        0.0000 
     61 CA         58.3830   22.9910   37.2010 C.3      12 GLL5        0.0000 
     62 CA         57.4002   26.9727   38.1205 C.3       4 GLC5        0.0000 
     63 CA         57.5820   29.0310   37.9110 C.3       8 GLP5        0.0000 
     64 CA         59.1554   25.4147   38.7150 C.3       4 GLC5        0.0000 
     65 CA         57.0780   24.9940   37.6570 C.3      12 GLL5        0.0000 
@<TRIPOS>BOND
@<TRIPOS>SUBSTRUCTURE
     1 SEC2        8 GROUP        1 X    SEC  0     ROOT SEC X 2
     2 LYC4       24 GROUP        1 X    LYC  0     **** LYC X 4
     3 ZIC7        1 GROUP        1 X    ZIC  0     **** ZIC X 5
     4 GLC5       11 GROUP        1 X    GLC  0     **** GLC X 6
     5 SEP2       10 GROUP        1 Y    SEP  0     ROOT SEP Y 9
     6 LYP4       26 GROUP        1 Y    LYP  0     **** LYP Y 11
     7 ZIP7        3 GROUP        1 Y    ZIP  0     **** ZIP Y 12
     8 GLP5       13 GROUP        1 Y    GLP  0     **** GLP Y 13
     9 SEL2        9 GROUP        1 Z    SEL  0     ROOT SEL Z 16
    10 LYL4       25 GROUP        1 Z    LYL  0     **** LYL Z 18
    11 ZIL7        2 GROUP        1 Z    ZIL  0     **** ZIL Z 19
    12 GLL5       12 GROUP        1 Z    GLL  0     **** GLL Z 20
@<TRIPOS>SET

