#    Name: 1jjt_BDS_1_ligand
#    Modification time : Tue Mar 25 08:57:44 2014

@<TRIPOS>MOLECULE
1jjt_BDS_1_ligand
   44    47     1     0     0
SMALL
NO_CHARGES


@<TRIPOS>ATOM
      1 C1         58.1260   24.9420   33.0130 C.3       1 BDS250      0.0000 
      2 C2         58.6070   26.1610   32.2540 C.2       1 BDS250      0.0000 
      3 O3         57.8030   26.9000   31.6360 O.co2     1 BDS250      0.0000 
      4 O4         59.8480   26.3790   32.2340 O.co2     1 BDS250      0.0000 
      5 C5         58.9370   23.7310   32.4450 C.3       1 BDS250      0.0000 
      6 C6         58.1780   23.0330   31.3310 C.ar      1 BDS250      0.0000 
      7 C7         57.2590   22.0130   31.6750 C.ar      1 BDS250      0.0000 
      8 C8         56.4800   21.3720   30.7130 C.ar      1 BDS250      0.0000 
      9 C9         56.7650   21.6650   29.3740 C.ar      1 BDS250      0.0000 
     10 O10        56.1730   21.1630   28.2860 O.3       1 BDS250      0.0000 
     11 C11        56.7150   21.8570   27.1600 C.3       1 BDS250      0.0000 
     12 O12        57.6100   22.8450   27.6980 O.3       1 BDS250      0.0000 
     13 C13        57.6250   22.7000   29.0310 C.ar      1 BDS250      0.0000 
     14 C14        58.3630   23.4020   29.9850 C.ar      1 BDS250      0.0000 
     15 C15        58.4540   25.0100   34.5340 C.3       1 BDS250      0.0000 
     16 C16        58.4420   26.4470   35.0360 C.2       1 BDS250      0.0000 
     17 O17        57.5670   27.2450   34.6300 O.co2     1 BDS250      0.0000 
     18 O18        59.3060   26.8330   35.8760 O.co2     1 BDS250      0.0000 
     19 C19        57.3350   24.1930   35.2490 C.3       1 BDS250      0.0000 
     20 C20        57.6160   24.0690   36.7340 C.ar      1 BDS250      0.0000 
     21 C21        58.3830   22.9910   37.2010 C.ar      1 BDS250      0.0000 
     22 C22        58.6700   22.8470   38.5690 C.ar      1 BDS250      0.0000 
     23 C23        58.1480   23.7790   39.4550 C.ar      1 BDS250      0.0000 
     24 O24        58.3240   23.8810   40.7770 O.3       1 BDS250      0.0000 
     25 C25        57.6010   25.0360   41.2320 C.3       1 BDS250      0.0000 
     26 O26        57.0740   25.6420   40.0380 O.3       1 BDS250      0.0000 
     27 C27        57.3590   24.8350   39.0030 C.ar      1 BDS250      0.0000 
     28 C28        57.0780   24.9940   37.6570 C.ar      1 BDS250      0.0000 
     29 H          57.1124   24.7608   32.8629 H         1 BDS250      0.0000 
     30 H          59.1249   23.0357   33.2605 H         1 BDS250      0.0000 
     31 H          59.8879   24.1046   32.0708 H         1 BDS250      0.0000 
     32 H          57.1696   21.7420   32.6711 H         1 BDS250      0.0000 
     33 H          55.7499   20.7314   30.9650 H         1 BDS250      0.0000 
     34 H          55.9226   22.3360   26.5842 H         1 BDS250      0.0000 
     35 H          57.2552   21.1706   26.5074 H         1 BDS250      0.0000 
     36 H          58.9969   24.1358   29.7297 H         1 BDS250      0.0000 
     37 H          59.3794   24.5450   34.7110 H         1 BDS250      0.0000 
     38 H          57.2897   23.2057   34.7950 H         1 BDS250      0.0000 
     39 H          56.3867   24.7014   35.0908 H         1 BDS250      0.0000 
     40 H          58.7416   22.2941   36.5318 H         1 BDS250      0.0000 
     41 H          59.2463   22.0768   38.8935 H         1 BDS250      0.0000 
     42 H          58.2642   25.7241   41.7477 H         1 BDS250      0.0000 
     43 H          56.7951   24.7449   41.8991 H         1 BDS250      0.0000 
     44 H          56.4955   25.7594   37.3246 H         1 BDS250      0.0000 
@<TRIPOS>BOND
     1    2    1 1    
     2    5    1 1    
     3   15    1 1    
     4   29    1 1    
     5    3    2 ar   
     6    4    2 ar   
     7    6    5 1    
     8   30    5 1    
     9   31    5 1    
    10    7    6 ar   
    11   14    6 ar   
    12    8    7 ar   
    13   32    7 1    
    14    9    8 ar   
    15   33    8 1    
    16   10    9 1    
    17   13    9 ar   
    18   11   10 1    
    19   12   11 1    
    20   34   11 1    
    21   35   11 1    
    22   13   12 1    
    23   14   13 ar   
    24   36   14 1    
    25   16   15 1    
    26   19   15 1    
    27   37   15 1    
    28   17   16 ar   
    29   18   16 ar   
    30   20   19 1    
    31   38   19 1    
    32   39   19 1    
    33   21   20 ar   
    34   28   20 ar   
    35   22   21 ar   
    36   40   21 1    
    37   23   22 ar   
    38   41   22 1    
    39   24   23 1    
    40   27   23 ar   
    41   25   24 1    
    42   26   25 1    
    43   42   25 1    
    44   43   25 1    
    45   27   26 1    
    46   28   27 ar   
    47   44   28 1    
@<TRIPOS>SUBSTRUCTURE
     1 BDS250      1 GROUP   
@<TRIPOS>SET

