#    Name: 3cjo_K30_2_INTS_M
#    Modification time : Mon Mar 24 21:43:11 2014

@<TRIPOS>MOLECULE
3cjo_K30_2_INTS_M
   75     0     3     0     0
SMALL
NO_CHARGES


@<TRIPOS>ATOM
      1 CA         40.3080   19.1720   46.4980 C.3       1 GLC5        0.0000 
      2 CA         40.3360   19.6720   48.4910 C.3       3 GLL5        0.0000 
      3 CA         40.2800   18.6720   44.5050 C.3       2 GLP5        0.0000 
      4 CA         38.4250   19.0225   48.7295 C.3       1 GLC5        0.0000 
      5 CA         36.5140   18.3730   48.9680 C.3       2 GLP5        0.0000 
      6 CA         39.5155   21.0520   49.0585 C.3       1 GLC5        0.0000 
      7 CA         38.6950   22.4320   49.6260 C.3       2 GLP5        0.0000 
      8 CA         40.4580   20.0750   50.6630 C.3       1 GLC5        0.0000 
      9 CA         40.5800   20.4780   52.8350 C.3       2 GLP5        0.0000 
     10 CA         39.4720   12.5075   46.3450 C.3       1 GLC5        0.0000 
     11 CA         41.5030   13.1800   45.7370 C.3       3 GLL5        0.0000 
     12 CA         37.4410   11.8350   46.9530 C.3       2 GLP5        0.0000 
     13 CA         43.2510   12.6430   47.8785 C.3       1 GLC5        0.0000 
     14 CA         41.6470   13.5290   47.0980 C.3       3 GLL5        0.0000 
     15 CA         44.8550   11.7570   48.6590 C.3       2 GLP5        0.0000 
     16 CA         41.4130   11.5745   46.2925 C.3       1 GLC5        0.0000 
     17 CA         41.1790    9.6200   45.4870 C.3       2 GLP5        0.0000 
     18 CA         37.3400   13.3380   53.0955 C.3       1 GLC5        0.0000 
     19 CA         36.0830   14.8740   52.5340 C.3       3 GLL5        0.0000 
     20 CA         38.5970   11.8020   53.6570 C.3       2 GLP5        0.0000 
     21 CA         35.0720   13.2510   52.7980 C.3       1 GLC5        0.0000 
     22 CA         34.0610   11.6280   53.0620 C.3       2 GLP5        0.0000 
     23 CA         39.3025   18.6625   52.6605 C.3       1 GLC5        0.0000 
     24 CA         38.0250   16.8470   52.4860 C.3       3 GLL5        0.0000 
     25 CA         41.9245   20.4060   46.1090 C.3       1 GLC5        0.0000 
     26 CA         42.8090   21.0170   47.8740 C.3       3 GLL5        0.0000 
     27 CA         41.0400   19.7950   44.3440 C.3       2 GLP5        0.0000 
     28 CA         40.3950   18.6550   51.7645 C.3       1 GLC5        0.0000 
     29 CA         40.2100   16.8320   50.6940 C.3       3 GLL5        0.0000 
     30 CA         43.6485   13.2170   49.3045 C.3       1 GLC5        0.0000 
     31 CA         42.4420   14.6770   49.9500 C.3       3 GLL5        0.0000 
     32 CA         36.5890   19.7125   54.3105 C.3       1 GLC5        0.0000 
     33 CA         37.0340   17.9410   54.1920 C.3       3 GLL5        0.0000 
     34 CA         36.1440   21.4840   54.4290 C.3       2 GLP5        0.0000 
     35 CA         38.4395   19.3395   54.1730 C.3       1 GLC5        0.0000 
     36 CA         39.8450   20.7380   54.1540 C.3       2 GLP5        0.0000 
     37 CA         37.6310   18.0035   56.3135 C.3       1 GLC5        0.0000 
     38 CA         38.2280   18.0660   58.4350 C.3       2 GLP5        0.0000 
     39 CA         35.7390   12.6425   50.6180 C.3       1 GLC5        0.0000 
     40 CA         37.3090   13.7320   50.8140 C.3       3 GLL5        0.0000 
     41 CA         34.1690   11.5530   50.4220 C.3       2 GLP5        0.0000 
     42 CA         36.8695   12.6650   49.4420 C.3       1 GLC5        0.0000 
     43 CA         36.4300   11.5980   48.0700 C.3       2 GLP5        0.0000 
     44 CA         40.4300   21.7115   49.9705 C.3       1 GLC5        0.0000 
     45 CA         42.1650   20.9910   50.3150 C.3       3 GLL5        0.0000 
     46 CA         42.2965   14.8265   45.2283 C.3       1 GLC5        0.0000 
     47 CA         40.1340   15.0510   45.4000 C.3       3 GLL5        0.0000 
     48 CA         44.1590   15.1670   45.3170 C.3       2 GLP5        0.0000 
     49 CA         40.3100   15.3680   43.6268 C.3       1 GLC5        0.0000 
     50 CA         40.7340   13.9210   44.8790 C.3       3 GLL5        0.0000 
     51 CA         40.1860   16.2500   42.1140 C.3       2 GLP5        0.0000 
     52 CA         40.7248   11.8367   44.8370 C.3       1 GLC5        0.0000 
     53 CA         40.3310   10.1230   44.3660 C.3       2 GLP5        0.0000 
     54 CA         38.5740   13.5655   45.5252 C.3       1 GLC5        0.0000 
     55 CA         36.7140   12.6450   45.9110 C.3       2 GLP5        0.0000 
     56 CA         42.8670   14.2607   45.8672 C.3       1 GLC5        0.0000 
     57 CA         42.4175   15.1020   46.2670 C.3       1 GLC5        0.0000 
     58 CA         41.0550   14.6570   47.6650 C.3       3 GLL5        0.0000 
     59 CA         35.2028   16.3820   51.2683 C.3       1 GLC5        0.0000 
     60 CA         35.9760   16.0220   53.4610 C.3       3 GLL5        0.0000 
     61 CA         34.3760   17.3160   49.5390 C.3       2 GLP5        0.0000 
     62 CA         37.3045   17.3370   50.5033 C.3       1 GLC5        0.0000 
     63 CA         38.1650   15.7550   51.5910 C.3       3 GLL5        0.0000 
     64 CA         41.4680   22.2127   47.6820 C.3       1 GLC5        0.0000 
     65 CA         39.6120   22.8530   47.2660 C.3       2 GLP5        0.0000 
     66 CA         39.3410   13.5895   51.2443 C.3       1 GLC5        0.0000 
     67 CA         39.3210   15.7070   50.6870 C.3       3 GLL5        0.0000 
     68 CA         39.1360   11.9360   52.2490 C.3       2 GLP5        0.0000 
     69 CA         38.1398   17.3212   49.8293 C.3       1 GLC5        0.0000 
     70 CA         36.5660   15.2073   49.5872 C.3       1 GLC5        0.0000 
     71 CA         35.8920   16.1740   47.9460 C.3       2 GLP5        0.0000 
     72 CA         41.6028   20.4868   51.5312 C.3       1 GLC5        0.0000 
     73 CA         35.1426   17.5779   54.8636 C.3       1 GLC5        0.0000 
     74 CA         33.5260   17.9520   55.9210 C.3       2 GLP5        0.0000 
     75 CA         38.3122   13.2140   51.7323 C.3       1 GLC5        0.0000 
@<TRIPOS>BOND
@<TRIPOS>SUBSTRUCTURE
     1 GLC5        1 GROUP        1 X    GLC  0     ROOT GLC X 6
     2 GLP5        3 GROUP        1 Y    GLP  0     ROOT GLP Y 13
     3 GLL5        2 GROUP        1 Z    GLL  0     ROOT GLL Z 20
@<TRIPOS>SET

