#    Name: 3cjo_K30_2_ligand
#    Modification time : Mon Mar 24 21:43:11 2014

@<TRIPOS>MOLECULE
3cjo_K30_2_ligand
   62    65     1     0     0
SMALL
NO_CHARGES


@<TRIPOS>ATOM
      1 C28        45.1570   23.0270   50.3700 C.3       1 K30603      0.0000 
      2 C22        40.3360   19.6720   48.4910 C.3       1 K30603      0.0000 
      3 C18        40.7340   13.9210   44.8790 C.ar      1 K30603      0.0000 
      4 C17        40.1340   15.0510   45.4000 C.ar      1 K30603      0.0000 
      5 C19        41.5030   13.1800   45.7370 C.ar      1 K30603      0.0000 
      6 C16        40.2970   15.4170   46.7690 C.ar      1 K30603      0.0000 
      7 C20        41.6470   13.5290   47.0980 C.ar      1 K30603      0.0000 
      8 C7         35.9760   16.0220   53.4610 C.ar      1 K30603      0.0000 
      9 C6         36.0830   14.8740   52.5340 C.ar      1 K30603      0.0000 
     10 C9         38.0250   16.8470   52.4860 C.ar      1 K30603      0.0000 
     11 C27        42.8090   21.0170   47.8740 C.3       1 K30603      0.0000 
     12 C26        43.8390   22.1280   48.3220 C.3       1 K30603      0.0000 
     13 C2         39.7710   14.7790   49.7920 C.2       1 K30603      0.0000 
     14 C24        44.3670   20.7430   50.2620 C.3       1 K30603      0.0000 
     15 C          40.2100   16.8320   50.6940 C.3       1 K30603      0.0000 
     16 C14        42.4420   14.6770   49.9500 C.3       1 K30603      0.0000 
     17 C15        41.0550   14.6570   47.6650 C.ar      1 K30603      0.0000 
     18 C8         36.9930   16.9110   53.3800 C.ar      1 K30603      0.0000 
     19 C5         37.1710   14.7490   51.6430 C.ar      1 K30603      0.0000 
     20 C4         38.1650   15.7550   51.5910 C.ar      1 K30603      0.0000 
     21 C12        42.8770   19.6970   48.7030 C.3       1 K30603      0.0000 
     22 C3         39.3210   15.7070   50.6870 C.2       1 K30603      0.0000 
     23 C23        43.0860   20.0000   50.1400 C.3       1 K30603      0.0000 
     24 C10        41.7040   17.5330   48.6430 C.2       1 K30603      0.0000 
     25 C1         41.1730   15.1080   49.2170 C.3       1 K30603      0.0000 
     26 N25        44.0420   22.1460   49.8420 N.4       1 K30603      0.0000 
     27 N          40.9960   16.6160   49.4520 N.am      1 K30603      0.0000 
     28 N11        41.6240   18.9490   48.6690 N.am      1 K30603      0.0000 
     29 O21        42.3370   13.3450   50.3480 O.3       1 K30603      0.0000 
     30 O          42.5760   17.0450   47.9560 O.2       1 K30603      0.0000 
     31 F13        37.0340   17.9410   54.1920 F         1 K30603      0.0000 
     32 F          37.3090   13.7320   50.8140 F         1 K30603      0.0000 
     33 F29        42.1650   20.9910   50.3150 F         1 K30603      0.0000 
     34 H          40.6083   13.6584   43.9109 H         1 K30603      0.0000 
     35 H          39.5497   15.6580   44.7997 H         1 K30603      0.0000 
     36 H          42.0022   12.3333   45.3941 H         1 K30603      0.0000 
     37 H          39.8299   16.2835   47.1017 H         1 K30603      0.0000 
     38 H          42.2287   12.9049   47.7053 H         1 K30603      0.0000 
     39 H          35.2010   16.0777   54.0650 H         1 K30603      0.0000 
     40 H          35.3413   14.1742   52.5612 H         1 K30603      0.0000 
     41 H          38.7347   17.6041   52.4434 H         1 K30603      0.0000 
     42 H          42.9945   20.7844   46.8191 H         1 K30603      0.0000 
     43 H          41.7990   21.4353   47.9535 H         1 K30603      0.0000 
     44 H          43.4599   23.0918   47.9889 H         1 K30603      0.0000 
     45 H          44.7862   21.9281   47.8255 H         1 K30603      0.0000 
     46 H          39.3370   13.9763   49.4883 H         1 K30603      0.0000 
     47 H          45.1038   20.3279   49.6022 H         1 K30603      0.0000 
     48 H          44.7062   20.7379   51.2796 H         1 K30603      0.0000 
     49 H          40.8649   16.8131   51.5398 H         1 K30603      0.0000 
     50 H          39.6774   17.7572   50.6241 H         1 K30603      0.0000 
     51 H          42.5746   15.3634   50.8021 H         1 K30603      0.0000 
     52 H          43.2878   14.8477   49.2641 H         1 K30603      0.0000 
     53 H          43.6838   19.1006   48.3457 H         1 K30603      0.0000 
     54 H          43.0147   19.2114   50.7303 H         1 K30603      0.0000 
     55 H          43.1100   22.4183   50.3197 H         1 K30603      0.0000 
     56 H          46.0480   22.7573   50.0048 H         1 K30603      0.0000 
     57 H          45.0188   23.9870   50.1264 H         1 K30603      0.0000 
     58 H          45.2237   22.9842   51.3669 H         1 K30603      0.0000 
     59 H          40.1782   20.3352   49.2226 H         1 K30603      0.0000 
     60 H          40.3093   20.1760   47.6277 H         1 K30603      0.0000 
     61 H          39.5560   19.0462   48.4893 H         1 K30603      0.0000 
     62 H          41.5732   12.9762   49.8183 H         1 K30603      0.0000 
@<TRIPOS>BOND
     1   26    1 1    
     2   56    1 1    
     3   57    1 1    
     4   58    1 1    
     5   28    2 1    
     6   59    2 1    
     7   60    2 1    
     8   61    2 1    
     9    4    3 ar   
    10    5    3 ar   
    11   34    3 1    
    12    6    4 ar   
    13   35    4 1    
    14    7    5 ar   
    15   36    5 1    
    16   17    6 ar   
    17   37    6 1    
    18   17    7 ar   
    19   38    7 1    
    20    9    8 ar   
    21   18    8 ar   
    22   39    8 1    
    23   19    9 ar   
    24   40    9 1    
    25   18   10 ar   
    26   20   10 ar   
    27   41   10 1    
    28   12   11 1    
    29   21   11 1    
    30   42   11 1    
    31   43   11 1    
    32   26   12 1    
    33   44   12 1    
    34   45   12 1    
    35   22   13 2    
    36   25   13 1    
    37   46   13 1    
    38   23   14 1    
    39   26   14 1    
    40   47   14 1    
    41   48   14 1    
    42   22   15 1    
    43   27   15 1    
    44   49   15 1    
    45   50   15 1    
    46   25   16 1    
    47   29   16 1    
    48   51   16 1    
    49   52   16 1    
    50   25   17 1    
    51   31   18 1    
    52   20   19 ar   
    53   32   19 1    
    54   22   20 1    
    55   23   21 1    
    56   28   21 1    
    57   53   21 1    
    58   33   23 1    
    59   54   23 1    
    60   27   24 am   
    61   28   24 am   
    62   30   24 2    
    63   27   25 1    
    64   55   26 1    
    65   62   29 1    
@<TRIPOS>SUBSTRUCTURE
     1 K30603      1 GROUP   
@<TRIPOS>SET

