#    Name: 1mv5_ADP_2_INTS_M
#    Modification time : Tue Mar 25 12:06:45 2014

@<TRIPOS>MOLECULE
1mv5_ADP_2_INTS_M
   54     0    12     0     0
SMALL
NO_CHARGES


@<TRIPOS>ATOM
      1 N          -1.8055   53.7415  103.0545 N.am      2 SEC2        0.0000 
      2 N          -1.5150   54.7480  103.9960 N.am     10 SEL2        0.0000 
      3 N          -2.0960   52.7350  102.1130 N.am      6 SEP2        0.0000 
      4 N          -1.0540   54.8910  102.5880 N.am      2 SEC2        0.0000 
      5 N          -0.5930   55.0340  101.1800 N.am      6 SEP2        0.0000 
      6 NZ         -3.1210   56.2710  105.8615 N.4       3 LYC4        0.0000 
      7 NZ         -1.2680   56.0930  105.9520 N.4      11 LYL4        0.0000 
      8 NZ         -4.9740   56.4490  105.7710 N.4       7 LYP4        0.0000 
      9 N          -1.4490   55.8325  107.5870 N.am      2 SEC2        0.0000 
     10 N          -1.2680   56.0930  105.9520 N.am     10 SEL2        0.0000 
     11 N          -1.6300   55.5720  109.2220 N.am      6 SEP2        0.0000 
     12 NZ         -3.9425   55.3775  105.7920 N.4       3 LYC4        0.0000 
     13 NZ         -2.9110   54.3060  105.8130 N.4      11 LYL4        0.0000 
     14 N          -2.7850   53.0455  106.4755 N.am      2 SEC2        0.0000 
     15 N          -2.9110   54.3060  105.8130 N.am     10 SEL2        0.0000 
     16 N          -2.6590   51.7850  107.1380 N.am      6 SEP2        0.0000 
     17 N          -3.1500   53.1000  105.2180 N.am      2 SEC2        0.0000 
     18 N          -3.3890   51.8940  104.6230 N.am      6 SEP2        0.0000 
     19 N          -3.9425   55.3775  105.7920 N.am      2 SEC2        0.0000 
     20 N          -4.9740   56.4490  105.7710 N.am      6 SEP2        0.0000 
     21 N          -0.1650   51.4945  103.2455 N.am      2 SEC2        0.0000 
     22 N           0.0360   52.2270  104.3190 N.am     10 SEL2        0.0000 
     23 N          -0.3660   50.7620  102.1720 N.am      6 SEP2        0.0000 
     24 N           0.6085   51.0830  104.3655 N.am      2 SEC2        0.0000 
     25 N           1.1810   49.9390  104.4120 N.am      6 SEP2        0.0000 
     26 N          -1.5990   52.8095  106.5490 N.am      2 SEC2        0.0000 
     27 N          -0.5390   53.8340  105.9600 N.am     10 SEL2        0.0000 
     28 CA          0.2385   53.5265  108.8620 C.3       4 GLC5        0.0000 
     29 CA          1.4360   52.5270  107.7830 C.3      12 GLL5        0.0000 
     30 CA         -0.9590   54.5260  109.9410 C.3       8 GLP5        0.0000 
     31 CA         -0.3185   51.6495  107.0325 C.3       4 GLC5        0.0000 
     32 CA         -2.0730   50.7720  106.2820 C.3       8 GLP5        0.0000 
     33 CA          1.5410   49.5690  108.4125 C.3       4 GLC5        0.0000 
     34 CA          2.0260   51.3810  108.5900 C.3      12 GLL5        0.0000 
     35 CA          1.0560   47.7570  108.2350 C.3       8 GLP5        0.0000 
     36 CA          2.0765   53.2400  111.2775 C.3       4 GLC5        0.0000 
     37 CA          2.7630   51.8970  109.8220 C.3      12 GLL5        0.0000 
     38 CA          1.3900   54.5830  112.7330 C.3       8 GLP5        0.0000 
     39 O           3.7590   50.2975  111.5940 O.2       1 ALC1        0.0000 
     40 O           2.6740   50.9930  110.9920 O.2       9 ALL1        0.0000 
     41 O           4.8440   49.6020  112.1960 O.2       5 ALP1        0.0000 
     42 CA          4.5100   54.2650  109.6535 C.3       4 GLC5        0.0000 
     43 CA          4.1840   52.0890  109.3170 C.3      12 GLL5        0.0000 
     44 CA          4.8360   56.4410  109.9900 C.3       8 GLP5        0.0000 
     45 CA          6.3210   52.3735  109.3050 C.3       4 GLC5        0.0000 
     46 CA          8.4580   52.6580  109.2930 C.3       8 GLP5        0.0000 
     47 CA          4.2050   49.2505  108.6825 C.3       4 GLC5        0.0000 
     48 CA          4.3070   50.9180  108.4190 C.3      12 GLL5        0.0000 
     49 CA          4.1030   47.5830  108.9460 C.3       8 GLP5        0.0000 
     50 CA          8.0750   47.5820  107.3175 C.3       4 GLC5        0.0000 
     51 CA          8.4160   49.3010  107.8670 C.3      12 GLL5        0.0000 
     52 CA          7.7340   45.8630  106.7680 C.3       8 GLP5        0.0000 
     53 CA          5.3280   49.0900  108.1490 C.3       4 GLC5        0.0000 
     54 CA          6.5530   50.5970  107.3520 C.3      12 GLL5        0.0000 
@<TRIPOS>BOND
@<TRIPOS>SUBSTRUCTURE
     1 ALC1       39 GROUP        1 X    ALC  0     ROOT ALC X 1
     2 SEC2        1 GROUP        1 X    SEC  0     **** SEC X 2
     3 LYC4        6 GROUP        1 X    LYC  0     **** LYC X 4
     4 GLC5       28 GROUP        1 X    GLC  0     **** GLC X 6
     5 ALP1       41 GROUP        1 Y    ALP  0     ROOT ALP Y 8
     6 SEP2        3 GROUP        1 Y    SEP  0     **** SEP Y 9
     7 LYP4        8 GROUP        1 Y    LYP  0     **** LYP Y 11
     8 GLP5       30 GROUP        1 Y    GLP  0     **** GLP Y 13
     9 ALL1       40 GROUP        1 Z    ALL  0     ROOT ALL Z 15
    10 SEL2        2 GROUP        1 Z    SEL  0     **** SEL Z 16
    11 LYL4        7 GROUP        1 Z    LYL  0     **** LYL Z 18
    12 GLL5       29 GROUP        1 Z    GLL  0     **** GLL Z 20
@<TRIPOS>SET

