#    Name: 1mv5_ADP_2_ligand
#    Modification time : Tue Mar 25 12:06:46 2014

@<TRIPOS>MOLECULE
1mv5_ADP_2_ligand
   39    41     1     0     0
SMALL
NO_CHARGES


@<TRIPOS>ATOM
      1 PB         -1.6060   54.7650  105.4210 P.3       1 ADP1600     0.0000 
      2 O1B        -1.5150   54.7480  103.9960 O.co2     1 ADP1600     0.0000 
      3 O2B        -1.2680   56.0930  105.9520 O.co2     1 ADP1600     0.0000 
      4 O3B        -2.9110   54.3060  105.8130 O.co2     1 ADP1600     0.0000 
      5 PA          0.5780   53.0070  105.3660 P.3       1 ADP1600     0.0000 
      6 O1A         1.6960   53.9400  105.1000 O.co2     1 ADP1600     0.0000 
      7 O2A         0.0360   52.2270  104.3190 O.co2     1 ADP1600     0.0000 
      8 O3A        -0.5390   53.8340  105.9600 O.3       1 ADP1600     0.0000 
      9 O5'         0.8870   52.0210  106.5600 O.3       1 ADP1600     0.0000 
     10 C5'         1.4360   52.5270  107.7830 C.3       1 ADP1600     0.0000 
     11 C4'         2.0260   51.3810  108.5900 C.3       1 ADP1600     0.0000 
     12 O4'         3.0100   50.7680  107.7790 O.3       1 ADP1600     0.0000 
     13 C3'         2.7630   51.8970  109.8220 C.3       1 ADP1600     0.0000 
     14 O3'         2.6740   50.9930  110.9920 O.3       1 ADP1600     0.0000 
     15 C2'         4.1840   52.0890  109.3170 C.3       1 ADP1600     0.0000 
     16 O2'         5.1920   52.2040  110.3770 O.3       1 ADP1600     0.0000 
     17 C1'         4.3070   50.9180  108.4190 C.3       1 ADP1600     0.0000 
     18 N9          5.3490   51.0970  107.3700 N.pl3     1 ADP1600     0.0000 
     19 C8          5.2300   51.9000  106.3220 C.2       1 ADP1600     0.0000 
     20 N7          6.3320   51.8460  105.5790 N.2       1 ADP1600     0.0000 
     21 C5          7.1610   51.0450  106.1630 C.ar      1 ADP1600     0.0000 
     22 C6          8.4440   50.5870  105.8710 C.ar      1 ADP1600     0.0000 
     23 N6          9.0940   50.9950  104.7410 N.pl3     1 ADP1600     0.0000 
     24 N1          9.0350   49.7190  106.7450 N.ar      1 ADP1600     0.0000 
     25 C2          8.4160   49.3010  107.8670 C.ar      1 ADP1600     0.0000 
     26 N3          7.1740   49.7160  108.1280 N.ar      1 ADP1600     0.0000 
     27 C4          6.5530   50.5970  107.3520 C.ar      1 ADP1600     0.0000 
     28 H           0.6706   53.0148  108.3966 H         1 ADP1600     0.0000 
     29 H           2.2329   53.2552  107.5958 H         1 ADP1600     0.0000 
     30 H           1.2714   50.7122  108.8796 H         1 ADP1600     0.0000 
     31 H           2.3657   52.8785  110.0459 H         1 ADP1600     0.0000 
     32 H           4.1561   52.9824  108.6856 H         1 ADP1600     0.0000 
     33 H           4.5185   50.0397  109.0024 H         1 ADP1600     0.0000 
     34 H           4.4429   52.4557  106.1209 H         1 ADP1600     0.0000 
     35 H          10.0216   50.6430  104.6155 H         1 ADP1600     0.0000 
     36 H           8.5852   51.6099  104.1384 H         1 ADP1600     0.0000 
     37 H           8.9083   48.6583  108.5226 H         1 ADP1600     0.0000 
     38 H           3.6160   50.7099  111.1724 H         1 ADP1600     0.0000 
     39 H           4.6678   52.3077  111.2223 H         1 ADP1600     0.0000 
@<TRIPOS>BOND
     1    2    1 ar   
     2    3    1 ar   
     3    4    1 ar   
     4    8    1 1    
     5    6    5 ar   
     6    7    5 ar   
     7    8    5 1    
     8    9    5 1    
     9   10    9 1    
    10   11   10 1    
    11   28   10 1    
    12   29   10 1    
    13   12   11 1    
    14   13   11 1    
    15   30   11 1    
    16   17   12 1    
    17   14   13 1    
    18   15   13 1    
    19   31   13 1    
    20   38   14 1    
    21   16   15 1    
    22   17   15 1    
    23   32   15 1    
    24   39   16 1    
    25   18   17 1    
    26   33   17 1    
    27   19   18 1    
    28   27   18 1    
    29   20   19 2    
    30   34   19 1    
    31   21   20 1    
    32   22   21 ar   
    33   27   21 ar   
    34   23   22 1    
    35   24   22 ar   
    36   35   23 1    
    37   36   23 1    
    38   25   24 ar   
    39   26   25 ar   
    40   37   25 1    
    41   27   26 ar   
@<TRIPOS>SUBSTRUCTURE
     1 ADP1600     1 GROUP   
@<TRIPOS>SET

