#    Name: 1orr_NAD_3_INTS_M
#    Modification time : Mon Mar 24 20:25:55 2014

@<TRIPOS>MOLECULE
1orr_NAD_3_INTS_M
   94     0     9     0     0
SMALL
NO_CHARGES


@<TRIPOS>ATOM
      1 N          13.5650   20.5160   42.8860 N.am      2 SEC2        0.0000 
      2 N          14.6670   19.8730   42.1570 N.am      8 SEL2        0.0000 
      3 N          12.4630   21.1590   43.6150 N.am      5 SEP2        0.0000 
      4 O          11.7535   14.3110   42.7340 O.2       1 ALC1        0.0000 
      5 O          12.3880   15.8980   42.5630 O.2       7 ALL1        0.0000 
      6 O          11.1190   12.7240   42.9050 O.2       4 ALP1        0.0000 
      7 O          11.1530   15.2165   42.4645 O.2       1 ALC1        0.0000 
      8 O           9.9180   14.5350   42.3660 O.2       4 ALP1        0.0000 
      9 N          14.7135   12.5385   41.3285 N.am      2 SEC2        0.0000 
     10 N          13.6030   13.5920   41.9750 N.am      8 SEL2        0.0000 
     11 N          15.8240   11.4850   40.6820 N.am      5 SEP2        0.0000 
     12 N          14.9875   13.3945   42.6775 N.am      2 SEC2        0.0000 
     13 N          16.3720   13.1970   43.3800 N.am      5 SEP2        0.0000 
     14 O          12.3610   13.1580   42.4400 O.2       1 ALC1        0.0000 
     15 O          13.6030   13.5920   41.9750 O.2       7 ALL1        0.0000 
     16 CA         10.7000   15.1515   39.7015 C.3       3 GLC5        0.0000 
     17 CA         12.5240   14.2670   39.8760 C.3       9 GLL5        0.0000 
     18 CA          8.8760   16.0360   39.5270 C.3       6 GLP5        0.0000 
     19 CA         12.4320    9.3895   38.6710 C.3       3 GLC5        0.0000 
     20 CA         12.7490   10.4020   36.8260 C.3       9 GLL5        0.0000 
     21 CA         12.1150    8.3770   40.5160 C.3       6 GLP5        0.0000 
     22 CA         11.4995    8.5395   36.7765 C.3       3 GLC5        0.0000 
     23 CA         10.2500    6.6770   36.7270 C.3       6 GLP5        0.0000 
     24 O          13.0650    8.3395   35.6280 O.2       1 ALC1        0.0000 
     25 O          13.4980    9.6500   36.0040 O.2       7 ALL1        0.0000 
     26 O          12.6320    7.0290   35.2520 O.2       4 ALP1        0.0000 
     27 N          10.6610    9.2625   36.1745 N.am      2 SEC2        0.0000 
     28 N          11.4690   10.0010   37.1090 N.am      8 SEL2        0.0000 
     29 N           9.8530    8.5240   35.2400 N.am      5 SEP2        0.0000 
     30 CA          9.6020   11.0830   39.7135 C.3       3 GLC5        0.0000 
     31 CA         10.7090   10.7420   37.9750 C.3       9 GLL5        0.0000 
     32 CA          8.4950   11.4240   41.4520 C.3       6 GLP5        0.0000 
     33 CA         11.4120    9.5595   39.2455 C.3       3 GLC5        0.0000 
     34 CA         10.4795    8.7095   37.3510 C.3       3 GLC5        0.0000 
     35 CA         10.1380   10.7275   36.0395 C.3       3 GLC5        0.0000 
     36 CA          9.5670   10.7130   34.1040 C.3       6 GLP5        0.0000 
     37 CA         10.2140   12.5680   37.0280 C.3       3 GLC5        0.0000 
     38 CA          9.7190   14.3940   36.0810 C.3       6 GLP5        0.0000 
     39 N          10.7835   10.9615   40.0410 N.am      2 SEC2        0.0000 
     40 N          11.0260   11.8410   38.6230 N.am      8 SEL2        0.0000 
     41 N          10.5410   10.0820   41.4590 N.am      5 SEP2        0.0000 
     42 CA         12.1985   10.3215   39.4170 C.3       3 GLC5        0.0000 
     43 CA         12.2820   12.2660   38.3180 C.3       9 GLL5        0.0000 
     44 CA         11.0005   13.3300   37.1995 C.3       3 GLC5        0.0000 
     45 N          11.8655   22.5705   41.3165 N.am      2 SEC2        0.0000 
     46 N          12.7630   21.8560   40.4590 N.am      8 SEL2        0.0000 
     47 N          10.9680   23.2850   42.1740 N.am      5 SEP2        0.0000 
     48 CA         11.4985   23.0590   38.5040 C.3       3 GLC5        0.0000 
     49 CA         12.2860   21.5050   37.7140 C.3       9 GLL5        0.0000 
     50 CA         10.7110   24.6130   39.2940 C.3       6 GLP5        0.0000 
     51 CA         11.0170   22.4800   34.9035 C.3       3 GLC5        0.0000 
     52 CA         12.1830   21.5310   36.2110 C.3       9 GLL5        0.0000 
     53 CA          9.8510   23.4290   33.5960 C.3       6 GLP5        0.0000 
     54 N          12.9690   20.1800   32.9125 N.am      2 SEC2        0.0000 
     55 N          12.5930   20.1250   34.2510 N.am      8 SEL2        0.0000 
     56 N          13.3450   20.2350   31.5740 N.am      5 SEP2        0.0000 
     57 O          11.3160   21.0805   33.9980 O.2       1 ALC1        0.0000 
     58 O          12.5930   20.1250   34.2510 O.2       7 ALL1        0.0000 
     59 O          10.0390   22.0360   33.7450 O.2       4 ALP1        0.0000 
     60 N          16.2775   22.0290   33.1810 N.am      2 SEC2        0.0000 
     61 N          15.1460   21.2690   34.1100 N.am      8 SEL2        0.0000 
     62 N          17.4090   22.7890   32.2520 N.am      5 SEP2        0.0000 
     63 N          14.2455   20.7520   32.8420 N.am      2 SEC2        0.0000 
     64 CA         11.6425   23.1650   34.2050 C.3       3 GLC5        0.0000 
     65 CA         13.4340   22.9010   34.8140 C.3       9 GLL5        0.0000 
     66 N          16.3805   28.5415   38.0895 N.am      2 SEC2        0.0000 
     67 N          16.6030   27.1120   37.7440 N.am      8 SEL2        0.0000 
     68 N          16.1580   29.9710   38.4350 N.am      5 SEP2        0.0000 
     69 CA         15.3295   26.0145   31.6645 C.3       3 GLC5        0.0000 
     70 CA         15.3820   25.9140   33.8910 C.3       9 GLL5        0.0000 
     71 CA         15.2770   26.1150   29.4380 C.3       6 GLP5        0.0000 
     72 CA         10.7990   16.5785   39.7010 C.3       3 GLC5        0.0000 
     73 CA         13.0360   17.6930   39.5100 C.3       9 GLL5        0.0000 
     74 CA         12.3567   17.6920   42.1063 C.3       3 GLC5        0.0000 
     75 CA         12.4080   16.5490   40.2400 C.3       9 GLL5        0.0000 
     76 CA         11.7450   18.8310   43.5760 C.3       6 GLP5        0.0000 
     77 CA         14.8495   15.4612   42.2207 C.3       3 GLC5        0.0000 
     78 CA         13.2150   15.9850   41.3980 C.3       9 GLL5        0.0000 
     79 CA         16.2780   15.6410   43.2970 C.3       6 GLP5        0.0000 
     80 CA         11.9973   11.0230   35.4507 C.3       3 GLC5        0.0000 
     81 CA         13.1780   11.6220   37.4670 C.3       9 GLL5        0.0000 
     82 CA         11.0310   11.0340   33.7550 C.3       6 GLP5        0.0000 
     83 CA         10.3927   20.7240   37.0902 C.3       3 GLC5        0.0000 
     84 CA          8.5510   19.9300   37.2180 C.3       6 GLP5        0.0000 
     85 CA         15.0895   20.1678   36.0640 C.3       3 GLC5        0.0000 
     86 CA         13.1590   20.6330   35.4640 C.3       9 GLL5        0.0000 
     87 CA         16.4700   19.1800   36.8050 C.3       6 GLP5        0.0000 
     88 CA         13.8515   26.3240   36.5198 C.3       3 GLC5        0.0000 
     89 CA         14.6800   24.5330   36.1800 C.3       9 GLL5        0.0000 
     90 CA         12.5960   27.5270   36.7760 C.3       6 GLP5        0.0000 
     91 CA         14.0231   26.9390   33.6617 C.3       3 GLC5        0.0000 
     92 CA         15.9970   26.4420   35.1490 C.3       9 GLL5        0.0000 
     93 CA         12.9240   28.3480   33.1500 C.3       6 GLP5        0.0000 
     94 CA         13.8591   26.5285   35.4748 C.3       3 GLC5        0.0000 
@<TRIPOS>BOND
@<TRIPOS>SUBSTRUCTURE
     1 ALC1        4 GROUP        1 X    ALC  0     ROOT ALC X 1
     2 SEC2        1 GROUP        1 X    SEC  0     **** SEC X 2
     3 GLC5       16 GROUP        1 X    GLC  0     **** GLC X 6
     4 ALP1        6 GROUP        1 Y    ALP  0     ROOT ALP Y 8
     5 SEP2        3 GROUP        1 Y    SEP  0     **** SEP Y 9
     6 GLP5       18 GROUP        1 Y    GLP  0     **** GLP Y 13
     7 ALL1        5 GROUP        1 Z    ALL  0     ROOT ALL Z 15
     8 SEL2        2 GROUP        1 Z    SEL  0     **** SEL Z 16
     9 GLL5       17 GROUP        1 Z    GLL  0     **** GLL Z 20
@<TRIPOS>SET

