#    Name: 1orr_NAD_3_ligand
#    Modification time : Mon Mar 24 20:25:55 2014

@<TRIPOS>MOLECULE
1orr_NAD_3_ligand
   70    74     1     0     0
SMALL
NO_CHARGES


@<TRIPOS>ATOM
      1 PA         14.6630   19.3550   40.7610 P.3       1 NAD1300     0.0000 
      2 O1A        15.7500   18.3810   40.5220 O.co2     1 NAD1300     0.0000 
      3 O2A        14.6670   19.8730   42.1570 O.co2     1 NAD1300     0.0000 
      4 O5B        13.2140   18.7100   40.4870 O.3       1 NAD1300     0.0000 
      5 C5B        13.0360   17.6930   39.5100 C.3       1 NAD1300     0.0000 
      6 C4B        12.4080   16.5490   40.2400 C.3       1 NAD1300     0.0000 
      7 O4B        12.2460   15.4790   39.2690 O.3       1 NAD1300     0.0000 
      8 C3B        13.2150   15.9850   41.3980 C.3       1 NAD1300     0.0000 
      9 O3B        12.3880   15.8980   42.5630 O.3       1 NAD1300     0.0000 
     10 C2B        13.6270   14.5780   40.8910 C.3       1 NAD1300     0.0000 
     11 O2B        13.6030   13.5920   41.9750 O.3       1 NAD1300     0.0000 
     12 C1B        12.5240   14.2670   39.8760 C.3       1 NAD1300     0.0000 
     13 N9A        12.9800   13.3690   38.8390 N.pl3     1 NAD1300     0.0000 
     14 C8A        14.1990   13.3980   38.2280 C.2       1 NAD1300     0.0000 
     15 N7A        14.3920   12.3210   37.4250 N.2       1 NAD1300     0.0000 
     16 C5A        13.1780   11.6220   37.4670 C.ar      1 NAD1300     0.0000 
     17 C6A        12.7490   10.4020   36.8260 C.ar      1 NAD1300     0.0000 
     18 N6A        13.4980    9.6500   36.0040 N.pl3     1 NAD1300     0.0000 
     19 N1A        11.4690   10.0010   37.1090 N.ar      1 NAD1300     0.0000 
     20 C2A        10.7090   10.7420   37.9750 C.ar      1 NAD1300     0.0000 
     21 N3A        11.0260   11.8410   38.6230 N.ar      1 NAD1300     0.0000 
     22 C4A        12.2820   12.2660   38.3180 C.ar      1 NAD1300     0.0000 
     23 O3         14.8060   20.5320   39.7790 O.3       1 NAD1300     0.0000 
     24 PN         13.9540   21.8850   39.5830 P.3       1 NAD1300     0.0000 
     25 O1N        14.9000   23.0060   39.7860 O.co2     1 NAD1300     0.0000 
     26 O2N        12.7630   21.8560   40.4590 O.co2     1 NAD1300     0.0000 
     27 O5D        13.6230   21.7710   38.0370 O.3       1 NAD1300     0.0000 
     28 C5D        12.2860   21.5050   37.7140 C.3       1 NAD1300     0.0000 
     29 C4D        12.1830   21.5310   36.2110 C.3       1 NAD1300     0.0000 
     30 O4D        12.4010   22.9040   35.7520 O.3       1 NAD1300     0.0000 
     31 C3D        13.1590   20.6330   35.4640 C.3       1 NAD1300     0.0000 
     32 O3D        12.5930   20.1250   34.2510 O.3       1 NAD1300     0.0000 
     33 C2D        14.2590   21.6780   35.1820 C.3       1 NAD1300     0.0000 
     34 O2D        15.1460   21.2690   34.1100 O.3       1 NAD1300     0.0000 
     35 C1D        13.4340   22.9010   34.8140 C.3       1 NAD1300     0.0000 
     36 N1N        14.2220   24.1100   34.9580 N.pl3     1 NAD1300     0.0000 
     37 C2N        14.6800   24.5330   36.1800 C.ar      1 NAD1300     0.0000 
     38 C3N        15.5340   25.7090   36.3470 C.ar      1 NAD1300     0.0000 
     39 C7N        15.8930   26.1070   37.6800 C.2       1 NAD1300     0.0000 
     40 O7N        16.6030   27.1120   37.7440 O.2       1 NAD1300     0.0000 
     41 N7N        15.4940   25.4380   38.7600 N.am      1 NAD1300     0.0000 
     42 C4N        15.9970   26.4420   35.1490 C.ar      1 NAD1300     0.0000 
     43 C5N        15.3820   25.9140   33.8910 C.ar      1 NAD1300     0.0000 
     44 C6N        14.5550   24.8820   33.8270 C.ar      1 NAD1300     0.0000 
     45 H          13.9793   17.3656   39.0918 H         1 NAD1300     0.0000 
     46 H          12.3714   18.0083   38.7157 H         1 NAD1300     0.0000 
     47 H          11.4317   16.8396   40.5996 H         1 NAD1300     0.0000 
     48 H          14.0831   16.5606   41.5213 H         1 NAD1300     0.0000 
     49 H          14.5388   14.6506   40.3955 H         1 NAD1300     0.0000 
     50 H          11.6874   13.8802   40.3962 H         1 NAD1300     0.0000 
     51 H          14.8591   14.1175   38.3567 H         1 NAD1300     0.0000 
     52 H          13.0765    8.8053   35.6741 H         1 NAD1300     0.0000 
     53 H          14.4105   10.0017   35.7950 H         1 NAD1300     0.0000 
     54 H           9.6891   10.3435   38.1388 H         1 NAD1300     0.0000 
     55 H          11.6042   22.2568   38.1132 H         1 NAD1300     0.0000 
     56 H          11.9625   20.5222   38.0587 H         1 NAD1300     0.0000 
     57 H          11.1665   21.2387   35.9234 H         1 NAD1300     0.0000 
     58 H          13.5422   19.9286   36.1243 H         1 NAD1300     0.0000 
     59 H          14.7558   21.8755   36.0987 H         1 NAD1300     0.0000 
     60 H          13.0753   22.7741   33.8263 H         1 NAD1300     0.0000 
     61 H          14.4294   24.0192   37.0507 H         1 NAD1300     0.0000 
     62 H          14.9267   24.6315   38.5934 H         1 NAD1300     0.0000 
     63 H          15.7976   25.8023   39.6404 H         1 NAD1300     0.0000 
     64 H          16.6054   27.1564   35.1660 H         1 NAD1300     0.0000 
     65 H          15.6718   26.4514   33.0249 H         1 NAD1300     0.0000 
     66 H          14.1111   24.5987   32.9145 H         1 NAD1300     0.0000 
     67 H          11.5824   15.3829   42.2705 H         1 NAD1300     0.0000 
     68 H          12.6330   13.4375   42.1627 H         1 NAD1300     0.0000 
     69 H          12.1785   20.9191   33.8065 H         1 NAD1300     0.0000 
     70 H          15.9749   20.9482   34.5682 H         1 NAD1300     0.0000 
@<TRIPOS>BOND
     1    2    1 ar   
     2    3    1 ar   
     3    4    1 1    
     4   23    1 1    
     5    5    4 1    
     6    6    5 1    
     7   45    5 1    
     8   46    5 1    
     9    7    6 1    
    10    8    6 1    
    11   47    6 1    
    12   12    7 1    
    13    9    8 1    
    14   10    8 1    
    15   48    8 1    
    16   67    9 1    
    17   11   10 1    
    18   12   10 1    
    19   49   10 1    
    20   68   11 1    
    21   13   12 1    
    22   50   12 1    
    23   14   13 1    
    24   22   13 1    
    25   15   14 2    
    26   51   14 1    
    27   16   15 1    
    28   17   16 ar   
    29   22   16 ar   
    30   18   17 1    
    31   19   17 ar   
    32   52   18 1    
    33   53   18 1    
    34   20   19 ar   
    35   21   20 ar   
    36   54   20 1    
    37   22   21 ar   
    38   24   23 1    
    39   25   24 ar   
    40   26   24 ar   
    41   27   24 1    
    42   28   27 1    
    43   29   28 1    
    44   55   28 1    
    45   56   28 1    
    46   30   29 1    
    47   31   29 1    
    48   57   29 1    
    49   35   30 1    
    50   32   31 1    
    51   33   31 1    
    52   58   31 1    
    53   69   32 1    
    54   34   33 1    
    55   35   33 1    
    56   59   33 1    
    57   70   34 1    
    58   36   35 1    
    59   60   35 1    
    60   37   36 ar   
    61   44   36 ar   
    62   38   37 ar   
    63   61   37 1    
    64   39   38 1    
    65   42   38 ar   
    66   40   39 2    
    67   41   39 am   
    68   62   41 1    
    69   63   41 1    
    70   43   42 ar   
    71   64   42 1    
    72   44   43 ar   
    73   65   43 1    
    74   66   44 1    
@<TRIPOS>SUBSTRUCTURE
     1 NAD1300     1 GROUP   
@<TRIPOS>SET

