#    Name: 4i5c_C5I_1_INTS_M
#    Modification time : Tue Mar 25 02:25:23 2014

@<TRIPOS>MOLECULE
4i5c_C5I_1_INTS_M
   53     0     9     0     0
SMALL
NO_CHARGES


@<TRIPOS>ATOM
      1 CA         17.9955    0.2965    2.4540 C.3       3 GLC5        0.0000 
      2 CA         17.7230    1.6120    0.9920 C.3       9 GLL5        0.0000 
      3 CA         18.2680   -1.0190    3.9160 C.3       6 GLP5        0.0000 
      4 O          17.7545   -0.7150    0.3135 O.2       1 ALC1        0.0000 
      5 O          17.1230    0.5000    0.4520 O.2       7 ALL1        0.0000 
      6 O          18.3860   -1.9300    0.1750 O.2       4 ALP1        0.0000 
      7 CA         16.3465   -0.9970   -1.0295 C.3       3 GLC5        0.0000 
      8 CA         15.8970    0.8540   -0.0830 C.3       9 GLL5        0.0000 
      9 CA         16.7960   -2.8480   -1.9760 C.3       6 GLP5        0.0000 
     10 CA         13.5975   -1.2790   -0.7000 C.3       3 GLC5        0.0000 
     11 CA         13.7950    0.7150   -1.1020 C.3       9 GLL5        0.0000 
     12 CA         13.4000   -3.2730   -0.2980 C.3       6 GLP5        0.0000 
     13 N          14.7845   -1.2900   -0.7790 N.am      2 SEC2        0.0000 
     14 N          14.9290    0.1560   -0.6940 N.am      8 SEL2        0.0000 
     15 N          14.6400   -2.7360   -0.8640 N.am      5 SEP2        0.0000 
     16 CA         13.7525    7.9235   -1.5410 C.3       3 GLC5        0.0000 
     17 CA         14.0510    6.6220    0.0060 C.3       9 GLL5        0.0000 
     18 CA         13.4540    9.2250   -3.0880 C.3       6 GLP5        0.0000 
     19 CA         16.3695   11.3250   -0.8730 C.3       3 GLC5        0.0000 
     20 CA         17.2760   10.3050    0.6320 C.3       9 GLL5        0.0000 
     21 CA         15.4630   12.3450   -2.3780 C.3       6 GLP5        0.0000 
     22 CA         16.8930   12.4525    0.5640 C.3       3 GLC5        0.0000 
     23 CA         16.5100   14.6000    0.4960 C.3       6 GLP5        0.0000 
     24 CA         19.2390    9.9910    1.0630 C.3       3 GLC5        0.0000 
     25 CA         21.2020    9.6770    1.4940 C.3       6 GLP5        0.0000 
     26 CA         17.2052    3.6980   -0.9032 C.3       3 GLC5        0.0000 
     27 CA         16.9340    2.7000    0.8260 C.3       9 GLL5        0.0000 
     28 CA         18.0780    4.9210   -2.2860 C.3       6 GLP5        0.0000 
     29 CA         19.1008    2.8090    0.8375 C.3       3 GLC5        0.0000 
     30 CA         20.8730    3.4620    0.7660 C.3       6 GLP5        0.0000 
     31 CA         15.5435    2.0175   -2.0655 C.3       3 GLC5        0.0000 
     32 CA         15.7310    2.2500    0.1330 C.3       9 GLL5        0.0000 
     33 CA         15.2730    2.4830   -4.1560 C.3       6 GLP5        0.0000 
     34 CA         11.5955    1.1587   -0.5678 C.3       3 GLC5        0.0000 
     35 CA         13.5410    2.0940   -0.9170 C.3       9 GLL5        0.0000 
     36 CA          9.5230    0.9130   -0.1260 C.3       6 GLP5        0.0000 
     37 CA         14.5941    2.0414   -2.5053 C.3       3 GLC5        0.0000 
     38 CA         13.3826    1.6969    0.8152 C.3       3 GLC5        0.0000 
     39 CA         12.8500    1.7940    2.4850 C.3       6 GLP5        0.0000 
     40 CA         16.1005    6.1947   -0.9852 C.3       3 GLC5        0.0000 
     41 CA         14.6350    5.2730    0.4650 C.3       9 GLL5        0.0000 
     42 CA         17.8580    6.4420   -2.2060 C.3       6 GLP5        0.0000 
     43 CA         13.6820    3.4790    1.8560 C.3       3 GLC5        0.0000 
     44 CA         15.9985    7.0685    4.0055 C.3       3 GLC5        0.0000 
     45 CA         15.0090    6.1800    2.8150 C.3       9 GLL5        0.0000 
     46 CA         17.2920    7.2890    5.4350 C.3       6 GLP5        0.0000 
     47 CA         17.6273    8.4672    0.0073 C.3       3 GLC5        0.0000 
     48 CA         16.1850    9.5720    1.2950 C.3       9 GLL5        0.0000 
     49 CA         18.5240    6.9960   -0.9490 C.3       6 GLP5        0.0000 
     50 CA         17.6271    1.4100   -0.9200 C.3       3 GLC5        0.0000 
     51 CA         18.6830    0.9660   -2.3070 C.3       6 GLP5        0.0000 
     52 CA         15.7566    1.3190    1.9065 C.3       3 GLC5        0.0000 
     53 CA         14.9420    0.7840    3.3460 C.3       6 GLP5        0.0000 
@<TRIPOS>BOND
@<TRIPOS>SUBSTRUCTURE
     1 ALC1        4 GROUP        1 X    ALC  0     ROOT ALC X 1
     2 SEC2       13 GROUP        1 X    SEC  0     **** SEC X 2
     3 GLC5        1 GROUP        1 X    GLC  0     **** GLC X 6
     4 ALP1        6 GROUP        1 Y    ALP  0     ROOT ALP Y 8
     5 SEP2       15 GROUP        1 Y    SEP  0     **** SEP Y 9
     6 GLP5        3 GROUP        1 Y    GLP  0     **** GLP Y 13
     7 ALL1        5 GROUP        1 Z    ALL  0     ROOT ALL Z 15
     8 SEL2       14 GROUP        1 Z    SEL  0     **** SEL Z 16
     9 GLL5        2 GROUP        1 Z    GLL  0     **** GLL Z 20
@<TRIPOS>SET

