#    Name: 4i5c_C5I_1_ligand
#    Modification time : Tue Mar 25 02:25:23 2014

@<TRIPOS>MOLECULE
4i5c_C5I_1_ligand
   38    41     1     0     0
SMALL
NO_CHARGES


@<TRIPOS>ATOM
      1 C1         16.9340    2.7000    0.8260 C.2       1 C5I1201     0.0000 
      2 C2         17.7230    1.6120    0.9920 C.2       1 C5I1201     0.0000 
      3 N3         17.1230    0.5000    0.4520 N.pl3     1 C5I1201     0.0000 
      4 C5         15.8970    0.8540   -0.0830 C.ar      1 C5I1201     0.0000 
      5 C6         15.7310    2.2500    0.1330 C.ar      1 C5I1201     0.0000 
      6 C7         14.5300    2.8750   -0.2970 C.ar      1 C5I1201     0.0000 
      7 C8         13.5410    2.0940   -0.9170 C.ar      1 C5I1201     0.0000 
      8 C9         13.7950    0.7150   -1.1020 C.ar      1 C5I1201     0.0000 
      9 N10        14.9290    0.1560   -0.6940 N.ar      1 C5I1201     0.0000 
     10 N11        12.4910    2.9120   -1.1910 N.2       1 C5I1201     0.0000 
     11 N12        12.7080    4.1080   -0.7560 N.2       1 C5I1201     0.0000 
     12 N13        14.0050    4.1420   -0.2280 N.pl3     1 C5I1201     0.0000 
     13 C14        14.6350    5.2730    0.4650 C.3       1 C5I1201     0.0000 
     14 C16        14.3930    5.0550    1.9890 C.3       1 C5I1201     0.0000 
     15 C17        15.0090    6.1800    2.8150 C.3       1 C5I1201     0.0000 
     16 C18        14.4010    7.5160    2.3370 C.3       1 C5I1201     0.0000 
     17 N19        14.6630    7.6370    0.8800 N.am      1 C5I1201     0.0000 
     18 C20        14.0510    6.6220    0.0060 C.3       1 C5I1201     0.0000 
     19 C21        15.5320    8.5620    0.3730 C.2       1 C5I1201     0.0000 
     20 O22        15.7550    8.6080   -0.8370 O.2       1 C5I1201     0.0000 
     21 C23        16.1850    9.5720    1.2950 C.3       1 C5I1201     0.0000 
     22 C24        17.2760   10.3050    0.6320 C.1       1 C5I1201     0.0000 
     23 N25        18.1180   10.8680    0.1250 N.1       1 C5I1201     0.0000 
     24 H          17.0751    3.5879    1.0815 H         1 C5I1201     0.0000 
     25 H          18.5916    1.6068    1.4292 H         1 C5I1201     0.0000 
     26 H          17.4923   -0.3866    0.4443 H         1 C5I1201     0.0000 
     27 H          13.0494    0.1539   -1.5750 H         1 C5I1201     0.0000 
     28 H          15.6949    5.2700    0.3040 H         1 C5I1201     0.0000 
     29 H          14.8361    4.1036    2.2753 H         1 C5I1201     0.0000 
     30 H          13.3202    5.0147    2.1649 H         1 C5I1201     0.0000 
     31 H          16.0739    6.2036    2.6624 H         1 C5I1201     0.0000 
     32 H          14.7743    6.0391    3.8557 H         1 C5I1201     0.0000 
     33 H          14.8731    8.3203    2.8800 H         1 C5I1201     0.0000 
     34 H          13.3405    7.4999    2.5363 H         1 C5I1201     0.0000 
     35 H          12.9860    6.5924    0.1304 H         1 C5I1201     0.0000 
     36 H          14.3206    6.7786   -1.0203 H         1 C5I1201     0.0000 
     37 H          16.5665    9.0407    2.1820 H         1 C5I1201     0.0000 
     38 H          15.4126   10.2747    1.6475 H         1 C5I1201     0.0000 
@<TRIPOS>BOND
     1    2    1 2    
     2    5    1 1    
     3   24    1 1    
     4    3    2 1    
     5   25    2 1    
     6    4    3 1    
     7   26    3 1    
     8    5    4 ar   
     9    9    4 ar   
    10    6    5 ar   
    11    7    6 ar   
    12   12    6 1    
    13    8    7 ar   
    14   10    7 1    
    15    9    8 ar   
    16   27    8 1    
    17   11   10 2    
    18   12   11 1    
    19   13   12 1    
    20   14   13 1    
    21   18   13 1    
    22   28   13 1    
    23   15   14 1    
    24   29   14 1    
    25   30   14 1    
    26   16   15 1    
    27   31   15 1    
    28   32   15 1    
    29   17   16 1    
    30   33   16 1    
    31   34   16 1    
    32   18   17 1    
    33   19   17 am   
    34   35   18 1    
    35   36   18 1    
    36   20   19 2    
    37   21   19 1    
    38   22   21 1    
    39   37   21 1    
    40   38   21 1    
    41   23   22 3    
@<TRIPOS>SUBSTRUCTURE
     1 C5I1201     1 GROUP   
@<TRIPOS>SET

