#    Name: 3kb7_071_1_INTS_M
#    Modification time : Mon Mar 24 19:07:16 2014

@<TRIPOS>MOLECULE
3kb7_071_1_INTS_M
   88     0    12     0     0
SMALL
NO_CHARGES


@<TRIPOS>ATOM
      1 N          41.8015  -11.8740   18.9890 N.am      2 SEC2        0.0000 
      2 N          42.3370  -12.3940   17.6890 N.am     10 SEL2        0.0000 
      3 N          41.2660  -11.3540   20.2890 N.am      6 SEP2        0.0000 
      4 CA         44.6980  -11.3715   16.7915 C.3       4 GLC5        0.0000 
      5 CA         43.6170  -12.8200   17.5630 C.3      12 GLL5        0.0000 
      6 CA         45.7790   -9.9230   16.0200 C.3       8 GLP5        0.0000 
      7 CA         43.5630  -10.6720   18.0260 C.3       4 GLC5        0.0000 
      8 CA         43.5090   -8.5240   18.4890 C.3       8 GLP5        0.0000 
      9 CA         42.4590  -13.2660   19.2545 C.3       4 GLC5        0.0000 
     10 CA         41.3010  -13.7120   20.9460 C.3       8 GLP5        0.0000 
     11 CA         40.9065  -11.0355   17.8795 C.3       4 GLC5        0.0000 
     12 CA         41.4510  -12.6200   16.6960 C.3      12 GLL5        0.0000 
     13 CA         40.3620   -9.4510   19.0630 C.3       8 GLP5        0.0000 
     14 CA         40.5400  -13.3330   18.4855 C.3       4 GLC5        0.0000 
     15 CA         39.6290  -14.0460   20.2750 C.3       8 GLP5        0.0000 
     16 CA         42.0630  -16.2885   14.8550 C.3       4 GLC5        0.0000 
     17 CA         41.1010  -15.0100   13.9670 C.3      12 GLL5        0.0000 
     18 CA         43.0250  -17.5670   15.7430 C.3       8 GLP5        0.0000 
     19 CA         41.3025  -11.5465   14.7240 C.3       4 GLC5        0.0000 
     20 CA         40.8660  -13.5510   14.3700 C.3      12 GLL5        0.0000 
     21 CA         41.7390   -9.5420   15.0780 C.3       8 GLP5        0.0000 
     22 O          42.9715  -18.9720   10.3625 O.2       1 ALC1        0.0000 
     23 O          43.2440  -17.7910   11.0530 O.2       9 ALL1        0.0000 
     24 O          42.6990  -20.1530    9.6720 O.2       5 ALP1        0.0000 
     25 N          41.3790  -16.6030    9.5395 N.am      2 SEC2        0.0000 
     26 N          41.5080  -16.4190   11.0700 N.am     10 SEL2        0.0000 
     27 N          41.2500  -16.7870    8.0090 N.am      6 SEP2        0.0000 
     28 CA         47.0715  -12.8835   14.9270 C.3       4 GLC5        0.0000 
     29 CA         46.2210  -14.6910   14.3180 C.3      12 GLL5        0.0000 
     30 CA         47.9220  -11.0760   15.5360 C.3       8 GLP5        0.0000 
     31 CA         48.1360  -14.3930   13.6760 C.3       4 GLC5        0.0000 
     32 CA         50.0510  -14.0950   13.0340 C.3       8 GLP5        0.0000 
     33 CA         45.9040  -13.1160   13.0580 C.3       4 GLC5        0.0000 
     34 CA         45.5870  -11.5410   11.7980 C.3       8 GLP5        0.0000 
     35 CA         44.9870  -15.8385   15.5395 C.3       4 GLC5        0.0000 
     36 CA         43.7530  -16.9860   16.7610 C.3       8 GLP5        0.0000 
     37 O          44.1895  -12.5920   20.0030 O.2       1 ALC1        0.0000 
     38 O          44.5070  -12.6200   18.5800 O.2       9 ALL1        0.0000 
     39 O          43.8720  -12.5640   21.4260 O.2       5 ALP1        0.0000 
     40 CA         45.7855  -11.5105   17.2970 C.3       4 GLC5        0.0000 
     41 CA         45.7920  -13.0980   18.5740 C.3      12 GLL5        0.0000 
     42 CA         47.2655  -10.7160   18.1815 C.3       4 GLC5        0.0000 
     43 CA         46.7550  -12.3100   19.1800 C.3      12 GLL5        0.0000 
     44 CA         47.7760   -9.1220   17.1830 C.3       8 GLP5        0.0000 
     45 CA         46.6375  -13.8980   20.3590 C.3       4 GLC5        0.0000 
     46 CA         46.5200  -15.4860   21.5380 C.3       8 GLP5        0.0000 
     47 CA         47.5665   -9.7960   18.8890 C.3       4 GLC5        0.0000 
     48 CA         47.3570  -10.4700   20.5950 C.3      12 GLL5        0.0000 
     49 CA         45.8125  -10.5685   22.0150 C.3       4 GLC5        0.0000 
     50 CA         44.2680  -10.6670   23.4350 C.3       8 GLP5        0.0000 
     51 CA         46.8665  -16.3085   19.6210 C.3       4 GLC5        0.0000 
     52 CA         47.2130  -17.1310   17.7040 C.3      12 GLL5        0.0000 
     53 CA         46.8450  -20.3960   16.7505 C.3       4 GLC5        0.0000 
     54 CA         47.5160  -18.2510   16.7120 C.3      12 GLL5        0.0000 
     55 CA         46.1740  -22.5410   16.7890 C.3       8 GLP5        0.0000 
     56 OD1        48.9335  -18.6635   18.3840 O.co2     3 ASC3        0.0000 
     57 OD1        48.9450  -18.3110   16.4530 O.co2    11 ASL3        0.0000 
     58 OD1        48.9220  -19.0160   20.3150 O.co2     7 ASP3        0.0000 
     59 OD1        49.6875  -18.6755   17.5885 O.co2     3 ASC3        0.0000 
     60 OD1        50.4300  -19.0400   18.7240 O.co2     7 ASP3        0.0000 
     61 O          49.6875  -18.6755   17.5885 O.2       1 ALC1        0.0000 
     62 O          48.9450  -18.3110   16.4530 O.2       9 ALL1        0.0000 
     63 O          50.4300  -19.0400   18.7240 O.2       5 ALP1        0.0000 
     64 CA         49.8730  -15.5970   14.6020 C.3       4 GLC5        0.0000 
     65 CA         49.6950  -17.0990   16.1700 C.3      12 GLL5        0.0000 
     66 CA         50.0020  -21.3120   16.4355 C.3       4 GLC5        0.0000 
     67 CA         49.3770  -19.5100   15.7420 C.3      12 GLL5        0.0000 
     68 CA         50.6270  -23.1140   17.1290 C.3       8 GLP5        0.0000 
     69 CA         42.0714  -11.4133   15.4051 C.3       4 GLC5        0.0000 
     70 CA         41.8400  -13.2620   15.5050 C.3      12 GLL5        0.0000 
     71 CA         39.0598  -14.1898   14.9592 C.3       4 GLC5        0.0000 
     72 CA         37.1360  -14.0990   15.7500 C.3       8 GLP5        0.0000 
     73 CA         39.8547  -13.4238   12.9633 C.3       4 GLC5        0.0000 
     74 CA         38.7260  -12.5670   11.7580 C.3       8 GLP5        0.0000 
     75 CA         43.8795  -13.7368   12.3702 C.3       4 GLC5        0.0000 
     76 CA         42.5280  -14.9780   13.4060 C.3      12 GLL5        0.0000 
     77 CA         44.6800  -12.7570   10.9240 C.3       8 GLP5        0.0000 
     78 CA         47.3795  -12.7918   16.7643 C.3       4 GLC5        0.0000 
     79 CA         46.1720  -14.3020   17.9810 C.3      12 GLL5        0.0000 
     80 CA         46.6310  -14.8462   19.8394 C.3       4 GLC5        0.0000 
     81 CA         48.0925  -12.1875   17.2242 C.3       4 GLC5        0.0000 
     82 CA         48.4430  -13.9000   18.6230 C.3      12 GLL5        0.0000 
     83 CA         48.5580  -13.9245   20.4843 C.3       4 GLC5        0.0000 
     84 CA         48.0830  -12.6980   19.2020 C.3      12 GLL5        0.0000 
     85 CA         48.8530  -14.5500   22.0560 C.3       8 GLP5        0.0000 
     86 CA         46.4823  -18.6770   18.4695 C.3       4 GLC5        0.0000 
     87 CA         45.6000  -19.6630   19.7310 C.3       8 GLP5        0.0000 
     88 CA         45.5588  -17.3385   16.9845 C.3       4 GLC5        0.0000 
@<TRIPOS>BOND
@<TRIPOS>SUBSTRUCTURE
     1 ALC1       22 GROUP        1 X    ALC  0     ROOT ALC X 1
     2 SEC2        1 GROUP        1 X    SEC  0     **** SEC X 2
     3 ASC3       56 GROUP        1 X    ASC  0     **** ASC X 3
     4 GLC5        4 GROUP        1 X    GLC  0     **** GLC X 6
     5 ALP1       24 GROUP        1 Y    ALP  0     ROOT ALP Y 8
     6 SEP2        3 GROUP        1 Y    SEP  0     **** SEP Y 9
     7 ASP3       58 GROUP        1 Y    ASP  0     **** ASP Y 10
     8 GLP5        6 GROUP        1 Y    GLP  0     **** GLP Y 13
     9 ALL1       23 GROUP        1 Z    ALL  0     ROOT ALL Z 15
    10 SEL2        2 GROUP        1 Z    SEL  0     **** SEL Z 16
    11 ASL3       57 GROUP        1 Z    ASL  0     **** ASL Z 17
    12 GLL5        5 GROUP        1 Z    GLL  0     **** GLL Z 20
@<TRIPOS>SET

