#    Name: 3kb7_071_1_ligand
#    Modification time : Mon Mar 24 19:07:16 2014

@<TRIPOS>MOLECULE
3kb7_071_1_ligand
   62    66     1     0     0
SMALL
NO_CHARGES


@<TRIPOS>ATOM
      1 N1         42.3370  -12.3940   17.6890 N.ar      1 0711        0.0000 
      2 C2         43.6170  -12.8200   17.5630 C.ar      1 0711        0.0000 
      3 N3         44.0040  -13.4420   16.4160 N.ar      1 0711        0.0000 
      4 C4         41.4510  -12.6200   16.6960 C.ar      1 0711        0.0000 
      5 C5         41.8400  -13.2620   15.5050 C.ar      1 0711        0.0000 
      6 C6         43.1620  -13.6280   15.3640 C.ar      1 0711        0.0000 
      7 C7         41.1010  -15.0100   13.9670 C.3       1 0711        0.0000 
      8 C8         40.8660  -13.5510   14.3700 C.3       1 0711        0.0000 
      9 C9         42.5280  -14.9780   13.4060 C.2       1 0711        0.0000 
     10 C10        43.6300  -14.4550   14.2270 C.2       1 0711        0.0000 
     11 N11        44.8250  -14.9220   13.8770 N.pl3     1 0711        0.0000 
     12 N12        44.6610  -15.8160   12.7820 N.2       1 0711        0.0000 
     13 C13        43.3190  -15.9150   12.5700 C.2       1 0711        0.0000 
     14 C14        42.6180  -16.7060   11.5010 C.2       1 0711        0.0000 
     15 N15        43.2440  -17.7910   11.0530 N.am      1 0711        0.0000 
     16 O16        41.5080  -16.4190   11.0700 O.2       1 0711        0.0000 
     17 C17        46.2210  -14.6910   14.3180 C.3       1 0711        0.0000 
     18 N18        44.5070  -12.6200   18.5800 N.pl3     1 0711        0.0000 
     19 C19        45.7920  -13.0980   18.5740 C.ar      1 0711        0.0000 
     20 C20        46.1720  -14.3020   17.9810 C.ar      1 0711        0.0000 
     21 C21        47.5020  -14.7130   18.0040 C.ar      1 0711        0.0000 
     22 C22        48.4430  -13.9000   18.6230 C.ar      1 0711        0.0000 
     23 C23        48.0830  -12.6980   19.2020 C.ar      1 0711        0.0000 
     24 C24        46.7550  -12.3100   19.1800 C.ar      1 0711        0.0000 
     25 O25        46.3880  -11.1280   19.7710 O.3       1 0711        0.0000 
     26 C26        47.3570  -10.4700   20.5950 C.3       1 0711        0.0000 
     27 N30        47.9580  -15.9180   17.3980 N.3       1 0711        0.0000 
     28 C31        47.2130  -17.1310   17.7040 C.3       1 0711        0.0000 
     29 C32        47.5160  -18.2510   16.7120 C.3       1 0711        0.0000 
     30 N33        48.9450  -18.3110   16.4530 N.4       1 0711        0.0000 
     31 C34        49.6950  -17.0990   16.1700 C.3       1 0711        0.0000 
     32 C35        49.4160  -16.0330   17.2300 C.3       1 0711        0.0000 
     33 C36        49.3770  -19.5100   15.7420 C.3       1 0711        0.0000 
     34 H          40.4576  -12.3243   16.7880 H         1 0711        0.0000 
     35 H          40.4243  -15.2850   13.2060 H         1 0711        0.0000 
     36 H          41.0670  -15.6277   14.8214 H         1 0711        0.0000 
     37 H          41.0779  -12.9125   13.5384 H         1 0711        0.0000 
     38 H          39.8606  -13.4338   14.7158 H         1 0711        0.0000 
     39 H          42.7705  -18.3098   10.3413 H         1 0711        0.0000 
     40 H          44.1316  -17.9899   11.4684 H         1 0711        0.0000 
     41 H          44.1869  -12.0622   19.4251 H         1 0711        0.0000 
     42 H          45.4614  -14.8915   17.5222 H         1 0711        0.0000 
     43 H          49.4361  -14.2043   18.6495 H         1 0711        0.0000 
     44 H          48.7902  -12.1008   19.6424 H         1 0711        0.0000 
     45 H          46.1280  -16.9405   17.6819 H         1 0711        0.0000 
     46 H          47.4565  -17.4959   18.7147 H         1 0711        0.0000 
     47 H          46.9568  -18.0534   15.7928 H         1 0711        0.0000 
     48 H          47.1527  -19.1911   17.1372 H         1 0711        0.0000 
     49 H          49.3714  -18.5883   17.5983 H         1 0711        0.0000 
     50 H          49.4218  -16.6852   15.1920 H         1 0711        0.0000 
     51 H          50.7738  -17.2954   16.1615 H         1 0711        0.0000 
     52 H          49.8893  -16.3360   18.1577 H         1 0711        0.0000 
     53 H          49.8419  -15.0933   16.8954 H         1 0711        0.0000 
     54 H          46.8713  -15.2441   13.7973 H         1 0711        0.0000 
     55 H          46.4928  -13.7353   14.2051 H         1 0711        0.0000 
     56 H          46.3483  -14.9199   15.2831 H         1 0711        0.0000 
     57 H          47.6425  -11.0436   21.3628 H         1 0711        0.0000 
     58 H          48.1825  -10.2349   20.0819 H         1 0711        0.0000 
     59 H          46.9999   -9.6196   20.9813 H         1 0711        0.0000 
     60 H          50.3650  -19.5146   15.5878 H         1 0711        0.0000 
     61 H          49.1557  -20.3427   16.2495 H         1 0711        0.0000 
     62 H          48.9401  -19.5881   14.8459 H         1 0711        0.0000 
@<TRIPOS>BOND
     1    2    1 ar   
     2    4    1 ar   
     3    3    2 ar   
     4   18    2 1    
     5    6    3 ar   
     6    5    4 ar   
     7   34    4 1    
     8    6    5 ar   
     9    8    5 1    
    10   10    6 1    
    11    8    7 1    
    12    9    7 1    
    13   35    7 1    
    14   36    7 1    
    15   37    8 1    
    16   38    8 1    
    17   10    9 2    
    18   13    9 1    
    19   11   10 1    
    20   12   11 1    
    21   17   11 1    
    22   13   12 2    
    23   14   13 1    
    24   15   14 am   
    25   16   14 2    
    26   39   15 1    
    27   40   15 1    
    28   54   17 1    
    29   55   17 1    
    30   56   17 1    
    31   19   18 1    
    32   41   18 1    
    33   20   19 ar   
    34   24   19 ar   
    35   21   20 ar   
    36   42   20 1    
    37   22   21 ar   
    38   27   21 1    
    39   23   22 ar   
    40   43   22 1    
    41   24   23 ar   
    42   44   23 1    
    43   25   24 1    
    44   26   25 1    
    45   57   26 1    
    46   58   26 1    
    47   59   26 1    
    48   28   27 1    
    49   32   27 1    
    50   29   28 1    
    51   45   28 1    
    52   46   28 1    
    53   30   29 1    
    54   47   29 1    
    55   48   29 1    
    56   31   30 1    
    57   33   30 1    
    58   49   30 1    
    59   32   31 1    
    60   50   31 1    
    61   51   31 1    
    62   52   32 1    
    63   53   32 1    
    64   60   33 1    
    65   61   33 1    
    66   62   33 1    
@<TRIPOS>SUBSTRUCTURE
     1 0711        1 GROUP   
@<TRIPOS>SET

