#    Name: 2hnz_PC0_1_INTS_M
#    Modification time : Tue Mar 25 16:51:17 2014

@<TRIPOS>MOLECULE
2hnz_PC0_1_INTS_M
   61     0     6     0     0
SMALL
NO_CHARGES


@<TRIPOS>ATOM
      1 CA          0.8870  -35.1275   19.5830 C.3       2 GLC5        0.0000 
      2 CA         -0.2180  -36.8200   19.1470 C.3       6 GLL5        0.0000 
      3 CA          1.9920  -33.4350   20.0190 C.3       4 GLP5        0.0000 
      4 CA         -3.1930  -37.3310   22.7590 C.3       2 GLC5        0.0000 
      5 CA         -3.4620  -35.3240   21.9270 C.3       6 GLL5        0.0000 
      6 CA         -2.9240  -39.3380   23.5910 C.3       4 GLP5        0.0000 
      7 CA         -3.8765  -35.6240   23.6295 C.3       2 GLC5        0.0000 
      8 CA         -4.2910  -35.9240   25.3320 C.3       4 GLP5        0.0000 
      9 CA         -3.2610  -33.6040   22.5715 C.3       2 GLC5        0.0000 
     10 CA         -3.0600  -31.8840   23.2160 C.3       4 GLP5        0.0000 
     11 CA         -5.1400  -34.1740   21.3720 C.3       2 GLC5        0.0000 
     12 CA         -6.8180  -33.0240   20.8170 C.3       4 GLP5        0.0000 
     13 CA         -4.7260  -35.6590   20.2515 C.3       2 GLC5        0.0000 
     14 CA         -5.9900  -35.9940   18.5760 C.3       4 GLP5        0.0000 
     15 O           0.3435  -36.6165   16.9325 O.2       1 ALC1        0.0000 
     16 O           0.7210  -37.2570   18.2810 O.2       5 ALL1        0.0000 
     17 O          -0.0340  -35.9760   15.5840 O.2       3 ALP1        0.0000 
     18 CA          0.4140  -38.7615   17.6540 C.3       2 GLC5        0.0000 
     19 CA          1.8880  -37.8640   18.5120 C.3       6 GLL5        0.0000 
     20 CA         -1.0600  -39.6590   16.7960 C.3       4 GLP5        0.0000 
     21 CA          2.2900  -36.8035   15.5070 C.3       2 GLC5        0.0000 
     22 CA          3.0990  -37.8660   17.2720 C.3       6 GLL5        0.0000 
     23 CA          1.4810  -35.7410   13.7420 C.3       4 GLP5        0.0000 
     24 CA          1.8700  -39.3710   16.2805 C.3       2 GLC5        0.0000 
     25 CA          0.6410  -40.8760   15.2890 C.3       4 GLP5        0.0000 
     26 CA          6.4965  -35.0620   22.8560 C.3       2 GLC5        0.0000 
     27 CA          4.7300  -36.2410   22.8920 C.3       6 GLL5        0.0000 
     28 CA          8.2630  -33.8830   22.8200 C.3       4 GLP5        0.0000 
     29 CA          4.4930  -35.2490   21.0750 C.3       2 GLC5        0.0000 
     30 CA          4.2560  -34.2570   19.2580 C.3       4 GLP5        0.0000 
     31 CA          5.5725  -37.7930   23.5390 C.3       2 GLC5        0.0000 
     32 CA          6.4150  -39.3450   24.1860 C.3       4 GLP5        0.0000 
     33 CA          1.6000  -33.2015   25.1385 C.3       2 GLC5        0.0000 
     34 CA          0.8000  -34.8600   24.4420 C.3       6 GLL5        0.0000 
     35 CA          2.4000  -31.5430   25.8350 C.3       4 GLP5        0.0000 
     36 CA         -2.1940  -35.2625   25.4900 C.3       2 GLC5        0.0000 
     37 CA         -0.0970  -34.6010   25.6480 C.3       6 GLL5        0.0000 
     38 CA          1.1055  -33.3225   26.3950 C.3       2 GLC5        0.0000 
     39 CA          2.3080  -32.0440   27.1420 C.3       4 GLP5        0.0000 
     40 CA         -0.8665  -38.8820   23.3685 C.3       2 GLC5        0.0000 
     41 CA          1.1910  -38.4260   23.1460 C.3       6 GLL5        0.0000 
     42 CA         -0.9300  -38.0890   17.8397 C.3       2 GLC5        0.0000 
     43 CA         -4.1515  -35.9075   19.3740 C.3       2 GLC5        0.0000 
     44 CA         -2.2340  -35.8880   20.8660 C.3       6 GLL5        0.0000 
     45 CA         -2.5241  -37.8427   20.7410 C.3       2 GLC5        0.0000 
     46 CA         -2.3920  -35.7540   19.4780 C.3       6 GLL5        0.0000 
     47 CA         -3.0280  -39.7140   21.1830 C.3       4 GLP5        0.0000 
     48 CA          2.4868  -35.9390   17.7480 C.3       2 GLC5        0.0000 
     49 CA          2.4800  -34.0130   17.6040 C.3       4 GLP5        0.0000 
     50 CA          4.1565  -40.4892   19.8313 C.3       2 GLC5        0.0000 
     51 CA          3.2480  -39.1610   20.0350 C.3       6 GLL5        0.0000 
     52 CA          5.0430  -41.6630   18.8910 C.3       4 GLP5        0.0000 
     53 CA          4.8807  -39.0832   23.0385 C.3       2 GLC5        0.0000 
     54 CA          3.2920  -39.4700   21.5080 C.3       6 GLL5        0.0000 
     55 CA          0.7592  -36.1402   26.2255 C.3       2 GLC5        0.0000 
     56 CA          1.1670  -37.5500   27.4060 C.3       4 GLP5        0.0000 
     57 CA         -0.2833  -32.9737   24.7435 C.3       2 GLC5        0.0000 
     58 CA         -0.9180  -31.2170   24.4420 C.3       4 GLP5        0.0000 
     59 CA          2.0511  -38.6578   24.6599 C.3       2 GLC5        0.0000 
     60 CA          2.4720  -36.5070   23.8040 C.3       6 GLL5        0.0000 
     61 CA          2.1730  -39.4890   26.1270 C.3       4 GLP5        0.0000 
@<TRIPOS>BOND
@<TRIPOS>SUBSTRUCTURE
     1 ALC1       15 GROUP        1 X    ALC  0     ROOT ALC X 1
     2 GLC5        1 GROUP        1 X    GLC  0     **** GLC X 6
     3 ALP1       17 GROUP        1 Y    ALP  0     ROOT ALP Y 8
     4 GLP5        3 GROUP        1 Y    GLP  0     **** GLP Y 13
     5 ALL1       16 GROUP        1 Z    ALL  0     ROOT ALL Z 15
     6 GLL5        2 GROUP        1 Z    GLL  0     **** GLL Z 20
@<TRIPOS>SET

