#    Name: 2hnz_PC0_1_ligand
#    Modification time : Tue Mar 25 16:51:18 2014

@<TRIPOS>MOLECULE
2hnz_PC0_1_ligand
   42    43     1     0     0
SMALL
NO_CHARGES


@<TRIPOS>ATOM
      1 C1         -0.2180  -36.8200   19.1470 C.ar      1 PC0999      0.0000 
      2 N2         -0.0790  -36.9420   20.5100 N.ar      1 PC0999      0.0000 
      3 C3         -1.0630  -36.4900   21.3740 C.ar      1 PC0999      0.0000 
      4 C4         -2.2340  -35.8880   20.8660 C.ar      1 PC0999      0.0000 
      5 C5         -2.3920  -35.7540   19.4780 C.ar      1 PC0999      0.0000 
      6 C6         -1.3820  -36.2180   18.6200 C.ar      1 PC0999      0.0000 
      7 CL7        -3.4620  -35.3240   21.9270 C.3       1 PC0999      0.0000 
      8 N8          0.7210  -37.2570   18.2810 N.am      1 PC0999      0.0000 
      9 C9          1.8880  -37.8640   18.5120 C.2       1 PC0999      0.0000 
     10 S9          3.0990  -37.8660   17.2720 S.2       1 PC0999      0.0000 
     11 N10         2.0340  -38.4450   19.7030 N.am      1 PC0999      0.0000 
     12 C11         3.2480  -39.1610   20.0350 C.3       1 PC0999      0.0000 
     13 C12         3.2920  -39.4700   21.5080 C.3       1 PC0999      0.0000 
     14 C13         3.4010  -38.1730   22.2740 C.ar      1 PC0999      0.0000 
     15 N14         4.5750  -37.4250   22.1980 N.ar      1 PC0999      0.0000 
     16 C15         4.7300  -36.2410   22.8920 C.ar      1 PC0999      0.0000 
     17 C16         3.6770  -35.7660   23.7040 C.ar      1 PC0999      0.0000 
     18 C17         2.4720  -36.5070   23.8040 C.ar      1 PC0999      0.0000 
     19 C18         2.3250  -37.7220   23.0770 C.ar      1 PC0999      0.0000 
     20 O17         1.4380  -36.1030   24.6610 O.3       1 PC0999      0.0000 
     21 CA          0.8000  -34.8600   24.4420 C.3       1 PC0999      0.0000 
     22 CB         -0.0970  -34.6010   25.6480 C.3       1 PC0999      0.0000 
     23 F18         1.1910  -38.4260   23.1460 F         1 PC0999      0.0000 
     24 H          -0.9507  -36.5881   22.3908 H         1 PC0999      0.0000 
     25 H          -3.2336  -35.3231   19.0952 H         1 PC0999      0.0000 
     26 H          -1.4866  -36.1210   17.6049 H         1 PC0999      0.0000 
     27 H           0.4801  -37.0816   17.2075 H         1 PC0999      0.0000 
     28 H           1.3007  -38.4126   20.4330 H         1 PC0999      0.0000 
     29 H           4.1357  -38.5672   19.7759 H         1 PC0999      0.0000 
     30 H           3.3096  -40.1062   19.4778 H         1 PC0999      0.0000 
     31 H           4.1527  -40.0930   21.7256 H         1 PC0999      0.0000 
     32 H           2.3854  -39.9886   21.8003 H         1 PC0999      0.0000 
     33 H           5.5971  -35.7012   22.8274 H         1 PC0999      0.0000 
     34 H           3.7801  -34.8921   24.2186 H         1 PC0999      0.0000 
     35 H           0.1717  -34.8680   23.5550 H         1 PC0999      0.0000 
     36 H           1.5081  -34.0383   24.3708 H         1 PC0999      0.0000 
     37 H          -3.1195  -34.6223   22.5517 H         1 PC0999      0.0000 
     38 H          -4.2291  -34.9221   21.4269 H         1 PC0999      0.0000 
     39 H          -3.8337  -36.0618   22.4904 H         1 PC0999      0.0000 
     40 H           0.4270  -34.5609   26.4988 H         1 PC0999      0.0000 
     41 H          -0.5889  -33.7343   25.5656 H         1 PC0999      0.0000 
     42 H          -0.7843  -35.3186   25.7606 H         1 PC0999      0.0000 
@<TRIPOS>BOND
     1    2    1 ar   
     2    6    1 ar   
     3    8    1 1    
     4    3    2 ar   
     5    4    3 ar   
     6   24    3 1    
     7    5    4 ar   
     8    7    4 1    
     9    6    5 ar   
    10   25    5 1    
    11   26    6 1    
    12   37    7 1    
    13   38    7 1    
    14   39    7 1    
    15    9    8 am   
    16   27    8 1    
    17   10    9 2    
    18   11    9 am   
    19   12   11 1    
    20   28   11 1    
    21   13   12 1    
    22   29   12 1    
    23   30   12 1    
    24   14   13 1    
    25   31   13 1    
    26   32   13 1    
    27   15   14 ar   
    28   19   14 ar   
    29   16   15 ar   
    30   17   16 ar   
    31   33   16 1    
    32   18   17 ar   
    33   34   17 1    
    34   19   18 ar   
    35   20   18 1    
    36   23   19 1    
    37   21   20 1    
    38   22   21 1    
    39   35   21 1    
    40   36   21 1    
    41   40   22 1    
    42   41   22 1    
    43   42   22 1    
@<TRIPOS>SUBSTRUCTURE
     1 PC0999      1 GROUP   
@<TRIPOS>SET

