#    Name: 3dzy_REA_1_INTS_M
#    Modification time : Tue Mar 25 00:48:32 2014

@<TRIPOS>MOLECULE
3dzy_REA_1_INTS_M
   72     0     9     0     0
SMALL
NO_CHARGES


@<TRIPOS>ATOM
      1 CA          6.7255    6.1355   36.4665 C.3       3 GLC5        0.0000 
      2 CA          7.6830    5.8030   38.2350 C.3       9 GLL5        0.0000 
      3 CA          5.7680    6.4680   34.6980 C.3       6 GLP5        0.0000 
      4 CA          5.7320    9.3465   38.5190 C.3       3 GLC5        0.0000 
      5 CA          5.9050    8.8180   40.2810 C.3       9 GLL5        0.0000 
      6 CA          5.5590    9.8750   36.7570 C.3       6 GLP5        0.0000 
      7 CA          7.4640    8.3450   42.6415 C.3       3 GLC5        0.0000 
      8 CA          6.3870    9.5730   41.3180 C.3       9 GLL5        0.0000 
      9 CA          8.5410    7.1170   43.9650 C.3       6 GLP5        0.0000 
     10 CA          8.6515    9.0090   43.2380 C.3       3 GLC5        0.0000 
     11 CA          8.7620   10.9010   42.5110 C.3       9 GLL5        0.0000 
     12 CA          8.8150   11.7005   44.9525 C.3       3 GLC5        0.0000 
     13 CA          9.8490   11.5680   43.0530 C.3       9 GLL5        0.0000 
     14 CA          7.7810   11.8330   46.8520 C.3       6 GLP5        0.0000 
     15 CA         10.0510   13.6150   42.6550 C.3       3 GLC5        0.0000 
     16 CA         10.2530   15.6620   42.2570 C.3       6 GLP5        0.0000 
     17 CA         13.0005   12.8525   45.7175 C.3       3 GLC5        0.0000 
     18 CA         12.0230   11.8850   43.9480 C.3       9 GLL5        0.0000 
     19 CA         13.9780   13.8200   47.4870 C.3       6 GLP5        0.0000 
     20 CA         11.6690   14.0425   44.1840 C.3       3 GLC5        0.0000 
     21 CA         11.3150   16.2000   44.4200 C.3       6 GLP5        0.0000 
     22 CA          4.2085    4.9170   42.9620 C.3       3 GLC5        0.0000 
     23 CA          4.8560    6.2230   41.5560 C.3       9 GLL5        0.0000 
     24 CA          3.5610    3.6110   44.3680 C.3       6 GLP5        0.0000 
     25 CA          2.0920    6.5635   38.7525 C.3       3 GLC5        0.0000 
     26 CA          3.7740    6.3510   39.3620 C.3       9 GLL5        0.0000 
     27 CA          0.4100    6.7760   38.1430 C.3       6 GLP5        0.0000 
     28 CA         10.3715    8.7880   38.7060 C.3       3 GLC5        0.0000 
     29 CA          8.5700    8.2330   38.4350 C.3       9 GLL5        0.0000 
     30 CA         12.1730    9.3430   38.9770 C.3       6 GLP5        0.0000 
     31 CA          9.3380    7.7870   36.4145 C.3       3 GLC5        0.0000 
     32 CA         10.1060    7.3410   34.3940 C.3       6 GLP5        0.0000 
     33 CA          7.0645    9.0540   37.5960 C.3       3 GLC5        0.0000 
     34 CA          5.1130   13.6460   42.4145 C.3       3 GLC5        0.0000 
     35 CA          5.2750   11.9260   41.2670 C.3       9 GLL5        0.0000 
     36 CA          4.9510   15.3660   43.5620 C.3       6 GLP5        0.0000 
     37 CA          4.7080   11.4015   39.2710 C.3       3 GLC5        0.0000 
     38 CA          4.1410   10.8770   37.2750 C.3       6 GLP5        0.0000 
     39 CA          3.4990   11.9675   41.6605 C.3       3 GLC5        0.0000 
     40 CA          1.7230   12.0090   42.0540 C.3       6 GLP5        0.0000 
     41 CA          9.9745    8.2785   43.6395 C.3       3 GLC5        0.0000 
     42 CA         11.4080    9.4400   43.3140 C.3       9 GLL5        0.0000 
     43 CA         11.8155    9.2785   45.4280 C.3       3 GLC5        0.0000 
     44 CA         12.2230    9.1170   47.5420 C.3       6 GLP5        0.0000 
     45 CA         12.2935   10.1355   41.9540 C.3       3 GLC5        0.0000 
     46 CA         13.1790   10.8310   40.5940 C.3       6 GLP5        0.0000 
     47 CA         12.1915    7.7605   43.6440 C.3       3 GLC5        0.0000 
     48 CA         12.9750    6.0810   43.9740 C.3       6 GLP5        0.0000 
     49 NZ         16.2630   11.9085   43.8290 N.4       2 LYC4        0.0000 
     50 NZ         14.3930   12.1440   43.8050 N.4       8 LYL4        0.0000 
     51 NZ         18.1330   11.6730   43.8530 N.4       5 LYP4        0.0000 
     52 N          14.8120   10.0545   45.9300 N.am      1 SEC2        0.0000 
     53 N          13.6480   10.9730   45.4930 N.am      7 SEL2        0.0000 
     54 N          15.9760    9.1360   46.3670 N.am      4 SEP2        0.0000 
     55 CA          5.9170    2.8607   39.0647 C.3       3 GLC5        0.0000 
     56 CA          5.7690    4.7810   39.6860 C.3       9 GLL5        0.0000 
     57 CA          5.3040    0.9960   38.6930 C.3       6 GLP5        0.0000 
     58 CA          5.7700    4.4478   37.4042 C.3       3 GLC5        0.0000 
     59 CA          5.0100    4.1700   35.3720 C.3       6 GLP5        0.0000 
     60 CA          7.8575    4.8898   40.6090 C.3       3 GLC5        0.0000 
     61 CA          7.2910    4.6700   39.1870 C.3       9 GLL5        0.0000 
     62 CA          8.2280    4.5430   42.5070 C.3       6 GLP5        0.0000 
     63 CA          8.9600    3.9357   38.2815 C.3       3 GLC5        0.0000 
     64 CA         10.4330    2.6350   37.8520 C.3       6 GLP5        0.0000 
     65 CA          6.2070    8.6313   38.0035 C.3       3 GLC5        0.0000 
     66 CA          7.4590    7.2450   38.8270 C.3       9 GLL5        0.0000 
     67 CA         10.6753   10.7948   41.3540 C.3       3 GLC5        0.0000 
     68 CA         12.0450   10.3550   39.9260 C.3       6 GLP5        0.0000 
     69 CA         12.3672   11.1342   42.1453 C.3       3 GLC5        0.0000 
     70 CA         11.0880   10.9900   43.4450 C.3       9 GLL5        0.0000 
     71 CA          6.6922    5.2086   41.5998 C.3       3 GLC5        0.0000 
     72 CA          5.1450    6.2700   39.9720 C.3       9 GLL5        0.0000 
@<TRIPOS>BOND
@<TRIPOS>SUBSTRUCTURE
     1 SEC2       52 GROUP        1 X    SEC  0     ROOT SEC X 2
     2 LYC4       49 GROUP        1 X    LYC  0     **** LYC X 4
     3 GLC5        1 GROUP        1 X    GLC  0     **** GLC X 6
     4 SEP2       54 GROUP        1 Y    SEP  0     ROOT SEP Y 9
     5 LYP4       51 GROUP        1 Y    LYP  0     **** LYP Y 11
     6 GLP5        3 GROUP        1 Y    GLP  0     **** GLP Y 13
     7 SEL2       53 GROUP        1 Z    SEL  0     ROOT SEL Z 16
     8 LYL4       50 GROUP        1 Z    LYL  0     **** LYL Z 18
     9 GLL5        2 GROUP        1 Z    GLL  0     **** GLL Z 20
@<TRIPOS>SET

