#    Name: 3dzy_REA_1_ligand
#    Modification time : Tue Mar 25 00:48:33 2014

@<TRIPOS>MOLECULE
3dzy_REA_1_ligand
   49    49     1     0     0
SMALL
NO_CHARGES


@<TRIPOS>ATOM
      1 C1          5.1450    6.2700   39.9720 C.3       1 REA463      0.0000 
      2 C2          5.7690    4.7810   39.6860 C.3       1 REA463      0.0000 
      3 C3          7.2910    4.6700   39.1870 C.3       1 REA463      0.0000 
      4 C4          7.6830    5.8030   38.2350 C.3       1 REA463      0.0000 
      5 C5          7.4590    7.2450   38.8270 C.2       1 REA463      0.0000 
      6 C6          6.2510    7.5300   39.6730 C.2       1 REA463      0.0000 
      7 C7          5.9050    8.8180   40.2810 C.2       1 REA463      0.0000 
      8 C8          6.3870    9.5730   41.3180 C.2       1 REA463      0.0000 
      9 C9          6.4280   10.9820   41.5770 C.2       1 REA463      0.0000 
     10 C10         7.5900   11.5730   42.1500 C.2       1 REA463      0.0000 
     11 C11         8.7620   10.9010   42.5110 C.2       1 REA463      0.0000 
     12 C12         9.8490   11.5680   43.0530 C.2       1 REA463      0.0000 
     13 C13        11.0880   10.9900   43.4450 C.2       1 REA463      0.0000 
     14 C14        12.0230   11.8850   43.9480 C.2       1 REA463      0.0000 
     15 C15        13.4550   11.6540   44.4530 C.2       1 REA463      0.0000 
     16 C16         4.8560    6.2230   41.5560 C.3       1 REA463      0.0000 
     17 C17         3.7740    6.3510   39.3620 C.3       1 REA463      0.0000 
     18 C18         8.5700    8.2330   38.4350 C.3       1 REA463      0.0000 
     19 C19         5.2750   11.9260   41.2670 C.3       1 REA463      0.0000 
     20 C20        11.4080    9.4400   43.3140 C.3       1 REA463      0.0000 
     21 O1         14.3930   12.1440   43.8050 O.co2     1 REA463      0.0000 
     22 O2         13.6480   10.9730   45.4930 O.co2     1 REA463      0.0000 
     23 H           5.1203    4.2961   38.9360 H         1 REA463      0.0000 
     24 H           5.6653    4.2011   40.6195 H         1 REA463      0.0000 
     25 H           7.3995    3.7073   38.6914 H         1 REA463      0.0000 
     26 H           7.9236    4.6863   40.0723 H         1 REA463      0.0000 
     27 H           7.0988    5.7246   37.3092 H         1 REA463      0.0000 
     28 H           8.7435    5.7095   37.9685 H         1 REA463      0.0000 
     29 H           5.0188    9.2803   39.7420 H         1 REA463      0.0000 
     30 H           6.8523    8.9804   42.1512 H         1 REA463      0.0000 
     31 H           7.5534   12.6245   42.3150 H         1 REA463      0.0000 
     32 H           8.8140    9.8718   42.3665 H         1 REA463      0.0000 
     33 H           9.7610   12.6257   43.1967 H         1 REA463      0.0000 
     34 H          11.7433   12.9319   44.0153 H         1 REA463      0.0000 
     35 H           5.6472    5.8886   42.0681 H         1 REA463      0.0000 
     36 H           4.6323    7.1273   41.9197 H         1 REA463      0.0000 
     37 H           4.0886    5.6206   41.7758 H         1 REA463      0.0000 
     38 H           3.7973    6.1972   38.3742 H         1 REA463      0.0000 
     39 H           3.1539    5.6693   39.7502 H         1 REA463      0.0000 
     40 H           3.3543    7.2466   39.5093 H         1 REA463      0.0000 
     41 H           9.4673    7.9289   38.7549 H         1 REA463      0.0000 
     42 H           8.6347    8.3447   37.4434 H         1 REA463      0.0000 
     43 H           8.4130    9.1413   38.8227 H         1 REA463      0.0000 
     44 H           5.4902   12.8699   41.5175 H         1 REA463      0.0000 
     45 H           5.0464   11.9260   40.2935 H         1 REA463      0.0000 
     46 H           4.4444   11.6732   41.7631 H         1 REA463      0.0000 
     47 H          12.3277    9.2218   43.6405 H         1 REA463      0.0000 
     48 H          10.7689    8.8827   43.8441 H         1 REA463      0.0000 
     49 H          11.3520    9.1281   42.3655 H         1 REA463      0.0000 
@<TRIPOS>BOND
     1    2    1 1    
     2    6    1 1    
     3   16    1 1    
     4   17    1 1    
     5    3    2 1    
     6   23    2 1    
     7   24    2 1    
     8    4    3 1    
     9   25    3 1    
    10   26    3 1    
    11    5    4 1    
    12   27    4 1    
    13   28    4 1    
    14    6    5 2    
    15   18    5 1    
    16    7    6 1    
    17    8    7 2    
    18   29    7 1    
    19    9    8 1    
    20   30    8 1    
    21   10    9 2    
    22   19    9 1    
    23   11   10 1    
    24   31   10 1    
    25   12   11 2    
    26   32   11 1    
    27   13   12 1    
    28   33   12 1    
    29   14   13 2    
    30   20   13 1    
    31   15   14 1    
    32   34   14 1    
    33   21   15 ar   
    34   22   15 ar   
    35   35   16 1    
    36   36   16 1    
    37   37   16 1    
    38   38   17 1    
    39   39   17 1    
    40   40   17 1    
    41   41   18 1    
    42   42   18 1    
    43   43   18 1    
    44   44   19 1    
    45   45   19 1    
    46   46   19 1    
    47   47   20 1    
    48   48   20 1    
    49   49   20 1    
@<TRIPOS>SUBSTRUCTURE
     1 REA463      1 GROUP   
@<TRIPOS>SET

