#    Name: 4EMR_1_CAVITY_N1_ALL.mol2
#    Modification time : Mon Mar 10 17:34:48 2014

@<TRIPOS>MOLECULE
4EMR_1_CAVITY_N1_ALL.mol2
  104     0     6     0     0
SMALL
NO_CHARGES


@<TRIPOS>ATOM
      1 NZ        -11.7555  -21.5514   -7.3807 N.2       3 LYS4        0.0000 
      2 NZ        -11.2461  -22.9736   -8.8700 N.2       3 LYS4        0.0000 
      3 CA        -14.9948  -13.6045   -0.9695 C.3       5 GLY6        0.0000 
      4 CA        -14.4854  -15.0267   -2.4588 C.3       5 GLY6        0.0000 
      5 O         -13.3249  -15.2183   -3.3897 O.2       2 ALA2        0.0000 
      6 CA        -12.9572  -19.2932   -6.9266 C.3       5 GLY6        0.0000 
      7 NZ        -11.7967  -19.4848   -7.8575 N.2       3 LYS4        0.0000 
      8 DU        -13.6083  -20.5237   -7.4850 H         6 CUB7        0.0000 
      9 NZ        -12.4478  -20.7154   -8.4159 N.2       3 LYS4        0.0000 
     10 CZ        -14.2594  -21.7543   -8.0435 C.ar      4 PHE5        0.0000 
     11 NZ        -13.0989  -21.9459   -8.9743 N.2       3 LYS4        0.0000 
     12 CZ        -14.9105  -22.9848   -8.6019 C.ar      4 PHE5        0.0000 
     13 CA        -13.7500  -23.1765   -9.5327 C.3       5 GLY6        0.0000 
     14 CA        -12.5895  -23.3681  -10.4636 C.3       5 GLY6        0.0000 
     15 N         -17.4988  -13.8074   -1.6322 N.2       2 ALA2        0.0000 
     16 CZ        -16.3383  -13.9990   -2.5631 C.ar      4 PHE5        0.0000 
     17 CA        -15.1778  -14.1906   -3.4940 C.3       5 GLY6        0.0000 
     18 DU        -18.1499  -15.0380   -2.1907 H         6 CUB7        0.0000 
     19 DU        -16.9894  -15.2296   -3.1215 H         6 CUB7        0.0000 
     20 CZ        -15.8289  -15.4212   -4.0524 C.ar      4 PHE5        0.0000 
     21 O         -14.6684  -15.6128   -4.9833 O.2       2 ALA2        0.0000 
     22 DU        -18.8010  -16.2685   -2.7491 H         6 CUB7        0.0000 
     23 DU        -16.4800  -16.6517   -4.6108 H         6 CUB7        0.0000 
     24 CA        -15.3195  -16.8433   -5.5417 C.3       5 GLY6        0.0000 
     25 DU        -17.1310  -17.8823   -5.1692 H         6 CUB7        0.0000 
     26 DU        -15.9706  -18.0739   -6.1001 H         6 CUB7        0.0000 
     27 CA        -14.8101  -18.2655   -7.0310 C.3       5 GLY6        0.0000 
     28 O         -13.6496  -18.4571   -7.9618 O.2       2 ALA2        0.0000 
     29 CA        -12.4891  -18.6487   -8.8927 C.3       5 GLY6        0.0000 
     30 CZ        -15.4611  -19.4961   -7.5894 C.ar      4 PHE5        0.0000 
     31 CZ        -14.3006  -19.6877   -8.5203 C.ar      4 PHE5        0.0000 
     32 NZ        -13.1401  -19.8793   -9.4511 N.2       3 LYS4        0.0000 
     33 CA        -20.7542  -19.9602   -4.4243 C.3       5 GLY6        0.0000 
     34 CZ        -14.9517  -20.9182   -9.0787 C.ar      4 PHE5        0.0000 
     35 NZ        -13.7912  -21.1098  -10.0095 N.2       3 LYS4        0.0000 
     36 CA        -21.4053  -21.1907   -4.9827 C.3       5 GLY6        0.0000 
     37 CZ        -14.4423  -22.3404  -10.5679 C.ar      4 PHE5        0.0000 
     38 OG        -20.8959  -22.6129   -6.4720 O.2       1 SER1        0.0000 
     39 N         -18.8422  -14.2019   -3.2259 N.2       2 ALA2        0.0000 
     40 CZ        -17.6817  -14.3935   -4.1567 C.ar      4 PHE5        0.0000 
     41 CZ        -16.5212  -14.5851   -5.0876 C.ar      4 PHE5        0.0000 
     42 O         -15.3607  -14.7767   -6.0185 O.2       2 ALA2        0.0000 
     43 N         -20.6538  -15.2408   -2.8534 N.2       2 ALA2        0.0000 
     44 N         -19.4933  -15.4324   -3.7843 N.2       2 ALA2        0.0000 
     45 DU        -18.3328  -15.6240   -4.7151 H         6 CUB7        0.0000 
     46 DU        -17.1723  -15.8157   -5.6460 H         6 CUB7        0.0000 
     47 DU        -16.0118  -16.0073   -6.5769 H         6 CUB7        0.0000 
     48 N         -14.8513  -16.1989   -7.5078 N.2       2 ALA2        0.0000 
     49 N         -21.3049  -16.4714   -3.4118 N.2       2 ALA2        0.0000 
     50 DU        -20.1444  -16.6630   -4.3427 H         6 CUB7        0.0000 
     51 DU        -18.9839  -16.8546   -5.2736 H         6 CUB7        0.0000 
     52 DU        -17.8234  -17.0462   -6.2044 H         6 CUB7        0.0000 
     53 DU        -16.6629  -17.2378   -7.1353 H         6 CUB7        0.0000 
     54 N         -15.5024  -17.4294   -8.0662 N.2       2 ALA2        0.0000 
     55 N         -14.3419  -17.6210   -8.9971 N.2       2 ALA2        0.0000 
     56 CA        -20.7955  -17.8935   -4.9011 C.3       5 GLY6        0.0000 
     57 OG        -19.6350  -18.0852   -5.8320 O.2       1 SER1        0.0000 
     58 CZ        -18.4745  -18.2768   -6.7628 C.ar      4 PHE5        0.0000 
     59 CZ        -17.3140  -18.4684   -7.6937 C.ar      4 PHE5        0.0000 
     60 CZ        -16.1535  -18.6600   -8.6246 C.ar      4 PHE5        0.0000 
     61 CZ        -14.9930  -18.8516   -9.5555 C.ar      4 PHE5        0.0000 
     62 NZ        -13.8325  -19.0432  -10.4863 N.2       3 LYS4        0.0000 
     63 CA        -21.4466  -19.1241   -5.4595 C.3       5 GLY6        0.0000 
     64 OG        -20.2861  -19.3157   -6.3904 O.2       1 SER1        0.0000 
     65 CZ        -14.4836  -20.2737  -11.0447 C.ar      4 PHE5        0.0000 
     66 CZ        -18.3740  -13.5574   -5.1919 C.ar      4 PHE5        0.0000 
     67 CZ        -16.0530  -13.9406   -7.0537 C.ar      4 PHE5        0.0000 
     68 N         -14.8925  -14.1322   -7.9846 N.2       2 ALA2        0.0000 
     69 N         -19.0251  -14.7880   -5.7504 N.2       2 ALA2        0.0000 
     70 CZ        -17.8646  -14.9796   -6.6812 C.ar      4 PHE5        0.0000 
     71 CZ        -16.7041  -15.1712   -7.6121 C.ar      4 PHE5        0.0000 
     72 N         -15.5436  -15.3628   -8.5430 N.2       2 ALA2        0.0000 
     73 N         -20.8367  -15.8269   -5.3779 N.2       2 ALA2        0.0000 
     74 DU        -19.6762  -16.0185   -6.3088 H         6 CUB7        0.0000 
     75 DU        -18.5157  -16.2101   -7.2396 H         6 CUB7        0.0000 
     76 DU        -17.3552  -16.4017   -8.1705 H         6 CUB7        0.0000 
     77 N         -16.1947  -16.5933   -9.1014 N.2       2 ALA2        0.0000 
     78 N         -15.0342  -16.7850  -10.0323 N.2       2 ALA2        0.0000 
     79 N         -13.8737  -16.9766  -10.9631 N.2       2 ALA2        0.0000 
     80 CZ        -21.4878  -17.0575   -5.9363 C.ar      4 PHE5        0.0000 
     81 CZ        -20.3273  -17.2491   -6.8672 C.ar      4 PHE5        0.0000 
     82 CZ        -19.1668  -17.4407   -7.7980 C.ar      4 PHE5        0.0000 
     83 CZ        -18.0063  -17.6323   -8.7289 C.ar      4 PHE5        0.0000 
     84 CZ        -16.8458  -17.8239   -9.6598 C.ar      4 PHE5        0.0000 
     85 CZ        -15.6853  -18.0155  -10.5907 C.ar      4 PHE5        0.0000 
     86 N         -14.5248  -18.2071  -11.5215 N.2       2 ALA2        0.0000 
     87 NZ        -18.5569  -14.1435   -7.7164 N.2       3 LYS4        0.0000 
     88 NZ        -17.3964  -14.3351   -8.6473 N.2       3 LYS4        0.0000 
     89 CA        -16.2359  -14.5267   -9.5782 C.3       5 GLY6        0.0000 
     90 CA        -15.0754  -14.7183  -10.5091 C.3       5 GLY6        0.0000 
     91 O         -20.3685  -15.1824   -7.3440 O.2       2 ALA2        0.0000 
     92 O         -19.2080  -15.3741   -8.2748 O.2       2 ALA2        0.0000 
     93 O         -18.0475  -15.5657   -9.2057 O.2       2 ALA2        0.0000 
     94 CA        -16.8870  -15.7573  -10.1366 C.3       5 GLY6        0.0000 
     95 CA        -15.7265  -15.9489  -11.0675 C.3       5 GLY6        0.0000 
     96 O         -14.5660  -16.1405  -11.9983 O.2       2 ALA2        0.0000 
     97 O         -21.0196  -16.4130   -7.9024 O.2       2 ALA2        0.0000 
     98 O         -18.6986  -16.7962   -9.7641 O.2       2 ALA2        0.0000 
     99 CZ        -17.5381  -16.9878  -10.6950 C.ar      4 PHE5        0.0000 
    100 CA        -16.3776  -17.1794  -11.6259 C.3       5 GLY6        0.0000 
    101 O         -18.7399  -14.7296  -10.2409 O.2       2 ALA2        0.0000 
    102 CA        -17.5794  -14.9212  -11.1718 C.3       5 GLY6        0.0000 
    103 CA        -16.4189  -15.1128  -12.1027 C.3       5 GLY6        0.0000 
    104 N         -18.2305  -16.1517  -11.7302 N.2       2 ALA2        0.0000 
@<TRIPOS>BOND
@<TRIPOS>SUBSTRUCTURE
     1 SER1       38 GROUP   
     2 ALA2        5 GROUP   
     3 LYS4        1 GROUP   
     4 PHE5       10 GROUP   
     5 GLY6        3 GROUP   
     6 CUB7        8 GROUP   
@<TRIPOS>SET

