#    Name: 4emr_MGP_1_INTS_M
#    Modification time : Mon Mar 24 18:17:21 2014

@<TRIPOS>MOLECULE
4emr_MGP_1_INTS_M
   55     0     9     0     0
SMALL
NO_CHARGES


@<TRIPOS>ATOM
      1 N         -13.7090  -14.5025   -4.9160 N.am      2 SEC2        0.0000 
      2 N         -14.8290  -15.0580   -4.3620 N.am      8 SEL2        0.0000 
      3 N         -12.5890  -13.9470   -5.4700 N.am      5 SEP2        0.0000 
      4 N         -13.8325  -14.9130   -6.0120 N.am      2 SEC2        0.0000 
      5 N         -15.0760  -15.8790   -6.5540 N.am      8 SEL2        0.0000 
      6 N         -23.1355  -16.7875   -3.8155 N.am      2 SEC2        0.0000 
      7 N         -21.6160  -16.1230   -3.7680 N.am      8 SEL2        0.0000 
      8 N         -24.6550  -17.4520   -3.8630 N.am      5 SEP2        0.0000 
      9 CA        -13.6650  -15.3690   -6.8875 C.3       3 GLC5        0.0000 
     10 CA        -15.3230  -14.6970   -7.4000 C.3       9 GLL5        0.0000 
     11 CA        -12.0070  -16.0410   -6.3750 C.3       6 GLP5        0.0000 
     12 CA        -15.0835  -13.2280   -6.5040 C.3       3 GLC5        0.0000 
     13 CA        -14.8440  -11.7590   -5.6080 C.3       6 GLP5        0.0000 
     14 CA        -16.4690  -12.9505   -8.0645 C.3       3 GLC5        0.0000 
     15 CA        -16.1700  -14.8600   -8.6490 C.3       9 GLL5        0.0000 
     16 CA        -16.7680  -11.0410   -7.4800 C.3       6 GLP5        0.0000 
     17 CA        -17.4220  -13.1690   -7.2900 C.3       3 GLC5        0.0000 
     18 CA        -17.6740  -14.8040   -8.2940 C.3       9 GLL5        0.0000 
     19 CA        -17.1700  -11.5340   -6.2860 C.3       6 GLP5        0.0000 
     20 N         -19.9650  -14.4830   -9.5315 N.am      2 SEC2        0.0000 
     21 N         -18.4940  -14.3670   -9.4330 N.am      8 SEL2        0.0000 
     22 N         -21.4360  -14.5990   -9.6300 N.am      5 SEP2        0.0000 
     23 O         -19.2125  -13.1785   -8.8315 O.2       1 ALC1        0.0000 
     24 O         -18.4940  -14.3670   -9.4330 O.2       7 ALL1        0.0000 
     25 O         -19.9310  -11.9900   -8.2300 O.2       4 ALP1        0.0000 
     26 CA        -18.5085  -18.0370   -8.7765 C.3       3 GLC5        0.0000 
     27 CA        -17.9630  -16.2550   -8.0890 C.3       9 GLL5        0.0000 
     28 CA        -19.0540  -19.8190   -9.4640 C.3       6 GLP5        0.0000 
     29 N         -20.3915  -15.5860   -8.9935 N.am      2 SEC2        0.0000 
     30 N         -19.3470  -16.5730   -8.3570 N.am      8 SEL2        0.0000 
     31 N         -20.2385  -16.6020   -9.4865 N.am      2 SEC2        0.0000 
     32 N         -21.1300  -16.6310  -10.6160 N.am      5 SEP2        0.0000 
     33 CA        -17.7945  -18.1550   -9.9120 C.3       3 GLC5        0.0000 
     34 CA        -16.9960  -16.8840   -9.0870 C.3       9 GLL5        0.0000 
     35 CA        -18.5930  -19.4260  -10.7370 C.3       6 GLP5        0.0000 
     36 CA        -17.5650  -19.8640   -8.1175 C.3       3 GLC5        0.0000 
     37 CA        -16.6260  -18.7650   -7.3800 C.3       9 GLL5        0.0000 
     38 CA        -18.5040  -20.9630   -8.8550 C.3       6 GLP5        0.0000 
     39 CA        -16.6325  -21.2460   -7.8000 C.3       3 GLC5        0.0000 
     40 CA        -15.7540  -20.7990   -6.1450 C.3       9 GLL5        0.0000 
     41 CA        -17.5110  -21.6930   -9.4550 C.3       6 GLP5        0.0000 
     42 O         -12.3905  -20.6695  -11.1470 O.2       1 ALC1        0.0000 
     43 O         -13.3780  -20.2250  -10.1240 O.2       7 ALL1        0.0000 
     44 O         -11.4030  -21.1140  -12.1700 O.2       4 ALP1        0.0000 
     45 O         -11.9805  -20.4550  -10.1445 O.2       1 ALC1        0.0000 
     46 O         -10.5830  -20.6850  -10.1650 O.2       4 ALP1        0.0000 
     47 O         -13.3465  -18.4500  -13.2735 O.2       1 ALC1        0.0000 
     48 O         -13.2090  -18.8580  -12.0240 O.2       7 ALL1        0.0000 
     49 O         -13.4840  -18.0420  -14.5230 O.2       4 ALP1        0.0000 
     50 O         -12.3060  -19.9860  -12.0970 O.2       1 ALC1        0.0000 
     51 CA        -16.2440  -19.1970  -11.0070 C.3       3 GLC5        0.0000 
     52 CA        -15.4060  -18.6190   -9.2140 C.3       9 GLL5        0.0000 
     53 CA        -17.0820  -19.7750  -12.8000 C.3       6 GLP5        0.0000 
     54 CA        -16.8720  -13.4080   -9.8662 C.3       3 GLC5        0.0000 
     55 CA        -16.8220  -11.9840  -11.2610 C.3       6 GLP5        0.0000 
@<TRIPOS>BOND
@<TRIPOS>SUBSTRUCTURE
     1 ALC1       23 GROUP        1 X    ALC  0     ROOT ALC X 1
     2 SEC2        1 GROUP        1 X    SEC  0     **** SEC X 2
     3 GLC5        9 GROUP        1 X    GLC  0     **** GLC X 6
     4 ALP1       25 GROUP        1 Y    ALP  0     ROOT ALP Y 8
     5 SEP2        3 GROUP        1 Y    SEP  0     **** SEP Y 9
     6 GLP5       11 GROUP        1 Y    GLP  0     **** GLP Y 13
     7 ALL1       24 GROUP        1 Z    ALL  0     ROOT ALL Z 15
     8 SEL2        2 GROUP        1 Z    SEL  0     **** SEL Z 16
     9 GLL5       10 GROUP        1 Z    GLL  0     **** GLL Z 20
@<TRIPOS>SET

