#    Name: 4emr_MGP_1_ligand
#    Modification time : Mon Mar 24 18:17:21 2014

@<TRIPOS>MOLECULE
4emr_MGP_1_ligand
   49    51     1     0     0
SMALL
NO_CHARGES


@<TRIPOS>ATOM
      1 PA        -15.5330  -16.1350   -5.0460 P.3       1 MGP301      0.0000 
      2 O1A       -15.4690  -17.6200   -4.7220 O.co2     1 MGP301      0.0000 
      3 O2A       -14.8290  -15.0580   -4.3620 O.co2     1 MGP301      0.0000 
      4 O3A       -17.0570  -15.6620   -5.0840 O.3       1 MGP301      0.0000 
      5 O5'       -15.0760  -15.8790   -6.5540 O.3       1 MGP301      0.0000 
      6 PB        -18.0860  -15.3040   -3.9230 P.3       1 MGP301      0.0000 
      7 O1B       -17.5510  -15.2160   -2.5060 O.co2     1 MGP301      0.0000 
      8 O2B       -18.7950  -14.0690   -4.4180 O.co2     1 MGP301      0.0000 
      9 O3B       -18.9640  -16.6540   -3.9980 O.3       1 MGP301      0.0000 
     10 PC        -20.5000  -16.9010   -4.5510 P.3       1 MGP301      0.0000 
     11 O1C       -20.6030  -18.3800   -4.2180 O.co2     1 MGP301      0.0000 
     12 O2C       -20.4230  -16.7570   -6.0790 O.co2     1 MGP301      0.0000 
     13 O3C       -21.6160  -16.1230   -3.7680 O.co2     1 MGP301      0.0000 
     14 C5'       -15.3230  -14.6970   -7.4000 C.3       1 MGP301      0.0000 
     15 C4'       -16.1700  -14.8600   -8.6490 C.3       1 MGP301      0.0000 
     16 O4'       -15.8090  -16.0990   -9.3170 O.3       1 MGP301      0.0000 
     17 C3'       -17.6740  -14.8040   -8.2940 C.3       1 MGP301      0.0000 
     18 O3'       -18.4940  -14.3670   -9.4330 O.3       1 MGP301      0.0000 
     19 C2'       -17.9630  -16.2550   -8.0890 C.3       1 MGP301      0.0000 
     20 O2'       -19.3470  -16.5730   -8.3570 O.3       1 MGP301      0.0000 
     21 C1'       -16.9960  -16.8840   -9.0870 C.3       1 MGP301      0.0000 
     22 N9        -16.3930  -18.0950   -8.5170 N.pl3     1 MGP301      0.0000 
     23 C8        -16.6260  -18.7650   -7.3800 C.3       1 MGP301      0.0000 
     24 N7        -15.7650  -19.8260   -7.2980 N.pl3     1 MGP301      0.0000 
     25 CM7       -15.7540  -20.7990   -6.1450 C.3       1 MGP301      0.0000 
     26 C5        -14.9900  -19.7500   -8.4000 C.2       1 MGP301      0.0000 
     27 C6        -13.9170  -20.5760   -8.9370 C.2       1 MGP301      0.0000 
     28 O6        -13.5400  -21.5660   -8.2890 O.2       1 MGP301      0.0000 
     29 N1        -13.3780  -20.2250  -10.1240 N.am      1 MGP301      0.0000 
     30 C2        -13.8000  -19.1300  -10.8500 C.2       1 MGP301      0.0000 
     31 N2        -13.2090  -18.8580  -12.0240 N.pl3     1 MGP301      0.0000 
     32 N3        -14.8190  -18.3420  -10.4320 N.2       1 MGP301      0.0000 
     33 C4        -15.4060  -18.6190   -9.2140 C.2       1 MGP301      0.0000 
     34 H         -14.3337  -14.2481   -7.7133 H         1 MGP301      0.0000 
     35 H         -15.7903  -13.8800   -6.7736 H         1 MGP301      0.0000 
     36 H         -15.9577  -14.0092   -9.3023 H         1 MGP301      0.0000 
     37 H         -17.8172  -14.2811   -7.4293 H         1 MGP301      0.0000 
     38 H         -17.6429  -16.5265   -7.1114 H         1 MGP301      0.0000 
     39 H         -17.4788  -17.1230   -9.9911 H         1 MGP301      0.0000 
     40 H         -17.6879  -19.1224   -7.3259 H         1 MGP301      0.0000 
     41 H         -16.5101  -18.1015   -6.4829 H         1 MGP301      0.0000 
     42 H         -12.5933  -20.8099  -10.5277 H         1 MGP301      0.0000 
     43 H         -13.5841  -18.0859  -12.5370 H         1 MGP301      0.0000 
     44 H         -12.4464  -19.4518  -12.2807 H         1 MGP301      0.0000 
     45 H         -15.0538  -21.5035   -6.2603 H         1 MGP301      0.0000 
     46 H         -15.5694  -20.3418   -5.2750 H         1 MGP301      0.0000 
     47 H         -16.6307  -21.2702   -6.0483 H         1 MGP301      0.0000 
     48 H         -18.8117  -13.4514   -9.1868 H         1 MGP301      0.0000 
     49 H         -19.6321  -17.1517   -7.5930 H         1 MGP301      0.0000 
@<TRIPOS>BOND
     1    2    1 ar   
     2    3    1 ar   
     3    4    1 1    
     4    5    1 1    
     5    6    4 1    
     6   14    5 1    
     7    7    6 ar   
     8    8    6 ar   
     9    9    6 1    
    10   10    9 1    
    11   11   10 ar   
    12   12   10 ar   
    13   13   10 ar   
    14   15   14 1    
    15   34   14 1    
    16   35   14 1    
    17   16   15 1    
    18   17   15 1    
    19   36   15 1    
    20   21   16 1    
    21   18   17 1    
    22   19   17 1    
    23   37   17 1    
    24   48   18 1    
    25   20   19 1    
    26   21   19 1    
    27   38   19 1    
    28   49   20 1    
    29   22   21 1    
    30   39   21 1    
    31   23   22 1    
    32   33   22 1    
    33   24   23 1    
    34   40   23 1    
    35   41   23 1    
    36   25   24 1    
    37   26   24 1    
    38   45   25 1    
    39   46   25 1    
    40   47   25 1    
    41   27   26 1    
    42   33   26 2    
    43   28   27 2    
    44   29   27 am   
    45   30   29 1    
    46   42   29 1    
    47   31   30 1    
    48   32   30 2    
    49   43   31 1    
    50   44   31 1    
    51   33   32 1    
@<TRIPOS>SUBSTRUCTURE
     1 MGP301      1 GROUP   
@<TRIPOS>SET

