#    Name: 2np8_CC3_1_INTS_M
#    Modification time : Tue Mar 25 21:26:18 2014

@<TRIPOS>MOLECULE
2np8_CC3_1_INTS_M
   72     0     9     0     0
SMALL
NO_CHARGES


@<TRIPOS>ATOM
      1 N           0.1170   33.2355   -1.7610 N.am      2 SEC2        0.0000 
      2 N          -0.9040   34.5510   -1.7140 N.am      8 SEL2        0.0000 
      3 N           1.1380   31.9200   -1.8080 N.am      5 SEP2        0.0000 
      4 CA         -1.9935   38.4480   -4.2205 C.3       3 GLC5        0.0000 
      5 CA         -0.7350   37.8680   -2.5400 C.3       9 GLL5        0.0000 
      6 CA         -3.2520   39.0280   -5.9010 C.3       6 GLP5        0.0000 
      7 O          -1.2410   36.3560   -4.9830 O.2       1 ALC1        0.0000 
      8 O          -1.4820   35.2480   -3.7990 O.2       7 ALL1        0.0000 
      9 O          -1.0000   37.4640   -6.1670 O.2       4 ALP1        0.0000 
     10 CA         -1.0475   32.3050   -5.5330 C.3       3 GLC5        0.0000 
     11 CA         -2.4740   34.0020   -5.5470 C.3       9 GLL5        0.0000 
     12 CA          0.3790   30.6080   -5.5190 C.3       6 GLP5        0.0000 
     13 CA         -2.2490   31.3110   -6.6235 C.3       3 GLC5        0.0000 
     14 CA         -3.2850   32.9700   -6.0170 C.3       9 GLL5        0.0000 
     15 CA         -1.2130   29.6520   -7.2300 C.3       6 GLP5        0.0000 
     16 O          -3.2865   34.1085   -7.8115 O.2       1 ALC1        0.0000 
     17 O          -3.4200   32.8550   -7.3630 O.2       7 ALL1        0.0000 
     18 O          -3.1530   35.3620   -8.2600 O.2       4 ALP1        0.0000 
     19 CA         -2.6560   30.7890   -7.6555 C.3       3 GLC5        0.0000 
     20 CA         -4.0990   31.9260   -8.0810 C.3       9 GLL5        0.0000 
     21 CA         -4.6910   33.5890   -9.1375 C.3       3 GLC5        0.0000 
     22 CA         -5.2830   35.2520  -10.1940 C.3       6 GLP5        0.0000 
     23 CA         -5.7615   32.6475   -7.5080 C.3       3 GLC5        0.0000 
     24 CA         -7.4240   33.3690   -6.9350 C.3       6 GLP5        0.0000 
     25 N          -3.6485   33.1080  -10.2480 N.am      2 SEC2        0.0000 
     26 N          -4.0400   32.0200   -9.4300 N.am      8 SEL2        0.0000 
     27 N          -3.2570   34.1960  -11.0660 N.am      5 SEP2        0.0000 
     28 CA         -3.3575   31.9305  -11.3730 C.3       3 GLC5        0.0000 
     29 CA         -4.6800   31.1470  -10.2170 C.3       9 GLL5        0.0000 
     30 CA         -2.0350   32.7140  -12.5290 C.3       6 GLP5        0.0000 
     31 CA         -4.9815   33.1995  -10.2055 C.3       3 GLC5        0.0000 
     32 CA         -3.3540   29.8390   -7.7460 C.3       3 GLC5        0.0000 
     33 CA         -5.4950   30.0260   -8.2620 C.3       9 GLL5        0.0000 
     34 CA         -4.5135   28.1625   -8.1645 C.3       3 GLC5        0.0000 
     35 CA         -3.5320   26.2990   -8.0670 C.3       6 GLP5        0.0000 
     36 CA        -10.9095   24.8975   -5.2145 C.3       3 GLC5        0.0000 
     37 CA         -9.1930   25.8600   -5.3980 C.3       9 GLL5        0.0000 
     38 CA        -12.6260   23.9350   -5.0310 C.3       6 GLP5        0.0000 
     39 CA         -9.1455   24.5215   -6.9545 C.3       3 GLC5        0.0000 
     40 CA         -9.0980   23.1830   -8.5110 C.3       6 GLP5        0.0000 
     41 CA         -7.4985   31.1425   -3.6675 C.3       3 GLC5        0.0000 
     42 CA         -6.3590   29.3710   -4.0500 C.3       9 GLL5        0.0000 
     43 CA         -8.6380   32.9140   -3.2850 C.3       6 GLP5        0.0000 
     44 CA         -6.7445   31.5090   -6.1585 C.3       3 GLC5        0.0000 
     45 CA         -6.0650   29.6490   -5.3820 C.3       9 GLL5        0.0000 
     46 CA         -3.7085   35.0260   -4.6810 C.3       3 GLC5        0.0000 
     47 CA         -5.0450   35.9500   -4.4960 C.3       6 GLP5        0.0000 
     48 CA         -4.1760   34.3873   -4.0003 C.3       3 GLC5        0.0000 
     49 CA         -2.9030   33.3450   -3.2800 C.3       9 GLL5        0.0000 
     50 CA         -2.6732   30.6585   -4.5983 C.3       3 GLC5        0.0000 
     51 CA         -3.7110   32.3040   -3.7290 C.3       9 GLL5        0.0000 
     52 CA         -1.5400   29.1050   -4.7820 C.3       6 GLP5        0.0000 
     53 CA         -4.3193   34.2475   -5.0273 C.3       3 GLC5        0.0000 
     54 CA         -3.9020   32.1200   -5.1000 C.3       9 GLL5        0.0000 
     55 CA         -5.5088   32.9570   -6.2468 C.3       3 GLC5        0.0000 
     56 CA         -6.4358   30.7402  -11.2030 C.3       3 GLC5        0.0000 
     57 CA         -7.8170   30.8460  -12.4720 C.3       6 GLP5        0.0000 
     58 CA         -3.7739   29.4626  -10.0645 C.3       3 GLC5        0.0000 
     59 CA         -5.4290   30.1220   -9.6510 C.3       9 GLL5        0.0000 
     60 CA         -2.2730   28.5950  -11.0310 C.3       6 GLP5        0.0000 
     61 CA         -6.6399   31.4546   -9.1570 C.3       3 GLC5        0.0000 
     62 CA         -8.0050   32.5790   -9.2160 C.3       6 GLP5        0.0000 
     63 CA         -6.0995   26.6288   -6.5645 C.3       3 GLC5        0.0000 
     64 CA         -6.5000   28.8060   -6.4070 C.3       9 GLL5        0.0000 
     65 CA         -5.3280   25.0170   -6.8880 C.3       6 GLP5        0.0000 
     66 CA         -6.6787   25.3727   -5.7619 C.3       3 GLC5        0.0000 
     67 CA         -7.4890   25.1440   -4.2830 C.3       9 GLL5        0.0000 
     68 CA         -8.4340   24.5101   -3.1976 C.3       3 GLC5        0.0000 
     69 CA         -8.2910   23.0780   -2.4570 C.3       6 GLP5        0.0000 
     70 CA         -5.3985   27.8347   -2.8810 C.3       3 GLC5        0.0000 
     71 CA         -7.1010   28.2380   -3.7280 C.3       9 GLL5        0.0000 
     72 CA         -4.0670   26.8650   -1.8730 C.3       6 GLP5        0.0000 
@<TRIPOS>BOND
@<TRIPOS>SUBSTRUCTURE
     1 ALC1        7 GROUP        1 X    ALC  0     ROOT ALC X 1
     2 SEC2        1 GROUP        1 X    SEC  0     **** SEC X 2
     3 GLC5        4 GROUP        1 X    GLC  0     **** GLC X 6
     4 ALP1        9 GROUP        1 Y    ALP  0     ROOT ALP Y 8
     5 SEP2        3 GROUP        1 Y    SEP  0     **** SEP Y 9
     6 GLP5        6 GROUP        1 Y    GLP  0     **** GLP Y 13
     7 ALL1        8 GROUP        1 Z    ALL  0     ROOT ALL Z 15
     8 SEL2        2 GROUP        1 Z    SEL  0     **** SEL Z 16
     9 GLL5        5 GROUP        1 Z    GLL  0     **** GLL Z 20
@<TRIPOS>SET

