#    Name: 2np8_CC3_1_ligand
#    Modification time : Tue Mar 25 21:26:18 2014

@<TRIPOS>MOLECULE
2np8_CC3_1_ligand
   48    51     1     0     0
SMALL
NO_CHARGES


@<TRIPOS>ATOM
      1 O27        -0.9040   34.5510   -1.7140 O.2       1 CC3394      0.0000 
      2 C26        -0.8280   35.3640   -2.6320 C.2       1 CC3394      0.0000 
      3 C28         0.0680   36.5680   -2.4840 C.3       1 CC3394      0.0000 
      4 C30        -0.7350   37.8680   -2.5400 C.3       1 CC3394      0.0000 
      5 C29        -0.2580   37.3210   -1.1990 C.3       1 CC3394      0.0000 
      6 N25        -1.4820   35.2480   -3.7990 N.am      1 CC3394      0.0000 
      7 C21        -2.2700   34.2020   -4.1850 C.ar      1 CC3394      0.0000 
      8 C20        -2.4740   34.0020   -5.5470 C.ar      1 CC3394      0.0000 
      9 C22        -2.9030   33.3450   -3.2800 C.ar      1 CC3394      0.0000 
     10 C23        -3.7110   32.3040   -3.7290 C.ar      1 CC3394      0.0000 
     11 C24        -3.9020   32.1200   -5.1000 C.ar      1 CC3394      0.0000 
     12 C19        -3.2850   32.9700   -6.0170 C.ar      1 CC3394      0.0000 
     13 N18        -3.4200   32.8550   -7.3630 N.pl3     1 CC3394      0.0000 
     14 C16        -4.0990   31.9260   -8.0810 C.ar      1 CC3394      0.0000 
     15 N15        -4.0400   32.0200   -9.4300 N.ar      1 CC3394      0.0000 
     16 C14        -4.6800   31.1470  -10.2170 C.ar      1 CC3394      0.0000 
     17 C13        -5.4290   30.1220   -9.6510 C.ar      1 CC3394      0.0000 
     18 N17        -4.8220   30.9330   -7.5060 N.ar      1 CC3394      0.0000 
     19 C12        -5.4950   30.0260   -8.2620 C.ar      1 CC3394      0.0000 
     20 N11        -6.2360   29.0230   -7.7240 N.pl3     1 CC3394      0.0000 
     21 C1         -6.5000   28.8060   -6.4070 C.ar      1 CC3394      0.0000 
     22 C6         -7.2420   27.6750   -6.0750 C.ar      1 CC3394      0.0000 
     23 C5         -7.5480   27.3850   -4.7440 C.ar      1 CC3394      0.0000 
     24 C7         -8.3450   26.1460   -4.4140 C.3       1 CC3394      0.0000 
     25 F10        -9.1930   25.8600   -5.3980 F         1 CC3394      0.0000 
     26 F9         -7.4890   25.1440   -4.2830 F         1 CC3394      0.0000 
     27 F8         -9.0250   26.3110   -3.2820 F         1 CC3394      0.0000 
     28 C4         -7.1010   28.2380   -3.7280 C.ar      1 CC3394      0.0000 
     29 C3         -6.3590   29.3710   -4.0500 C.ar      1 CC3394      0.0000 
     30 C2         -6.0650   29.6490   -5.3820 C.ar      1 CC3394      0.0000 
     31 H           0.9136   36.7127   -2.7237 H         1 CC3394      0.0000 
     32 H          -1.6458   37.6350   -2.6366 H         1 CC3394      0.0000 
     33 H          -0.1412   38.5575   -2.7955 H         1 CC3394      0.0000 
     34 H           0.5132   37.8082   -0.9486 H         1 CC3394      0.0000 
     35 H          -0.9914   36.8857   -0.7897 H         1 CC3394      0.0000 
     36 H          -1.3798   36.0602   -4.5105 H         1 CC3394      0.0000 
     37 H          -2.0129   34.6342   -6.2285 H         1 CC3394      0.0000 
     38 H          -2.7680   33.4879   -2.2663 H         1 CC3394      0.0000 
     39 H          -4.1639   31.6753   -3.0587 H         1 CC3394      0.0000 
     40 H          -4.5011   31.3532   -5.4342 H         1 CC3394      0.0000 
     41 H          -2.9031   33.6284   -7.9577 H         1 CC3394      0.0000 
     42 H          -4.6317   31.2153  -11.2506 H         1 CC3394      0.0000 
     43 H          -5.9220   29.4513  -10.2398 H         1 CC3394      0.0000 
     44 H          -6.6688   28.3104   -8.4263 H         1 CC3394      0.0000 
     45 H          -7.5707   27.0418   -6.8219 H         1 CC3394      0.0000 
     46 H          -7.3216   28.0256   -2.7491 H         1 CC3394      0.0000 
     47 H          -6.0299   29.9990   -3.3082 H         1 CC3394      0.0000 
     48 H          -5.5156   30.4931   -5.6184 H         1 CC3394      0.0000 
@<TRIPOS>BOND
     1    2    1 2    
     2    3    2 1    
     3    6    2 am   
     4    4    3 1    
     5    5    3 1    
     6   31    3 1    
     7    5    4 1    
     8   32    4 1    
     9   33    4 1    
    10   34    5 1    
    11   35    5 1    
    12    7    6 1    
    13   36    6 1    
    14    8    7 ar   
    15    9    7 ar   
    16   12    8 ar   
    17   37    8 1    
    18   10    9 ar   
    19   38    9 1    
    20   11   10 ar   
    21   39   10 1    
    22   12   11 ar   
    23   40   11 1    
    24   13   12 1    
    25   14   13 1    
    26   41   13 1    
    27   15   14 ar   
    28   18   14 ar   
    29   16   15 ar   
    30   17   16 ar   
    31   42   16 1    
    32   19   17 ar   
    33   43   17 1    
    34   19   18 ar   
    35   20   19 1    
    36   21   20 1    
    37   44   20 1    
    38   22   21 ar   
    39   30   21 ar   
    40   23   22 ar   
    41   45   22 1    
    42   24   23 1    
    43   28   23 ar   
    44   25   24 1    
    45   26   24 1    
    46   27   24 1    
    47   29   28 ar   
    48   46   28 1    
    49   30   29 ar   
    50   47   29 1    
    51   48   30 1    
@<TRIPOS>SUBSTRUCTURE
     1 CC3394      1 GROUP   
@<TRIPOS>SET

