#    Name: 3a27_SAM_1_INTS_M
#    Modification time : Tue Mar 25 11:30:12 2014

@<TRIPOS>MOLECULE
3a27_SAM_1_INTS_M
   63     0     9     0     0
SMALL
NO_CHARGES


@<TRIPOS>ATOM
      1 CA         -9.6230  -10.4855  -17.0560 C.3       3 GLC5        0.0000 
      2 CA         -8.4970   -9.3050  -18.5220 C.3       9 GLL5        0.0000 
      3 CA        -10.7490  -11.6660  -15.5900 C.3       6 GLP5        0.0000 
      4 CA         -8.4485   -8.4890  -16.5170 C.3       3 GLC5        0.0000 
      5 CA         -8.4000   -7.6730  -14.5120 C.3       6 GLP5        0.0000 
      6 CA         -7.0495   -7.7125  -17.8830 C.3       3 GLC5        0.0000 
      7 CA         -5.6020   -6.1200  -17.2440 C.3       6 GLP5        0.0000 
      8 CA        -10.5420   -8.6975  -20.4120 C.3       3 GLC5        0.0000 
      9 CA         -8.9620   -9.9730  -19.8180 C.3       9 GLL5        0.0000 
     10 CA        -12.1220   -7.4220  -21.0060 C.3       6 GLP5        0.0000 
     11 CA        -10.3155  -11.4275  -17.6330 C.3       3 GLC5        0.0000 
     12 CA         -9.8820  -11.1890  -19.6760 C.3       9 GLL5        0.0000 
     13 CA        -13.6350  -10.6375  -21.9500 C.3       3 GLC5        0.0000 
     14 CA        -12.5100  -11.1240  -20.6000 C.3       9 GLL5        0.0000 
     15 CA        -14.7600  -10.1510  -23.3000 C.3       6 GLP5        0.0000 
     16 CA        -12.7230   -9.6240  -20.3695 C.3       3 GLC5        0.0000 
     17 CA        -12.9360   -8.1240  -20.1390 C.3       6 GLP5        0.0000 
     18 CA         -9.6685  -14.9675  -21.7930 C.3       3 GLC5        0.0000 
     19 CA        -10.9260  -13.2760  -21.4620 C.3       9 GLL5        0.0000 
     20 CA         -8.4110  -16.6590  -22.1240 C.3       6 GLP5        0.0000 
     21 CA        -13.4870  -11.8975  -22.7585 C.3       3 GLC5        0.0000 
     22 CA        -12.2140  -13.6440  -22.2170 C.3       9 GLL5        0.0000 
     23 O         -14.7460  -13.1755  -22.8800 O.2       1 ALC1        0.0000 
     24 O         -14.4170  -13.4090  -21.3920 O.2       7 ALL1        0.0000 
     25 O         -15.0750  -12.9420  -24.3680 O.2       4 ALP1        0.0000 
     26 O         -15.4785  -13.9445  -22.6105 O.2       1 ALC1        0.0000 
     27 O         -16.5400  -14.4800  -23.8290 O.2       4 ALP1        0.0000 
     28 O         -15.8055  -15.1190  -22.9225 O.2       1 ALC1        0.0000 
     29 O         -15.0710  -15.7580  -22.0160 O.2       7 ALL1        0.0000 
     30 CA        -11.4345  -14.5015  -24.5555 C.3       3 GLC5        0.0000 
     31 CA        -13.1510  -15.3740  -23.4340 C.3       9 GLL5        0.0000 
     32 CA         -9.7180  -13.6290  -25.6770 C.3       6 GLP5        0.0000 
     33 CA        -13.8850  -19.1960  -25.1040 C.3       3 GLC5        0.0000 
     34 CA        -12.4380  -18.1640  -25.6870 C.3       9 GLL5        0.0000 
     35 CA        -15.3320  -20.2280  -24.5210 C.3       6 GLP5        0.0000 
     36 CA        -14.4310  -18.4505  -26.6405 C.3       3 GLC5        0.0000 
     37 CA        -12.4540  -18.6870  -26.9710 C.3       9 GLL5        0.0000 
     38 CA        -16.4080  -18.2140  -26.3100 C.3       6 GLP5        0.0000 
     39 CA        -13.8985  -19.2655  -28.4490 C.3       3 GLC5        0.0000 
     40 CA        -15.3430  -19.8440  -29.9270 C.3       6 GLP5        0.0000 
     41 O         -12.4455  -20.6640  -28.5640 O.2       1 ALC1        0.0000 
     42 O         -12.0010  -19.9190  -27.1910 O.2       7 ALL1        0.0000 
     43 O         -12.8900  -21.4090  -29.9370 O.2       4 ALP1        0.0000 
     44 N         -13.1925  -18.2795  -29.4400 N.am      2 SEC2        0.0000 
     45 N         -12.9470  -17.9250  -28.0120 N.am      8 SEL2        0.0000 
     46 N         -13.4380  -18.6340  -30.8680 N.am      5 SEP2        0.0000 
     47 CA        -14.0345  -15.7985  -29.5625 C.3       3 GLC5        0.0000 
     48 CA        -13.4270  -16.6440  -27.7750 C.3       9 GLL5        0.0000 
     49 CA        -14.6420  -14.9530  -31.3500 C.3       6 GLP5        0.0000 
     50 CA        -14.8030  -15.1085  -27.6125 C.3       3 GLC5        0.0000 
     51 CA        -16.1790  -13.5730  -27.4500 C.3       6 GLP5        0.0000 
     52 CA        -14.9175  -17.4290  -27.0425 C.3       3 GLC5        0.0000 
     53 CA        -14.3850  -18.2440  -28.8510 C.3       3 GLC5        0.0000 
     54 CA        -12.4680  -16.9180  -29.6385 C.3       3 GLC5        0.0000 
     55 CA        -11.5090  -17.1920  -31.5020 C.3       6 GLP5        0.0000 
     56 N         -15.0550  -15.9685  -26.5510 N.am      2 SEC2        0.0000 
     57 N         -13.4090  -16.1320  -26.4890 N.am      8 SEL2        0.0000 
     58 N         -16.7010  -15.8050  -26.6130 N.am      5 SEP2        0.0000 
     59 CA        -14.6660  -17.5480  -25.8850 C.3       3 GLC5        0.0000 
     60 CA        -12.9240  -16.8820  -25.4600 C.3       9 GLL5        0.0000 
     61 CA        -11.6480   -9.7293  -20.2860 C.3       3 GLC5        0.0000 
     62 CA        -10.8380  -11.4800  -21.1900 C.3       9 GLL5        0.0000 
     63 CA        -10.6440  -13.5445  -23.7582 C.3       3 GLC5        0.0000 
@<TRIPOS>BOND
@<TRIPOS>SUBSTRUCTURE
     1 ALC1       23 GROUP        1 X    ALC  0     ROOT ALC X 1
     2 SEC2       44 GROUP        1 X    SEC  0     **** SEC X 2
     3 GLC5        1 GROUP        1 X    GLC  0     **** GLC X 6
     4 ALP1       25 GROUP        1 Y    ALP  0     ROOT ALP Y 8
     5 SEP2       46 GROUP        1 Y    SEP  0     **** SEP Y 9
     6 GLP5        3 GROUP        1 Y    GLP  0     **** GLP Y 13
     7 ALL1       24 GROUP        1 Z    ALL  0     ROOT ALL Z 15
     8 SEL2       45 GROUP        1 Z    SEL  0     **** SEL Z 16
     9 GLL5        2 GROUP        1 Z    GLL  0     **** GLL Z 20
@<TRIPOS>SET

