#    Name: 3a27_SAM_1_ligand
#    Modification time : Tue Mar 25 11:30:12 2014

@<TRIPOS>MOLECULE
3a27_SAM_1_ligand
   50    52     1     0     0
SMALL
NO_CHARGES


@<TRIPOS>ATOM
      1 N          -8.9620  -10.0380  -17.3490 N.4       1 SAM250      0.0000 
      2 CA         -8.4970   -9.3050  -18.5220 C.3       1 SAM250      0.0000 
      3 C          -8.8980   -7.8300  -18.4530 C.2       1 SAM250      0.0000 
      4 O          -9.6230   -7.4130  -17.5480 O.co2     1 SAM250      0.0000 
      5 OXT        -8.4990   -7.0180  -19.2900 O.co2     1 SAM250      0.0000 
      6 CB         -8.9620   -9.9730  -19.8180 C.3       1 SAM250      0.0000 
      7 CG         -9.8820  -11.1890  -19.6760 C.3       1 SAM250      0.0000 
      8 SD        -10.8380  -11.4800  -21.1900 S.3       1 SAM250      0.0000 
      9 CE        -12.5100  -11.1240  -20.6000 C.3       1 SAM250      0.0000 
     10 C5'       -10.9260  -13.2760  -21.4620 C.3       1 SAM250      0.0000 
     11 C4'       -12.2140  -13.6440  -22.2170 C.3       1 SAM250      0.0000 
     12 O4'       -12.0010  -14.5510  -23.2810 O.3       1 SAM250      0.0000 
     13 C3'       -13.3010  -14.2650  -21.3470 C.3       1 SAM250      0.0000 
     14 O3'       -14.4170  -13.4090  -21.3920 O.3       1 SAM250      0.0000 
     15 C2'       -13.6750  -15.5690  -22.0220 C.3       1 SAM250      0.0000 
     16 O2'       -15.0710  -15.7580  -22.0160 O.3       1 SAM250      0.0000 
     17 C1'       -13.1510  -15.3740  -23.4340 C.3       1 SAM250      0.0000 
     18 N9        -12.7830  -16.6320  -24.1130 N.pl3     1 SAM250      0.0000 
     19 C8        -12.2250  -17.7420  -23.5380 C.2       1 SAM250      0.0000 
     20 N7        -12.0220  -18.6740  -24.5040 N.2       1 SAM250      0.0000 
     21 C5        -12.4380  -18.1640  -25.6870 C.ar      1 SAM250      0.0000 
     22 C6        -12.4540  -18.6870  -26.9710 C.ar      1 SAM250      0.0000 
     23 N6        -12.0010  -19.9190  -27.1910 N.pl3     1 SAM250      0.0000 
     24 N1        -12.9470  -17.9250  -28.0120 N.ar      1 SAM250      0.0000 
     25 C2        -13.4270  -16.6440  -27.7750 C.ar      1 SAM250      0.0000 
     26 N3        -13.4090  -16.1320  -26.4890 N.ar      1 SAM250      0.0000 
     27 C4        -12.9240  -16.8820  -25.4600 C.ar      1 SAM250      0.0000 
     28 H          -7.3840   -9.3308  -18.5338 H         1 SAM250      0.0000 
     29 H          -8.0632  -10.2756  -20.4033 H         1 SAM250      0.0000 
     30 H          -9.4783   -9.2099  -20.4449 H         1 SAM250      0.0000 
     31 H         -10.6464  -11.0616  -18.9425 H         1 SAM250      0.0000 
     32 H          -9.3559  -12.1096  -19.5560 H         1 SAM250      0.0000 
     33 H         -10.8905  -13.6595  -20.4728 H         1 SAM250      0.0000 
     34 H         -10.0409  -13.4674  -22.0159 H         1 SAM250      0.0000 
     35 H         -12.6438  -12.7054  -22.6228 H         1 SAM250      0.0000 
     36 H         -12.9296  -14.4449  -20.3957 H         1 SAM250      0.0000 
     37 H         -13.1227  -16.3496  -21.5674 H         1 SAM250      0.0000 
     38 H         -13.9063  -14.8458  -23.9963 H         1 SAM250      0.0000 
     39 H         -12.0145  -17.8389  -22.6050 H         1 SAM250      0.0000 
     40 H         -11.6153  -20.3938  -26.4000 H         1 SAM250      0.0000 
     41 H         -12.0872  -20.2588  -28.1276 H         1 SAM250      0.0000 
     42 H         -13.7936  -16.0800  -28.5518 H         1 SAM250      0.0000 
     43 H          -9.4552   -9.4454  -16.7122 H         1 SAM250      0.0000 
     44 H          -9.5825  -10.7817  -17.5977 H         1 SAM250      0.0000 
     45 H          -8.2034  -10.4465  -16.8415 H         1 SAM250      0.0000 
     46 H         -12.8428  -11.8322  -19.9773 H         1 SAM250      0.0000 
     47 H         -12.5524  -10.2557  -20.1058 H         1 SAM250      0.0000 
     48 H         -13.1649  -11.0648  -21.3534 H         1 SAM250      0.0000 
     49 H         -14.6083  -13.2842  -22.3656 H         1 SAM250      0.0000 
     50 H         -15.4357  -15.0103  -22.5710 H         1 SAM250      0.0000 
@<TRIPOS>BOND
     1    2    1 1    
     2   43    1 1    
     3   44    1 1    
     4   45    1 1    
     5    3    2 1    
     6    6    2 1    
     7   28    2 1    
     8    4    3 ar   
     9    5    3 ar   
    10    7    6 1    
    11   29    6 1    
    12   30    6 1    
    13    8    7 1    
    14   31    7 1    
    15   32    7 1    
    16    9    8 1    
    17   10    8 1    
    18   46    9 1    
    19   47    9 1    
    20   48    9 1    
    21   11   10 1    
    22   33   10 1    
    23   34   10 1    
    24   12   11 1    
    25   13   11 1    
    26   35   11 1    
    27   17   12 1    
    28   14   13 1    
    29   15   13 1    
    30   36   13 1    
    31   49   14 1    
    32   16   15 1    
    33   17   15 1    
    34   37   15 1    
    35   50   16 1    
    36   18   17 1    
    37   38   17 1    
    38   19   18 1    
    39   27   18 1    
    40   20   19 2    
    41   39   19 1    
    42   21   20 1    
    43   22   21 ar   
    44   27   21 ar   
    45   23   22 1    
    46   24   22 ar   
    47   40   23 1    
    48   41   23 1    
    49   25   24 ar   
    50   26   25 ar   
    51   42   25 1    
    52   27   26 ar   
@<TRIPOS>SUBSTRUCTURE
     1 SAM250      1 GROUP   
@<TRIPOS>SET

