#    Name: 4BUD_1_CAVITY_N1_6.mol2
#    Modification time : Tue Mar 11 20:30:18 2014

@<TRIPOS>MOLECULE
4BUD_1_CAVITY_N1_6.mol2
   89     0     6     0     0
SMALL
NO_CHARGES


@<TRIPOS>ATOM
      1 CA          3.2067   13.3736   -4.0814 C.3       5 GLY6        0.0000 
      2 O           8.7957   13.7510   -4.4289 O.2       2 ALA2        0.0000 
      3 CA          8.1088   12.5692   -3.8114 C.3       5 GLY6        0.0000 
      4 CA          6.1454   11.7690   -3.8832 C.3       5 GLY6        0.0000 
      5 CA          4.8691   12.1507   -4.5725 C.3       5 GLY6        0.0000 
      6 N           4.1821   10.9689   -3.9550 N.2       2 ALA2        0.0000 
      7 N           3.4952    9.7871   -3.3374 N.2       2 ALA2        0.0000 
      8 CZ          3.5927   12.5324   -5.2618 C.ar      4 PHE5        0.0000 
      9 N           2.9057   11.3506   -4.6443 N.2       2 ALA2        0.0000 
     10 CA          9.7711   11.3463   -4.3025 C.3       5 GLY6        0.0000 
     11 CZ          9.0842   10.1645   -3.6849 C.ar      4 PHE5        0.0000 
     12 O           9.1817   12.9098   -5.6094 O.2       2 ALA2        0.0000 
     13 CA          8.4947   11.7280   -4.9918 C.3       5 GLY6        0.0000 
     14 CZ          7.8078   10.5462   -4.3743 C.ar      4 PHE5        0.0000 
     15 CA          7.2184   12.1097   -5.6812 C.3       5 GLY6        0.0000 
     16 DU          6.5314   10.9279   -5.0636 H         6 CUB7        0.0000 
     17 CZ          5.8445    9.7460   -4.4461 C.ar      4 PHE5        0.0000 
     18 N           5.1575    8.5642   -3.8285 N.2       2 ALA2        0.0000 
     19 CA          5.9420   12.4914   -6.3705 C.3       5 GLY6        0.0000 
     20 N           5.2550   11.3096   -5.7530 N.2       2 ALA2        0.0000 
     21 N           4.5681   10.1277   -5.1354 N.2       2 ALA2        0.0000 
     22 CA          3.9787   11.6913   -6.4423 C.3       5 GLY6        0.0000 
     23 OG          3.5843   18.7455  -11.5980 O.2       1 SER1        0.0000 
     24 CA          8.3763    9.5862   -9.2225 C.3       5 GLY6        0.0000 
     25 N           7.7869   11.1497  -10.5294 N.2       2 ALA2        0.0000 
     26 N           7.0999    9.9679   -9.9118 N.2       2 ALA2        0.0000 
     27 N           6.4130    8.7861   -9.2943 N.2       2 ALA2        0.0000 
     28 CZ          6.5105   11.5314  -11.2187 C.ar      4 PHE5        0.0000 
     29 DU          5.8236   10.3496  -10.6012 H         6 CUB7        0.0000 
     30 N           5.1366    9.1678   -9.9836 N.2       2 ALA2        0.0000 
     31 CZ          5.9211   13.0950  -12.5256 C.ar      4 PHE5        0.0000 
     32 CA          5.2342   11.9131  -11.9081 C.3       5 GLY6        0.0000 
     33 CA          4.5472   10.7313  -11.2905 C.3       5 GLY6        0.0000 
     34 CZ          5.3317   14.6585  -13.8325 C.ar      4 PHE5        0.0000 
     35 CA          4.6447   13.4767  -13.2149 C.3       5 GLY6        0.0000 
     36 NZ          4.7423   16.2220  -15.1394 N.2       3 LYS4        0.0000 
     37 CZ          4.0553   15.0402  -14.5218 C.ar      4 PHE5        0.0000 
     38 NZ          2.7790   15.4219  -15.2112 N.2       3 LYS4        0.0000 
     39 CZ          7.5835   11.8721  -13.0167 C.ar      4 PHE5        0.0000 
     40 N           6.8965   10.6903  -12.3992 N.2       2 ALA2        0.0000 
     41 CZ          6.9940   13.4356  -14.3236 C.ar      4 PHE5        0.0000 
     42 CZ          6.3071   12.2538  -13.7060 C.ar      4 PHE5        0.0000 
     43 CA          5.6201   11.0720  -13.0885 C.3       5 GLY6        0.0000 
     44 CA          6.4046   14.9992  -15.6305 C.3       5 GLY6        0.0000 
     45 CZ          5.7177   13.8173  -15.0129 C.ar      4 PHE5        0.0000 
     46 CA          5.0307   12.6355  -14.3954 C.3       5 GLY6        0.0000 
     47 NZ          4.4413   14.1990  -15.7023 N.2       3 LYS4        0.0000 
     48 CA          9.5677   12.0687   -6.7898 C.3       5 GLY6        0.0000 
     49 CA          8.8807   10.8868   -6.1723 C.3       5 GLY6        0.0000 
     50 CZ          8.1938    9.7050   -5.5547 C.ar      4 PHE5        0.0000 
     51 O           8.2913   12.4504   -7.4791 O.2       2 ALA2        0.0000 
     52 DU          7.6043   11.2685   -6.8616 H         6 CUB7        0.0000 
     53 DU          6.9174   10.0867   -6.2441 H         6 CUB7        0.0000 
     54 CZ          6.2304    8.9049   -5.6265 C.ar      4 PHE5        0.0000 
     55 CA          7.0149   12.8321   -8.1685 C.3       5 GLY6        0.0000 
     56 CA          6.3280   11.6502   -7.5509 C.3       5 GLY6        0.0000 
     57 N           5.6410   10.4684   -6.9334 N.2       2 ALA2        0.0000 
     58 N           4.9541    9.2866   -6.3159 N.2       2 ALA2        0.0000 
     59 CZ          5.7386   13.2138   -8.8578 C.ar      4 PHE5        0.0000 
     60 CA          5.0516   12.0319   -8.2403 C.3       5 GLY6        0.0000 
     61 CA          4.3647   10.8501   -7.6227 C.3       5 GLY6        0.0000 
     62 CA          3.3809   19.4679  -14.0853 C.3       5 GLY6        0.0000 
     63 CA          2.6939   18.2861  -13.4678 C.3       5 GLY6        0.0000 
     64 CZ          2.0070   17.1042  -12.8503 C.ar      4 PHE5        0.0000 
     65 OG          8.5797    8.8638   -6.7352 O.2       1 SER1        0.0000 
     66 N           8.6773   11.6092   -8.6596 N.2       2 ALA2        0.0000 
     67 CA          7.9903   10.4274   -8.0420 C.3       5 GLY6        0.0000 
     68 OG          7.3034    9.2455   -7.4245 O.2       1 SER1        0.0000 
     69 N           6.6164    8.0637   -6.8070 N.2       2 ALA2        0.0000 
     70 CZ          7.4009   11.9909   -9.3489 C.ar      4 PHE5        0.0000 
     71 DU          6.7140   10.8091   -8.7314 H         6 CUB7        0.0000 
     72 N           6.0270    9.6272   -8.1138 N.2       2 ALA2        0.0000 
     73 CZ          6.1245   12.3726  -10.0383 C.ar      4 PHE5        0.0000 
     74 CA          5.4376   11.1908   -9.4207 C.3       5 GLY6        0.0000 
     75 N           4.7506   10.0089   -8.8032 N.2       2 ALA2        0.0000 
     76 CZ          4.8482   12.7543  -10.7276 C.ar      4 PHE5        0.0000 
     77 OG          5.0432   18.2450  -14.5765 O.2       1 SER1        0.0000 
     78 OG          3.6693   15.8814  -13.3414 O.2       1 SER1        0.0000 
     79 NZ          3.7669   18.6267  -15.2658 N.2       3 LYS4        0.0000 
     80 NZ          3.0799   17.4449  -14.6483 N.2       3 LYS4        0.0000 
     81 CZ          2.3930   16.2631  -14.0307 C.ar      4 PHE5        0.0000 
     82 NZ          1.8036   17.8266  -15.3376 N.2       3 LYS4        0.0000 
     83 CZ          1.1166   16.6448  -14.7200 C.ar      4 PHE5        0.0000 
     84 CA          8.6564   12.2128  -14.8147 C.3       5 GLY6        0.0000 
     85 N           7.9694   11.0309  -14.1971 N.2       2 ALA2        0.0000 
     86 CZ          7.3800   12.5945  -15.5040 C.ar      4 PHE5        0.0000 
     87 N           6.6931   11.4126  -14.8865 N.2       2 ALA2        0.0000 
     88 CA          6.1037   12.9762  -16.1934 C.3       5 GLY6        0.0000 
     89 CA          5.4167   11.7943  -15.5758 C.3       5 GLY6        0.0000 
@<TRIPOS>BOND
@<TRIPOS>SUBSTRUCTURE
     1 SER1       23 GROUP   
     2 ALA2        2 GROUP   
     3 LYS4       36 GROUP   
     4 PHE5        8 GROUP   
     5 GLY6        1 GROUP   
     6 CUB7       16 GROUP   
@<TRIPOS>SET

