#    Name: 4bud_29F_1_INTS_M
#    Modification time : Tue Mar 25 08:23:02 2014

@<TRIPOS>MOLECULE
4bud_29F_1_INTS_M
   56     0     9     0     0
SMALL
NO_CHARGES


@<TRIPOS>ATOM
      1 CA          9.7765   10.2005   -5.5630 C.3       3 GLC5        0.0000 
      2 CA          7.9200   10.7910   -5.6540 C.3       9 GLL5        0.0000 
      3 CA         11.6330    9.6100   -5.4720 C.3       6 GLP5        0.0000 
      4 O           8.6415   10.2325  -12.3325 O.2       1 ALC1        0.0000 
      5 O           7.5240   10.8800  -12.8450 O.2       7 ALL1        0.0000 
      6 O           9.7590    9.5850  -11.8200 O.2       4 ALP1        0.0000 
      7 N           9.3480    9.6665  -14.6450 N.am      2 SEC2        0.0000 
      8 N           8.2940   10.5830  -14.9610 N.am      8 SEL2        0.0000 
      9 N          10.4020    8.7500  -14.3290 N.am      5 SEP2        0.0000 
     10 N           8.9720   10.6145  -16.3320 N.am      2 SEC2        0.0000 
     11 N           9.6500   10.6460  -17.7030 N.am      5 SEP2        0.0000 
     12 CA          3.6580   11.2785   -6.6990 C.3       3 GLC5        0.0000 
     13 CA          5.4760   11.1070   -5.6230 C.3       9 GLL5        0.0000 
     14 CA          1.8400   11.4500   -7.7750 C.3       6 GLP5        0.0000 
     15 CA          5.7090   13.1755   -5.2590 C.3       3 GLC5        0.0000 
     16 CA          5.9420   15.2440   -4.8950 C.3       6 GLP5        0.0000 
     17 CA          5.3910    7.1125   -6.4840 C.3       3 GLC5        0.0000 
     18 CA          6.3980    8.8550   -6.1160 C.3       9 GLL5        0.0000 
     19 CA          4.3840    5.3700   -6.8520 C.3       6 GLP5        0.0000 
     20 CA          6.3360   13.4710   -7.2315 C.3       3 GLC5        0.0000 
     21 CA          5.8080   11.6170   -8.3670 C.3       9 GLL5        0.0000 
     22 CA          6.8640   15.3250   -6.0960 C.3       6 GLP5        0.0000 
     23 CA          9.4850    9.8625   -7.8080 C.3       3 GLC5        0.0000 
     24 CA          7.5160    9.9630   -8.6700 C.3       9 GLL5        0.0000 
     25 CA         11.4540    9.7620   -6.9460 C.3       6 GLP5        0.0000 
     26 CA          5.5515   10.7905  -16.8275 C.3       3 GLC5        0.0000 
     27 CA          6.5720   12.4980  -15.9820 C.3       9 GLL5        0.0000 
     28 CA          4.5310    9.0830  -17.6730 C.3       6 GLP5        0.0000 
     29 CA          8.6945   12.4345  -16.2375 C.3       3 GLC5        0.0000 
     30 CA         10.8170   12.3710  -16.4930 C.3       6 GLP5        0.0000 
     31 CA          6.3025   15.3535  -16.2450 C.3       3 GLC5        0.0000 
     32 CA          4.8330   14.1340  -15.4790 C.3       9 GLL5        0.0000 
     33 CA          7.7720   16.5730  -17.0110 C.3       6 GLP5        0.0000 
     34 CA          7.7611    8.5895   -4.8675 C.3       3 GLC5        0.0000 
     35 CA          8.6900    7.4650   -3.6870 C.3       6 GLP5        0.0000 
     36 CA          4.0865   11.9495   -9.0467 C.3       3 GLC5        0.0000 
     37 CA          2.3560   12.1420   -9.0410 C.3       6 GLP5        0.0000 
     38 CA          8.5927   11.8383  -10.9192 C.3       3 GLC5        0.0000 
     39 CA          6.6970   11.2140  -10.5920 C.3       9 GLL5        0.0000 
     40 CA         10.0650   12.9480  -11.5230 C.3       6 GLP5        0.0000 
     41 CA          8.8165    8.7040   -9.4718 C.3       3 GLC5        0.0000 
     42 CA          7.5440   10.2430  -10.0390 C.3       9 GLL5        0.0000 
     43 CA         10.1030    7.3050   -9.5890 C.3       6 GLP5        0.0000 
     44 CA          4.7453   11.7270  -14.6355 C.3       3 GLC5        0.0000 
     45 CA          6.6330   12.1540  -14.6340 C.3       9 GLL5        0.0000 
     46 CA          2.8880   11.1280  -13.9630 C.3       6 GLP5        0.0000 
     47 CA          6.7090   12.6300  -17.8813 C.3       3 GLC5        0.0000 
     48 CA          7.2970   12.2690  -19.5730 C.3       6 GLP5        0.0000 
     49 CA          6.9675   14.2505  -17.1452 C.3       3 GLC5        0.0000 
     50 CA          7.8140   15.5100  -18.1010 C.3       6 GLP5        0.0000 
     51 CA          4.0697   12.4685  -14.9505 C.3       3 GLC5        0.0000 
     52 CA          5.6700   13.4840  -16.3970 C.3       9 GLL5        0.0000 
     53 CA          4.5213   14.5235  -17.8150 C.3       3 GLC5        0.0000 
     54 CA          3.7910   15.2380  -19.6920 C.3       6 GLP5        0.0000 
     55 CA          4.1170   12.2110  -13.9395 C.3       3 GLC5        0.0000 
     56 CA          4.8970   13.7900  -14.1220 C.3       9 GLL5        0.0000 
@<TRIPOS>BOND
@<TRIPOS>SUBSTRUCTURE
     1 ALC1        4 GROUP        1 X    ALC  0     ROOT ALC X 1
     2 SEC2        7 GROUP        1 X    SEC  0     **** SEC X 2
     3 GLC5        1 GROUP        1 X    GLC  0     **** GLC X 6
     4 ALP1        6 GROUP        1 Y    ALP  0     ROOT ALP Y 8
     5 SEP2        9 GROUP        1 Y    SEP  0     **** SEP Y 9
     6 GLP5        3 GROUP        1 Y    GLP  0     **** GLP Y 13
     7 ALL1        5 GROUP        1 Z    ALL  0     ROOT ALL Z 15
     8 SEL2        8 GROUP        1 Z    SEL  0     **** SEL Z 16
     9 GLL5        2 GROUP        1 Z    GLL  0     **** GLL Z 20
@<TRIPOS>SET

