#    Name: 4bud_29F_1_ligand
#    Modification time : Tue Mar 25 08:23:02 2014

@<TRIPOS>MOLECULE
4bud_29F_1_ligand
   39    41     1     0     0
SMALL
NO_CHARGES


@<TRIPOS>ATOM
      1 C           7.9200   10.7910   -5.6540 C.3       1 29F2165     0.0000 
      2 N           7.5240   10.8800  -12.8450 N.am      1 29F2165     0.0000 
      3 O           8.2940   10.5830  -14.9610 O.2       1 29F2165     0.0000 
      4 C1          6.6130   10.3550   -6.3060 C.3       1 29F2165     0.0000 
      5 N1          5.8470   12.4580  -12.4170 N.2       1 29F2165     0.0000 
      6 C2          5.4760   11.1070   -5.6230 C.3       1 29F2165     0.0000 
      7 C3          6.3980    8.8550   -6.1160 C.3       1 29F2165     0.0000 
      8 C4          6.6460   10.6470   -7.8060 C.ar      1 29F2165     0.0000 
      9 C5          5.8080   11.6170   -8.3670 C.ar      1 29F2165     0.0000 
     10 C6          5.8260   11.8970   -9.7380 C.ar      1 29F2165     0.0000 
     11 C7          6.6970   11.2140  -10.5920 C.ar      1 29F2165     0.0000 
     12 C8          7.5440   10.2430  -10.0390 C.ar      1 29F2165     0.0000 
     13 C9          7.5160    9.9630   -8.6700 C.ar      1 29F2165     0.0000 
     14 C10         6.6960   11.5150  -11.9620 C.2       1 29F2165     0.0000 
     15 C11         7.5160   11.1770  -14.1730 C.2       1 29F2165     0.0000 
     16 C12         6.6330   12.1540  -14.6340 C.ar      1 29F2165     0.0000 
     17 C13         6.5720   12.4980  -15.9820 C.ar      1 29F2165     0.0000 
     18 C14         5.6700   13.4840  -16.3970 C.ar      1 29F2165     0.0000 
     19 C15         4.8330   14.1340  -15.4790 C.ar      1 29F2165     0.0000 
     20 C16         4.8970   13.7900  -14.1220 C.ar      1 29F2165     0.0000 
     21 C17         5.7950   12.7980  -13.7100 C.ar      1 29F2165     0.0000 
     22 H           8.1815   10.1453  -12.4872 H         1 29F2165     0.0000 
     23 H           5.1582   12.1409   -7.7523 H         1 29F2165     0.0000 
     24 H           5.1920   12.6124  -10.1205 H         1 29F2165     0.0000 
     25 H           8.1954    9.7298  -10.6521 H         1 29F2165     0.0000 
     26 H           8.1456    9.2404   -8.2843 H         1 29F2165     0.0000 
     27 H           7.1781   12.0372  -16.6631 H         1 29F2165     0.0000 
     28 H           5.6190   13.7383  -17.3970 H         1 29F2165     0.0000 
     29 H           4.1814   14.8531  -15.7973 H         1 29F2165     0.0000 
     30 H           4.2965   14.2569  -13.4433 H         1 29F2165     0.0000 
     31 H           8.7093   10.3299   -6.0596 H         1 29F2165     0.0000 
     32 H           8.0734   11.7744   -5.7508 H         1 29F2165     0.0000 
     33 H           7.9327   10.5873   -4.6750 H         1 29F2165     0.0000 
     34 H           5.4342   10.9077   -4.6440 H         1 29F2165     0.0000 
     35 H           5.5770   12.0975   -5.7164 H         1 29F2165     0.0000 
     36 H           4.5859   10.8654   -6.0095 H         1 29F2165     0.0000 
     37 H           7.1385    8.3193   -6.5219 H         1 29F2165     0.0000 
     38 H           6.3523    8.6060   -5.1486 H         1 29F2165     0.0000 
     39 H           5.5464    8.5454   -6.5389 H         1 29F2165     0.0000 
@<TRIPOS>BOND
     1    4    1 1    
     2   31    1 1    
     3   32    1 1    
     4   33    1 1    
     5   14    2 1    
     6   15    2 am   
     7   22    2 1    
     8   15    3 2    
     9    6    4 1    
    10    7    4 1    
    11    8    4 1    
    12   14    5 2    
    13   21    5 1    
    14   34    6 1    
    15   35    6 1    
    16   36    6 1    
    17   37    7 1    
    18   38    7 1    
    19   39    7 1    
    20    9    8 ar   
    21   13    8 ar   
    22   10    9 ar   
    23   23    9 1    
    24   11   10 ar   
    25   24   10 1    
    26   12   11 ar   
    27   14   11 1    
    28   13   12 ar   
    29   25   12 1    
    30   26   13 1    
    31   16   15 1    
    32   17   16 ar   
    33   21   16 ar   
    34   18   17 ar   
    35   27   17 1    
    36   19   18 ar   
    37   28   18 1    
    38   20   19 ar   
    39   29   19 1    
    40   21   20 ar   
    41   30   20 1    
@<TRIPOS>SUBSTRUCTURE
     1 29F2165     1 GROUP   
@<TRIPOS>SET

