#    Name: 3fx4_FX4_1_INTS_M
#    Modification time : Tue Mar 25 06:43:15 2014

@<TRIPOS>MOLECULE
3fx4_FX4_1_INTS_M
   32     0     6     0     0
SMALL
NO_CHARGES


@<TRIPOS>ATOM
      1 CA         -3.5970  -33.2020   -9.2435 C.3       2 GLC5        0.0000 
      2 CA         -3.3040  -33.3190   -7.3010 C.3       6 GLL5        0.0000 
      3 CA         -3.8900  -33.0850  -11.1860 C.3       4 GLP5        0.0000 
      4 CA          1.0820  -30.3125   -6.1315 C.3       2 GLC5        0.0000 
      5 CA         -0.1940  -30.4380   -4.5690 C.3       6 GLL5        0.0000 
      6 CA          2.3580  -30.1870   -7.6940 C.3       4 GLP5        0.0000 
      7 CA         -1.6660  -30.6195   -2.9040 C.3       2 GLC5        0.0000 
      8 CA         -3.1380  -30.8010   -1.2390 C.3       4 GLP5        0.0000 
      9 CA          5.8175  -28.8055   -6.3795 C.3       2 GLC5        0.0000 
     10 CA          6.2540  -29.3370   -4.5780 C.3       6 GLL5        0.0000 
     11 CA          5.3810  -28.2740   -8.1810 C.3       4 GLP5        0.0000 
     12 CA          6.5965  -27.9710   -2.8730 C.3       2 GLC5        0.0000 
     13 CA          6.9390  -26.6050   -1.1680 C.3       4 GLP5        0.0000 
     14 CA          6.4375  -27.3340   -5.5420 C.3       2 GLC5        0.0000 
     15 CA          6.6210  -25.3310   -6.5060 C.3       4 GLP5        0.0000 
     16 CA          4.4405  -25.5415   -3.5915 C.3       2 GLC5        0.0000 
     17 CA          2.6000  -26.2210   -4.2850 C.3       6 GLL5        0.0000 
     18 CA          6.2810  -24.8620   -2.8980 C.3       4 GLP5        0.0000 
     19 CA          3.9840  -25.4745   -5.4350 C.3       2 GLC5        0.0000 
     20 CA          5.3680  -24.7280   -6.5850 C.3       4 GLP5        0.0000 
     21 CA          2.1705  -24.1370   -3.5950 C.3       2 GLC5        0.0000 
     22 CA          1.7410  -22.0530   -2.9050 C.3       4 GLP5        0.0000 
     23 N           3.1880  -23.8200   -6.7580 N.am      1 SEC2        0.0000 
     24 N           2.4610  -24.5180   -5.9190 N.am      5 SEL2        0.0000 
     25 N           3.9150  -23.1220   -7.5970 N.am      3 SEP2        0.0000 
     26 N           2.4340  -23.6510   -4.8875 N.am      1 SEC2        0.0000 
     27 N           2.4070  -22.7840   -3.8560 N.am      3 SEP2        0.0000 
     28 CA          0.5227  -31.0442   -7.1590 C.3       2 GLC5        0.0000 
     29 CA         -0.6650  -31.4840   -5.5110 C.3       6 GLL5        0.0000 
     30 CA          1.1820  -30.0520   -8.3990 C.3       4 GLP5        0.0000 
     31 CA         -1.7203  -29.4310   -5.9025 C.3       2 GLC5        0.0000 
     32 CA         -3.0110  -27.9010   -6.7650 C.3       4 GLP5        0.0000 
@<TRIPOS>BOND
@<TRIPOS>SUBSTRUCTURE
     1 SEC2       23 GROUP        1 X    SEC  0     ROOT SEC X 2
     2 GLC5        1 GROUP        1 X    GLC  0     **** GLC X 6
     3 SEP2       25 GROUP        1 Y    SEP  0     ROOT SEP Y 9
     4 GLP5        3 GROUP        1 Y    GLP  0     **** GLP Y 13
     5 SEL2       24 GROUP        1 Z    SEL  0     ROOT SEL Z 16
     6 GLL5        2 GROUP        1 Z    GLL  0     **** GLL Z 20
@<TRIPOS>SET

