#    Name: 3fx4_FX4_1_ligand
#    Modification time : Tue Mar 25 06:43:15 2014

@<TRIPOS>MOLECULE
3fx4_FX4_1_ligand
   36    37     1     0     0
SMALL
NO_CHARGES


@<TRIPOS>ATOM
      1 O1         -5.1340  -34.5760   -7.0450 O.co2     1 FX4401      0.0000 
      2 C2         -4.0520  -34.1670   -6.5780 C.2       1 FX4401      0.0000 
      3 O3         -3.6510  -34.5350   -5.4540 O.co2     1 FX4401      0.0000 
      4 C4         -3.3040  -33.3190   -7.3010 C.3       1 FX4401      0.0000 
      5 N5         -2.1170  -32.8580   -6.8020 N.am      1 FX4401      0.0000 
      6 C6         -0.9260  -33.3820   -7.1270 C.2       1 FX4401      0.0000 
      7 O10        -0.7570  -34.3600   -7.9340 O.2       1 FX4401      0.0000 
      8 S7          0.3920  -32.5890   -6.3270 S.3       1 FX4401      0.0000 
      9 C9         -2.0460  -31.8330   -5.9340 C.2       1 FX4401      0.0000 
     10 O11        -3.0720  -31.2000   -5.5050 O.2       1 FX4401      0.0000 
     11 C8         -0.6650  -31.4840   -5.5110 C.2       1 FX4401      0.0000 
     12 C12        -0.1940  -30.4380   -4.5690 C.2       1 FX4401      0.0000 
     13 C13         1.2410  -30.2090   -4.2750 C.ar      1 FX4401      0.0000 
     14 C14         2.1100  -31.2190   -3.8440 C.ar      1 FX4401      0.0000 
     15 C15         3.4630  -30.9520   -3.5930 C.ar      1 FX4401      0.0000 
     16 C16         3.9720  -29.6630   -3.7670 C.ar      1 FX4401      0.0000 
     17 O24         5.2910  -29.3680   -3.5230 O.3       1 FX4401      0.0000 
     18 C25         6.2540  -29.3370   -4.5780 C.3       1 FX4401      0.0000 
     19 C18         1.7070  -28.9120   -4.4650 C.ar      1 FX4401      0.0000 
     20 C17         3.0440  -28.5950   -4.2240 C.ar      1 FX4401      0.0000 
     21 O19         3.5040  -27.3210   -4.4010 O.3       1 FX4401      0.0000 
     22 C20         2.6000  -26.2210   -4.2850 C.3       1 FX4401      0.0000 
     23 C21         2.3390  -25.7310   -5.6830 C.2       1 FX4401      0.0000 
     24 O22         2.0400  -26.5650   -6.5590 O.co2     1 FX4401      0.0000 
     25 O23         2.4610  -24.5180   -5.9190 O.co2     1 FX4401      0.0000 
     26 H          -3.9525  -32.4026   -7.6194 H         1 FX4401      0.0000 
     27 H          -3.1092  -33.7754   -8.3571 H         1 FX4401      0.0000 
     28 H          -0.8867  -29.8530   -4.1052 H         1 FX4401      0.0000 
     29 H           1.7486  -32.1768   -3.7086 H         1 FX4401      0.0000 
     30 H           4.0820  -31.7102   -3.2793 H         1 FX4401      0.0000 
     31 H           1.0591  -28.1765   -4.7871 H         1 FX4401      0.0000 
     32 H           3.0281  -25.4081   -3.7067 H         1 FX4401      0.0000 
     33 H           1.6561  -26.5215   -3.8408 H         1 FX4401      0.0000 
     34 H           7.1670  -29.1074   -4.2408 H         1 FX4401      0.0000 
     35 H           6.3261  -30.2204   -5.0411 H         1 FX4401      0.0000 
     36 H           6.0198  -28.6591   -5.2748 H         1 FX4401      0.0000 
@<TRIPOS>BOND
     1    2    1 ar   
     2    3    2 ar   
     3    4    2 1    
     4    5    4 1    
     5   26    4 1    
     6   27    4 1    
     7    6    5 am   
     8    9    5 am   
     9    7    6 2    
    10    8    6 1    
    11   11    8 1    
    12   10    9 2    
    13   11    9 1    
    14   12   11 2    
    15   13   12 1    
    16   28   12 1    
    17   14   13 ar   
    18   19   13 ar   
    19   15   14 ar   
    20   29   14 1    
    21   16   15 ar   
    22   30   15 1    
    23   17   16 1    
    24   20   16 ar   
    25   18   17 1    
    26   34   18 1    
    27   35   18 1    
    28   36   18 1    
    29   20   19 ar   
    30   31   19 1    
    31   21   20 1    
    32   22   21 1    
    33   23   22 1    
    34   32   22 1    
    35   33   22 1    
    36   24   23 ar   
    37   25   23 ar   
@<TRIPOS>SUBSTRUCTURE
     1 FX4401      1 GROUP   
@<TRIPOS>SET

