#    Name: 2csn_CKI_1_INTS_M
#    Modification time : Tue Mar 25 01:13:21 2014

@<TRIPOS>MOLECULE
2csn_CKI_1_INTS_M
   45     0     9     0     0
SMALL
NO_CHARGES


@<TRIPOS>ATOM
      1 CA        -27.9810   51.9975   48.3930 C.3       3 GLC5        0.0000 
      2 CA        -26.0360   52.5440   48.7070 C.3       9 GLL5        0.0000 
      3 CA        -29.9260   51.4510   48.0790 C.3       6 GLP5        0.0000 
      4 N         -26.6015   55.3290   47.9280 N.am      1 SEC2        0.0000 
      5 N         -26.3280   53.8600   48.6740 N.am      7 SEL2        0.0000 
      6 N         -26.8750   56.7980   47.1820 N.am      4 SEP2        0.0000 
      7 CA        -27.3845   56.1250   49.0790 C.3       3 GLC5        0.0000 
      8 CA        -25.9600   54.6580   49.7550 C.3       9 GLL5        0.0000 
      9 CA        -28.8090   57.5920   48.4030 C.3       6 GLP5        0.0000 
     10 CA        -25.2065   55.6500   48.4190 C.3       3 GLC5        0.0000 
     11 CA        -24.4530   56.6420   47.0830 C.3       6 GLP5        0.0000 
     12 CA        -26.0990   54.3800   52.8985 C.3       3 GLC5        0.0000 
     13 CA        -25.2620   54.1860   50.9050 C.3       9 GLL5        0.0000 
     14 CA        -26.9360   54.5740   54.8920 C.3       6 GLP5        0.0000 
     15 CA        -23.1165   54.6490   51.0610 C.3       3 GLC5        0.0000 
     16 CA        -20.9710   55.1120   51.2170 C.3       6 GLP5        0.0000 
     17 CA        -25.3450   53.8230   54.1040 C.3       3 GLC5        0.0000 
     18 CA        -23.7540   53.0720   53.3160 C.3       9 GLL5        0.0000 
     19 CA        -22.1355   53.5205   52.6950 C.3       3 GLC5        0.0000 
     20 CA        -20.5170   53.9690   52.0740 C.3       6 GLP5        0.0000 
     21 CA        -27.0700   51.0835   50.8930 C.3       3 GLC5        0.0000 
     22 CA        -25.3320   51.9980   49.8130 C.3       9 GLL5        0.0000 
     23 CA        -28.8080   50.1690   51.9730 C.3       6 GLP5        0.0000 
     24 CA        -23.5925   51.8015   46.6250 C.3       3 GLC5        0.0000 
     25 CA        -24.4610   50.3720   45.7790 C.3       9 GLL5        0.0000 
     26 CA        -22.7240   53.2310   47.4710 C.3       6 GLP5        0.0000 
     27 OD1       -23.6195   48.1045   44.2850 O.co2     2 ASC3        0.0000 
     28 OD1       -24.4100   47.6600   45.9210 O.co2     8 ASL3        0.0000 
     29 OD1       -22.8290   48.5490   42.6490 O.co2     5 ASP3        0.0000 
     30 CA        -27.4260   54.4080   50.8775 C.3       3 GLC5        0.0000 
     31 CA        -29.2410   54.3940   51.4250 C.3       6 GLP5        0.0000 
     32 CA        -25.2195   50.0383   52.3005 C.3       3 GLC5        0.0000 
     33 CA        -24.2450   52.1740   52.0210 C.3       9 GLL5        0.0000 
     34 CA        -26.3600   48.5890   52.6030 C.3       6 GLP5        0.0000 
     35 CA        -22.1580   52.1107   51.6030 C.3       3 GLC5        0.0000 
     36 CA        -23.9130   50.8010   51.9750 C.3       9 GLL5        0.0000 
     37 CA        -20.2370   52.7340   51.2080 C.3       6 GLP5        0.0000 
     38 CA        -25.5038   49.4540   51.4660 C.3       3 GLC5        0.0000 
     39 CA        -24.2980   50.0150   50.8640 C.3       9 GLL5        0.0000 
     40 CA        -24.0323   52.3390   48.4990 C.3       3 GLC5        0.0000 
     41 CA        -24.9970   50.6230   49.7940 C.3       9 GLL5        0.0000 
     42 CA        -24.0005   53.4195   49.0487 C.3       3 GLC5        0.0000 
     43 CA        -24.9430   52.7940   50.9230 C.3       9 GLL5        0.0000 
     44 CA        -23.7890   50.7930   43.9475 C.3       3 GLC5        0.0000 
     45 CA        -23.1860   51.9270   42.4210 C.3       6 GLP5        0.0000 
@<TRIPOS>BOND
@<TRIPOS>SUBSTRUCTURE
     1 SEC2        4 GROUP        1 X    SEC  0     ROOT SEC X 2
     2 ASC3       27 GROUP        1 X    ASC  0     **** ASC X 3
     3 GLC5        1 GROUP        1 X    GLC  0     **** GLC X 6
     4 SEP2        6 GROUP        1 Y    SEP  0     ROOT SEP Y 9
     5 ASP3       29 GROUP        1 Y    ASP  0     **** ASP Y 10
     6 GLP5        3 GROUP        1 Y    GLP  0     **** GLP Y 13
     7 SEL2        5 GROUP        1 Z    SEL  0     ROOT SEL Z 16
     8 ASL3       28 GROUP        1 Z    ASL  0     **** ASL Z 17
     9 GLL5        2 GROUP        1 Z    GLL  0     **** GLL Z 20
@<TRIPOS>SET

