#    Name: 2csn_CKI_1_ligand
#    Modification time : Tue Mar 25 01:13:21 2014

@<TRIPOS>MOLECULE
2csn_CKI_1_ligand
   31    32     1     0     0
SMALL
NO_CHARGES


@<TRIPOS>ATOM
      1 C1        -26.0360   52.5440   48.7070 C.ar      1 CKI300      0.0000 
      2 N2        -26.3280   53.8600   48.6740 N.ar      1 CKI300      0.0000 
      3 C3        -25.9600   54.6580   49.7550 C.ar      1 CKI300      0.0000 
      4 C4        -25.2620   54.1860   50.9050 C.ar      1 CKI300      0.0000 
      5 C5        -24.2450   52.1740   52.0210 C.ar      1 CKI300      0.0000 
      6 CL5       -23.7540   53.0720   53.3160 Cl        1 CKI300      0.0000 
      7 C6        -23.9130   50.8010   51.9750 C.ar      1 CKI300      0.0000 
      8 C7        -24.2980   50.0150   50.8640 C.ar      1 CKI300      0.0000 
      9 C8        -24.9970   50.6230   49.7940 C.ar      1 CKI300      0.0000 
     10 C9        -25.3320   51.9980   49.8130 C.ar      1 CKI300      0.0000 
     11 C10       -24.9430   52.7940   50.9230 C.ar      1 CKI300      0.0000 
     12 S         -25.5590   49.6600   48.4320 S.o2      1 CKI300      0.0000 
     13 O1S       -24.9030   48.4270   48.4520 O.2       1 CKI300      0.0000 
     14 O2S       -26.9120   49.6470   48.6610 O.2       1 CKI300      0.0000 
     15 N1'       -25.4440   50.4180   46.9100 N.pl3     1 CKI300      0.0000 
     16 C1'       -24.4610   50.3720   45.7790 C.3       1 CKI300      0.0000 
     17 C2'       -24.3230   48.9460   45.1690 C.3       1 CKI300      0.0000 
     18 N2'       -24.4100   47.6600   45.9210 N.4       1 CKI300      0.0000 
     19 H         -26.3103   51.9064   47.9438 H         1 CKI300      0.0000 
     20 H         -26.2086   55.6820   49.7336 H         1 CKI300      0.0000 
     21 H         -25.0121   54.7879   51.6494 H         1 CKI300      0.0000 
     22 H         -23.3943   50.3754   52.7449 H         1 CKI300      0.0000 
     23 H         -24.0755   49.0248   50.8339 H         1 CKI300      0.0000 
     24 H         -26.3035   51.0679   46.7890 H         1 CKI300      0.0000 
     25 H         -23.4704   50.6886   46.1246 H         1 CKI300      0.0000 
     26 H         -24.7719   51.0529   44.9786 H         1 CKI300      0.0000 
     27 H         -23.3282   48.9513   44.5717 H         1 CKI300      0.0000 
     28 H         -25.0767   48.9035   44.2878 H         1 CKI300      0.0000 
     29 H         -23.5686   47.1254   45.8411 H         1 CKI300      0.0000 
     30 H         -24.5702   47.8104   46.8966 H         1 CKI300      0.0000 
     31 H         -25.1561   47.0841   45.5868 H         1 CKI300      0.0000 
@<TRIPOS>BOND
     1    2    1 ar   
     2   10    1 ar   
     3   19    1 1    
     4    3    2 ar   
     5    4    3 ar   
     6   20    3 1    
     7   11    4 ar   
     8   21    4 1    
     9    6    5 1    
    10    7    5 ar   
    11   11    5 ar   
    12    8    7 ar   
    13   22    7 1    
    14    9    8 ar   
    15   23    8 1    
    16   10    9 ar   
    17   12    9 1    
    18   11   10 ar   
    19   13   12 2    
    20   14   12 2    
    21   15   12 1    
    22   16   15 1    
    23   24   15 1    
    24   17   16 1    
    25   25   16 1    
    26   26   16 1    
    27   18   17 1    
    28   27   17 1    
    29   28   17 1    
    30   29   18 1    
    31   30   18 1    
    32   31   18 1    
@<TRIPOS>SUBSTRUCTURE
     1 CKI300      1 GROUP   
@<TRIPOS>SET

