#    Name: 2oy0_SAH_2_INTS_M
#    Modification time : Mon Mar 24 18:00:48 2014

@<TRIPOS>MOLECULE
2oy0_SAH_2_INTS_M
   54     0    12     0     0
SMALL
NO_CHARGES


@<TRIPOS>ATOM
      1 OD1         2.6355   -1.1390  -53.6730 O.co2     3 ASC3        0.0000 
      2 OD1         2.9880   -0.9630  -51.9100 O.co2    11 ASL3        0.0000 
      3 OD1         2.2830   -1.3150  -55.4360 O.co2     7 ASP3        0.0000 
      4 CA          5.4130   -0.0905  -51.1680 C.3       4 GLC5        0.0000 
      5 CA          3.4200    0.5000  -51.7650 C.3      12 GLL5        0.0000 
      6 CA          7.4060   -0.6810  -50.5710 C.3       8 GLP5        0.0000 
      7 CA          4.4090   -0.8315  -54.8810 C.3       4 GLC5        0.0000 
      8 CA          4.5300    0.9080  -54.0970 C.3      12 GLL5        0.0000 
      9 CA          4.2880   -2.5710  -55.6650 C.3       8 GLP5        0.0000 
     10 N           1.3795   -0.7995  -49.3710 N.am      2 SEC2        0.0000 
     11 N           1.4540    0.5150  -50.2890 N.am     10 SEL2        0.0000 
     12 N           1.3050   -2.1140  -48.4530 N.am      6 SEP2        0.0000 
     13 N           1.3295    2.8380  -50.0830 N.am      2 SEC2        0.0000 
     14 N           2.6120    2.4370  -50.5320 N.am     10 SEL2        0.0000 
     15 N           0.0470    3.2390  -49.6340 N.am      6 SEP2        0.0000 
     16 CA          8.6035    0.4760  -54.3145 C.3       4 GLC5        0.0000 
     17 CA          7.5440    2.2180  -55.0650 C.3      12 GLL5        0.0000 
     18 CA          9.6630   -1.2660  -53.5640 C.3       8 GLP5        0.0000 
     19 CA          7.6385    3.3740  -52.6105 C.3       4 GLC5        0.0000 
     20 CA          7.8860    3.6490  -54.7340 C.3      12 GLL5        0.0000 
     21 CA          7.3910    3.0990  -50.4870 C.3       8 GLP5        0.0000 
     22 O           7.5270    5.4145  -53.4650 O.2       1 ALC1        0.0000 
     23 O           7.5530    3.9610  -53.3990 O.2       9 ALL1        0.0000 
     24 O           7.5010    6.8680  -53.5310 O.2       5 ALP1        0.0000 
     25 CA          9.7395    0.4935  -54.4000 C.3       4 GLC5        0.0000 
     26 CA          9.8160    2.2530  -55.2360 C.3      12 GLL5        0.0000 
     27 CA          9.8665    0.3005  -56.2625 C.3       4 GLC5        0.0000 
     28 CA          9.9170   -1.6520  -57.2890 C.3       8 GLP5        0.0000 
     29 O          16.2280   -0.4150  -57.4290 O.2       1 ALC1        0.0000 
     30 O          14.7590    0.1080  -57.7010 O.2       9 ALL1        0.0000 
     31 O          17.6970   -0.9380  -57.1570 O.2       5 ALP1        0.0000 
     32 N          15.3220   -1.4120  -55.1770 N.am      2 SEC2        0.0000 
     33 N          14.0620   -0.4110  -55.4970 N.am     10 SEL2        0.0000 
     34 N          16.5820   -2.4130  -54.8570 N.am      6 SEP2        0.0000 
     35 CA         11.4255   -0.7855  -54.0050 C.3       4 GLC5        0.0000 
     36 CA         13.1880   -0.3050  -54.4460 C.3      12 GLL5        0.0000 
     37 CA         12.9410    0.1635  -52.6500 C.3       4 GLC5        0.0000 
     38 CA         12.6940    0.6320  -50.8540 C.3       8 GLP5        0.0000 
     39 CA         13.8665    1.6835  -54.2730 C.3       4 GLC5        0.0000 
     40 CA         14.5450    3.6720  -54.1000 C.3       8 GLP5        0.0000 
     41 CA         13.7100   -2.1250  -54.0840 C.3       4 GLC5        0.0000 
     42 CA         14.2320   -3.9450  -53.7220 C.3       8 GLP5        0.0000 
     43 CA         12.2325   -1.2810  -55.7595 C.3       4 GLC5        0.0000 
     44 CA         11.2770   -2.2570  -57.0730 C.3       8 GLP5        0.0000 
     45 N          12.9315    1.3635  -53.3720 N.am      2 SEC2        0.0000 
     46 N          12.0480    0.4630  -54.4890 N.am     10 SEL2        0.0000 
     47 N          13.8150    2.2640  -52.2550 N.am      6 SEP2        0.0000 
     48 CA         10.7735   -0.0780  -54.6230 C.3       4 GLC5        0.0000 
     49 CA         11.8840    1.1100  -55.6820 C.3      12 GLL5        0.0000 
     50 CA         10.2770    2.6603  -53.2890 C.3       4 GLC5        0.0000 
     51 CA         10.9310    2.3270  -51.4380 C.3       8 GLP5        0.0000 
     52 CA         13.5695    2.2748  -55.1543 C.3       4 GLC5        0.0000 
     53 CA         12.7190    1.0510  -56.7730 C.3      12 GLL5        0.0000 
     54 CA         11.9355   -0.6898  -56.6407 C.3       4 GLC5        0.0000 
@<TRIPOS>BOND
@<TRIPOS>SUBSTRUCTURE
     1 ALC1       22 GROUP        1 X    ALC  0     ROOT ALC X 1
     2 SEC2       10 GROUP        1 X    SEC  0     **** SEC X 2
     3 ASC3        1 GROUP        1 X    ASC  0     **** ASC X 3
     4 GLC5        4 GROUP        1 X    GLC  0     **** GLC X 6
     5 ALP1       24 GROUP        1 Y    ALP  0     ROOT ALP Y 8
     6 SEP2       12 GROUP        1 Y    SEP  0     **** SEP Y 9
     7 ASP3        3 GROUP        1 Y    ASP  0     **** ASP Y 10
     8 GLP5        6 GROUP        1 Y    GLP  0     **** GLP Y 13
     9 ALL1       23 GROUP        1 Z    ALL  0     ROOT ALL Z 15
    10 SEL2       11 GROUP        1 Z    SEL  0     **** SEL Z 16
    11 ASL3        2 GROUP        1 Z    ASL  0     **** ASL Z 17
    12 GLL5        5 GROUP        1 Z    GLL  0     **** GLL Z 20
@<TRIPOS>SET

