#    Name: 2oy0_SAH_2_ligand
#    Modification time : Mon Mar 24 18:00:48 2014

@<TRIPOS>MOLECULE
2oy0_SAH_2_ligand
   46    48     1     0     0
SMALL
NO_CHARGES


@<TRIPOS>ATOM
      1 N           2.9880   -0.9630  -51.9100 N.4       1 SAH302      0.0000 
      2 CA          3.4200    0.5000  -51.7650 C.3       1 SAH302      0.0000 
      3 CB          3.5900    1.3430  -52.9890 C.3       1 SAH302      0.0000 
      4 CG          4.5300    0.9080  -54.0970 C.3       1 SAH302      0.0000 
      5 SD          4.8530    2.4050  -55.1170 S.3       1 SAH302      0.0000 
      6 C           2.3930    1.1860  -50.7760 C.2       1 SAH302      0.0000 
      7 O           1.4540    0.5150  -50.2890 O.co2     1 SAH302      0.0000 
      8 OXT         2.6120    2.4370  -50.5320 O.co2     1 SAH302      0.0000 
      9 C5'         6.2730    1.9540  -55.9750 C.3       1 SAH302      0.0000 
     10 C4'         7.5440    2.2180  -55.0650 C.3       1 SAH302      0.0000 
     11 O4'         8.5980    1.8250  -55.9000 O.3       1 SAH302      0.0000 
     12 C3'         7.8860    3.6490  -54.7340 C.3       1 SAH302      0.0000 
     13 O3'         7.5530    3.9610  -53.3990 O.3       1 SAH302      0.0000 
     14 C2'         9.4300    3.7340  -55.0440 C.3       1 SAH302      0.0000 
     15 O2'        10.1400    4.4100  -54.0020 O.3       1 SAH302      0.0000 
     16 C1'         9.8160    2.2530  -55.2360 C.3       1 SAH302      0.0000 
     17 N9         10.8240    1.9730  -56.0580 N.pl3     1 SAH302      0.0000 
     18 C8         11.1300    2.3560  -57.3500 C.2       1 SAH302      0.0000 
     19 N7         12.2170    1.8580  -57.8240 N.2       1 SAH302      0.0000 
     20 C5         12.7190    1.0510  -56.7730 C.ar      1 SAH302      0.0000 
     21 C6         13.8890    0.2390  -56.6970 C.ar      1 SAH302      0.0000 
     22 N6         14.7590    0.1080  -57.7010 N.pl3     1 SAH302      0.0000 
     23 N1         14.0620   -0.4110  -55.4970 N.ar      1 SAH302      0.0000 
     24 C2         13.1880   -0.3050  -54.4460 C.ar      1 SAH302      0.0000 
     25 N3         12.0480    0.4630  -54.4890 N.ar      1 SAH302      0.0000 
     26 C4         11.8840    1.1100  -55.6820 C.ar      1 SAH302      0.0000 
     27 H           4.3768    0.5029  -51.1848 H         1 SAH302      0.0000 
     28 H           3.8951    2.3897  -52.6672 H         1 SAH302      0.0000 
     29 H           2.5667    1.5181  -53.4520 H         1 SAH302      0.0000 
     30 H           4.1032    0.2610  -54.7996 H         1 SAH302      0.0000 
     31 H           5.4939    0.6585  -53.7759 H         1 SAH302      0.0000 
     32 H           6.2915    2.5654  -56.8374 H         1 SAH302      0.0000 
     33 H           6.1647    0.9232  -56.1839 H         1 SAH302      0.0000 
     34 H           7.4897    1.6170  -54.2129 H         1 SAH302      0.0000 
     35 H           7.4000    4.2754  -55.4630 H         1 SAH302      0.0000 
     36 H           9.5058    4.2133  -56.0047 H         1 SAH302      0.0000 
     37 H           9.8257    1.8054  -54.2726 H         1 SAH302      0.0000 
     38 H          10.5099    2.9873  -57.8485 H         1 SAH302      0.0000 
     39 H          14.3883    0.2241  -58.6224 H         1 SAH302      0.0000 
     40 H          15.7033   -0.0945  -57.4414 H         1 SAH302      0.0000 
     41 H          13.3990   -0.8387  -53.5590 H         1 SAH302      0.0000 
     42 H           2.1242   -1.1435  -51.4396 H         1 SAH302      0.0000 
     43 H           2.8591   -1.2190  -52.8681 H         1 SAH302      0.0000 
     44 H           3.6666   -1.5902  -51.5278 H         1 SAH302      0.0000 
     45 H           7.5310    4.9602  -53.3646 H         1 SAH302      0.0000 
     46 H           9.5469    4.3437  -53.1996 H         1 SAH302      0.0000 
@<TRIPOS>BOND
     1    2    1 1    
     2   42    1 1    
     3   43    1 1    
     4   44    1 1    
     5    3    2 1    
     6    6    2 1    
     7   27    2 1    
     8    4    3 1    
     9   28    3 1    
    10   29    3 1    
    11    5    4 1    
    12   30    4 1    
    13   31    4 1    
    14    9    5 1    
    15    7    6 ar   
    16    8    6 ar   
    17   10    9 1    
    18   32    9 1    
    19   33    9 1    
    20   11   10 1    
    21   12   10 1    
    22   34   10 1    
    23   16   11 1    
    24   13   12 1    
    25   14   12 1    
    26   35   12 1    
    27   45   13 1    
    28   15   14 1    
    29   16   14 1    
    30   36   14 1    
    31   46   15 1    
    32   17   16 1    
    33   37   16 1    
    34   18   17 1    
    35   26   17 1    
    36   19   18 2    
    37   38   18 1    
    38   20   19 1    
    39   21   20 ar   
    40   26   20 ar   
    41   22   21 1    
    42   23   21 ar   
    43   39   22 1    
    44   40   22 1    
    45   24   23 ar   
    46   25   24 ar   
    47   41   24 1    
    48   26   25 ar   
@<TRIPOS>SUBSTRUCTURE
     1 SAH302      1 GROUP   
@<TRIPOS>SET

