#    Name: 3o3j_BB4_1_INTS_M
#    Modification time : Tue Mar 25 03:12:29 2014

@<TRIPOS>MOLECULE
3o3j_BB4_1_INTS_M
   47     0    12     0     0
SMALL
NO_CHARGES


@<TRIPOS>ATOM
      1 CA          1.8605   23.4045  -28.2235 C.3       4 GLC5        0.0000 
      2 CA          2.1850   21.7530  -28.9070 C.3      12 GLL5        0.0000 
      3 CA          1.5360   25.0560  -27.5400 C.3       8 GLP5        0.0000 
      4 CA          3.8105   22.4615  -29.6940 C.3       4 GLC5        0.0000 
      5 CA          5.4360   23.1700  -30.4810 C.3       8 GLP5        0.0000 
      6 CA          3.6185   20.3615  -29.2670 C.3       4 GLC5        0.0000 
      7 CA          5.0520   18.9700  -29.6270 C.3       8 GLP5        0.0000 
      8 CA          2.6750   20.9145  -27.4870 C.3       4 GLC5        0.0000 
      9 CA          3.1650   20.0760  -26.0670 C.3       8 GLP5        0.0000 
     10 O          -0.2475   16.3830  -26.7430 O.2       1 ALC1        0.0000 
     11 O          -1.2370   16.7720  -26.3670 O.2       9 ALL1        0.0000 
     12 O           0.7420   15.9940  -27.1190 O.2       5 ALP1        0.0000 
     13 N          -4.4355   17.9080  -26.0815 N.am      2 SEC2        0.0000 
     14 N          -3.4880   17.4590  -26.4460 N.am     10 SEL2        0.0000 
     15 N          -5.3830   18.3570  -25.7170 N.am      6 SEP2        0.0000 
     16 CA         -3.8920   17.4175  -31.5215 C.3       4 GLC5        0.0000 
     17 CA         -3.6020   19.1170  -30.1800 C.3      12 GLL5        0.0000 
     18 CA         -4.1820   15.7180  -32.8630 C.3       8 GLP5        0.0000 
     19 CA         -3.2925   19.5220  -27.5225 C.3       4 GLC5        0.0000 
     20 CA         -2.5230   18.7330  -29.4810 C.3      12 GLL5        0.0000 
     21 CA         -4.0620   20.3110  -25.5640 C.3       8 GLP5        0.0000 
     22 CA          0.6790   20.0605  -27.3785 C.3       4 GLC5        0.0000 
     23 CA         -0.3930   20.2040  -29.2340 C.3      12 GLL5        0.0000 
     24 CA          1.7510   19.9170  -25.5230 C.3       8 GLP5        0.0000 
     25 CA          0.1800   23.1655  -28.4615 C.3       4 GLC5        0.0000 
     26 CA          0.2750   21.4740  -29.5900 C.3      12 GLL5        0.0000 
     27 CA          0.0850   24.8570  -27.3330 C.3       8 GLP5        0.0000 
     28 CA         -3.9980   16.1825  -28.5245 C.3       4 GLC5        0.0000 
     29 CA         -2.3520   17.3750  -28.7310 C.3      12 GLL5        0.0000 
     30 CA         -5.6440   14.9900  -28.3180 C.3       8 GLP5        0.0000 
     31 Zn         -1.3495   17.3680  -24.4610 Zn        3 ZIC7        0.0000 
     32 Zn         -1.0400   16.5700  -24.9850 Zn       11 ZIL7        0.0000 
     33 Zn         -1.6590   18.1660  -23.9370 Zn        7 ZIP7        0.0000 
     34 O          -1.4140   15.2885  -24.5355 O.2       1 ALC1        0.0000 
     35 O          -1.0400   16.5700  -24.9850 O.2       9 ALL1        0.0000 
     36 O          -1.7880   14.0070  -24.0860 O.2       5 ALP1        0.0000 
     37 CA         -0.2525   19.6152  -31.1407 C.3       4 GLC5        0.0000 
     38 CA          0.5450   19.1980  -32.8180 C.3       8 GLP5        0.0000 
     39 CA          0.2190   20.5645  -31.4180 C.3       4 GLC5        0.0000 
     40 CA         -0.9523   23.7867  -29.5877 C.3       4 GLC5        0.0000 
     41 CA         -0.4890   22.3880  -30.4460 C.3      12 GLL5        0.0000 
     42 CA         -0.7650   25.3490  -28.4820 C.3       8 GLP5        0.0000 
     43 CA         -0.7683   20.3285  -31.7815 C.3       4 GLC5        0.0000 
     44 CA         -1.7900   22.0610  -30.9410 C.3      12 GLL5        0.0000 
     45 CA         -2.8211   22.4289  -29.2051 C.3       4 GLC5        0.0000 
     46 CA         -2.3730   20.8570  -30.5490 C.3      12 GLL5        0.0000 
     47 CA         -3.8860   23.3170  -27.7890 C.3       8 GLP5        0.0000 
@<TRIPOS>BOND
@<TRIPOS>SUBSTRUCTURE
     1 ALC1       10 GROUP        1 X    ALC  0     ROOT ALC X 1
     2 SEC2       13 GROUP        1 X    SEC  0     **** SEC X 2
     3 ZIC7       31 GROUP        1 X    ZIC  0     **** ZIC X 5
     4 GLC5        1 GROUP        1 X    GLC  0     **** GLC X 6
     5 ALP1       12 GROUP        1 Y    ALP  0     ROOT ALP Y 8
     6 SEP2       15 GROUP        1 Y    SEP  0     **** SEP Y 9
     7 ZIP7       33 GROUP        1 Y    ZIP  0     **** ZIP Y 12
     8 GLP5        3 GROUP        1 Y    GLP  0     **** GLP Y 13
     9 ALL1       11 GROUP        1 Z    ALL  0     ROOT ALL Z 15
    10 SEL2       14 GROUP        1 Z    SEL  0     **** SEL Z 16
    11 ZIL7       32 GROUP        1 Z    ZIL  0     **** ZIL Z 19
    12 GLL5        2 GROUP        1 Z    GLL  0     **** GLL Z 20
@<TRIPOS>SET

