#    Name: 3o3j_BB4_1_ligand
#    Modification time : Tue Mar 25 03:12:29 2014

@<TRIPOS>MOLECULE
3o3j_BB4_1_ligand
   24    25     1     0     0
SMALL
NO_CHARGES


@<TRIPOS>ATOM
      1 BR          2.1850   21.7530  -28.9070 Br        1 BB4300      0.0000 
      2 N1         -1.2370   16.7720  -26.3670 N.am      1 BB4300      0.0000 
      3 O2         -3.4880   17.4590  -26.4460 O.2       1 BB4300      0.0000 
      4 N3         -3.5430   20.3570  -30.8070 N.pl3     1 BB4300      0.0000 
      5 C4         -3.6020   19.1170  -30.1800 C.2       1 BB4300      0.0000 
      6 C5         -2.5230   18.7330  -29.4810 C.2       1 BB4300      0.0000 
      7 C6         -1.7070   19.8610  -29.6930 C.ar      1 BB4300      0.0000 
      8 C7         -0.3930   20.2040  -29.2340 C.ar      1 BB4300      0.0000 
      9 C8          0.2750   21.4740  -29.5900 C.ar      1 BB4300      0.0000 
     10 C9         -0.4890   22.3880  -30.4460 C.ar      1 BB4300      0.0000 
     11 C10        -1.7900   22.0610  -30.9410 C.ar      1 BB4300      0.0000 
     12 C11        -2.3730   20.8570  -30.5490 C.ar      1 BB4300      0.0000 
     13 C12        -2.3520   17.3750  -28.7310 C.3       1 BB4300      0.0000 
     14 C13        -2.4190   17.2110  -27.0600 C.2       1 BB4300      0.0000 
     15 O14        -1.0400   16.5700  -24.9850 O.3       1 BB4300      0.0000 
     16 H          -0.3843   16.5710  -27.0047 H         1 BB4300      0.0000 
     17 H          -4.2636   20.7257  -31.3224 H         1 BB4300      0.0000 
     18 H          -4.4378   18.5435  -30.2620 H         1 BB4300      0.0000 
     19 H           0.1224   19.5510  -28.6304 H         1 BB4300      0.0000 
     20 H          -0.0622   23.2883  -30.6889 H         1 BB4300      0.0000 
     21 H          -2.2651   22.7025  -31.5635 H         1 BB4300      0.0000 
     22 H          -1.3643   16.9077  -29.0272 H         1 BB4300      0.0000 
     23 H          -3.1123   16.6340  -29.1242 H         1 BB4300      0.0000 
     24 H          -1.3615   15.6392  -24.8112 H         1 BB4300      0.0000 
@<TRIPOS>BOND
     1    9    1 1    
     2   14    2 am   
     3   15    2 1    
     4   16    2 1    
     5   14    3 2    
     6    5    4 1    
     7   12    4 1    
     8   17    4 1    
     9    6    5 2    
    10   18    5 1    
    11    7    6 1    
    12   13    6 1    
    13    8    7 ar   
    14   12    7 ar   
    15    9    8 ar   
    16   19    8 1    
    17   10    9 ar   
    18   11   10 ar   
    19   20   10 1    
    20   12   11 ar   
    21   21   11 1    
    22   14   13 1    
    23   22   13 1    
    24   23   13 1    
    25   24   15 1    
@<TRIPOS>SUBSTRUCTURE
     1 BB4300      1 GROUP   
@<TRIPOS>SET

