#    Name: 4emd_C5P_1_INTS_M
#    Modification time : Mon Mar 24 18:16:26 2014

@<TRIPOS>MOLECULE
4emd_C5P_1_INTS_M
   37     0     9     0     0
SMALL
NO_CHARGES


@<TRIPOS>ATOM
      1 N          16.1560  -12.5850   -3.4940 N.am      2 SEC2        0.0000 
      2 N          17.2430  -13.4200   -3.8180 N.am      8 SEL2        0.0000 
      3 N          15.0690  -11.7500   -3.1700 N.am      5 SEP2        0.0000 
      4 N          17.0300  -12.3225   -4.5530 N.am      2 SEC2        0.0000 
      5 N          16.8170  -11.2250   -5.2880 N.am      5 SEP2        0.0000 
      6 CA         19.8690  -19.0180   -6.3760 C.3       3 GLC5        0.0000 
      7 CA         19.8970  -16.9020   -5.9830 C.3       9 GLL5        0.0000 
      8 CA         19.8410  -21.1340   -6.7690 C.3       6 GLP5        0.0000 
      9 CA         20.6410  -14.0490   -5.2835 C.3       3 GLC5        0.0000 
     10 CA         21.0080  -15.8960   -5.7470 C.3       9 GLL5        0.0000 
     11 CA         20.2740  -12.2020   -4.8200 C.3       6 GLP5        0.0000 
     12 CA         21.0790  -13.6945   -6.5820 C.3       3 GLC5        0.0000 
     13 CA         21.6100  -15.7750   -7.1230 C.3       9 GLL5        0.0000 
     14 CA         20.5480  -11.6140   -6.0410 C.3       6 GLP5        0.0000 
     15 CA         18.6030  -17.2140   -8.3160 C.3       3 GLC5        0.0000 
     16 CA         20.4150  -15.9300   -8.0420 C.3       9 GLL5        0.0000 
     17 CA         16.7910  -18.4980   -8.5900 C.3       6 GLP5        0.0000 
     18 CA         20.8140  -18.0830   -8.3170 C.3       3 GLC5        0.0000 
     19 CA         21.2130  -20.2360   -8.5920 C.3       6 GLP5        0.0000 
     20 CA         19.6650  -16.3230   -9.6005 C.3       3 GLC5        0.0000 
     21 CA         18.9150  -16.7160  -11.1590 C.3       6 GLP5        0.0000 
     22 N          21.0045  -11.7335  -10.0585 N.am      2 SEC2        0.0000 
     23 N          19.9080  -12.6070   -9.6320 N.am      8 SEL2        0.0000 
     24 N          22.1010  -10.8600  -10.4850 N.am      5 SEP2        0.0000 
     25 CA         16.7635  -12.1890   -6.8730 C.3       3 GLC5        0.0000 
     26 CA         18.0680  -12.9940   -8.1840 C.3       9 GLL5        0.0000 
     27 CA         15.4590  -11.3840   -5.5620 C.3       6 GLP5        0.0000 
     28 N          21.8040  -12.5230  -10.1250 N.am      2 SEC2        0.0000 
     29 N          21.5070  -14.1860   -9.7650 N.am      8 SEL2        0.0000 
     30 N          22.0755  -13.8190  -10.9255 N.am      2 SEC2        0.0000 
     31 N          22.6440  -13.4520  -12.0860 N.am      5 SEP2        0.0000 
     32 O          19.1090  -10.0565  -10.2965 O.2       1 ALC1        0.0000 
     33 O          18.2880  -10.9590   -9.4790 O.2       7 ALL1        0.0000 
     34 O          19.9300   -9.1540  -11.1140 O.2       4 ALP1        0.0000 
     35 O          17.1665  -10.1710   -8.9905 O.2       1 ALC1        0.0000 
     36 O          16.0450   -9.3830   -8.5020 O.2       4 ALP1        0.0000 
     37 CA         18.0663  -17.6693   -7.0393 C.3       3 GLC5        0.0000 
@<TRIPOS>BOND
@<TRIPOS>SUBSTRUCTURE
     1 ALC1       32 GROUP        1 X    ALC  0     ROOT ALC X 1
     2 SEC2        1 GROUP        1 X    SEC  0     **** SEC X 2
     3 GLC5        6 GROUP        1 X    GLC  0     **** GLC X 6
     4 ALP1       34 GROUP        1 Y    ALP  0     ROOT ALP Y 8
     5 SEP2        3 GROUP        1 Y    SEP  0     **** SEP Y 9
     6 GLP5        8 GROUP        1 Y    GLP  0     **** GLP Y 13
     7 ALL1       33 GROUP        1 Z    ALL  0     ROOT ALL Z 15
     8 SEL2        2 GROUP        1 Z    SEL  0     **** SEL Z 16
     9 GLL5        7 GROUP        1 Z    GLL  0     **** GLL Z 20
@<TRIPOS>SET

