#    Name: 4emd_C5P_1_ligand
#    Modification time : Mon Mar 24 18:16:26 2014

@<TRIPOS>MOLECULE
4emd_C5P_1_ligand
   33    34     1     0     0
SMALL
NO_CHARGES


@<TRIPOS>ATOM
      1 O3P        17.2430  -13.4200   -3.8180 O.co2     1 C5P401      0.0000 
      2 P          17.3360  -14.9300   -3.7440 P.3       1 C5P401      0.0000 
      3 O1P        17.9960  -15.4700   -2.4970 O.co2     1 C5P401      0.0000 
      4 O2P        16.0170  -15.6330   -3.8900 O.co2     1 C5P401      0.0000 
      5 O5'        18.3180  -15.4270   -4.9390 O.3       1 C5P401      0.0000 
      6 C5'        18.7860  -16.7790   -4.9940 C.3       1 C5P401      0.0000 
      7 C4'        19.8970  -16.9020   -5.9830 C.3       1 C5P401      0.0000 
      8 O4'        19.4580  -16.6850   -7.3400 O.3       1 C5P401      0.0000 
      9 C3'        21.0080  -15.8960   -5.7470 C.3       1 C5P401      0.0000 
     10 O3'        21.9680  -16.3170   -4.7860 O.3       1 C5P401      0.0000 
     11 C2'        21.6100  -15.7750   -7.1230 C.3       1 C5P401      0.0000 
     12 O2'        22.4620  -16.8790   -7.3310 O.3       1 C5P401      0.0000 
     13 C1'        20.4150  -15.9300   -8.0420 C.3       1 C5P401      0.0000 
     14 N1         19.8080  -14.6270   -8.3690 N.am      1 C5P401      0.0000 
     15 C2         20.4330  -13.8150   -9.2780 C.2       1 C5P401      0.0000 
     16 N3         19.9080  -12.6070   -9.6320 N.2       1 C5P401      0.0000 
     17 C4         18.7680  -12.1760   -9.0990 C.2       1 C5P401      0.0000 
     18 C5         18.0680  -12.9940   -8.1840 C.2       1 C5P401      0.0000 
     19 C6         18.6120  -14.2380   -7.8300 C.2       1 C5P401      0.0000 
     20 O2         21.5070  -14.1860   -9.7650 O.2       1 C5P401      0.0000 
     21 N4         18.2880  -10.9590   -9.4790 N.pl3     1 C5P401      0.0000 
     22 H          17.9768  -17.4663   -5.2871 H         1 C5P401      0.0000 
     23 H          19.1529  -17.1112   -4.0101 H         1 C5P401      0.0000 
     24 H          20.3457  -17.8952   -5.9064 H         1 C5P401      0.0000 
     25 H          20.5485  -14.9545   -5.5138 H         1 C5P401      0.0000 
     26 H          22.0399  -14.8503   -7.2509 H         1 C5P401      0.0000 
     27 H          20.7276  -16.4295   -8.9318 H         1 C5P401      0.0000 
     28 H          17.1852  -12.6824   -7.7911 H         1 C5P401      0.0000 
     29 H          18.1050  -14.8395   -7.1712 H         1 C5P401      0.0000 
     30 H          18.8548  -10.4436  -10.1217 H         1 C5P401      0.0000 
     31 H          17.4111  -10.6883   -9.0818 H         1 C5P401      0.0000 
     32 H          22.3417  -15.4709   -4.4059 H         1 C5P401      0.0000 
     33 H          22.7670  -17.1462   -6.4170 H         1 C5P401      0.0000 
@<TRIPOS>BOND
     1    2    1 ar   
     2    3    2 ar   
     3    4    2 ar   
     4    5    2 1    
     5    6    5 1    
     6    7    6 1    
     7   22    6 1    
     8   23    6 1    
     9    8    7 1    
    10    9    7 1    
    11   24    7 1    
    12   13    8 1    
    13   10    9 1    
    14   11    9 1    
    15   25    9 1    
    16   32   10 1    
    17   12   11 1    
    18   13   11 1    
    19   26   11 1    
    20   33   12 1    
    21   14   13 1    
    22   27   13 1    
    23   15   14 am   
    24   19   14 1    
    25   16   15 1    
    26   20   15 2    
    27   17   16 2    
    28   18   17 1    
    29   21   17 1    
    30   19   18 2    
    31   28   18 1    
    32   29   19 1    
    33   30   21 1    
    34   31   21 1    
@<TRIPOS>SUBSTRUCTURE
     1 C5P401      1 GROUP   
@<TRIPOS>SET

