#    Name: 2J7C_2_CAVITY_N1_6.mol2
#    Modification time : Mon Mar 10 21:28:00 2014

@<TRIPOS>MOLECULE
2J7C_2_CAVITY_N1_6.mol2
  149     0     6     0     0
SMALL
NO_CHARGES


@<TRIPOS>ATOM
      1 CA        -23.3029  -26.7485    3.4769 C.3       5 GLY6        0.0000 
      2 CZ        -24.8480  -30.4034    5.5992 C.ar      4 PHE5        0.0000 
      3 CA        -23.1684  -26.1351    1.4506 C.3       5 GLY6        0.0000 
      4 CA        -23.6835  -27.3534    2.1581 C.3       5 GLY6        0.0000 
      5 N         -24.1985  -28.5717    2.8655 N.2       2 ALA2        0.0000 
      6 N         -24.7136  -29.7900    3.5729 N.2       2 ALA2        0.0000 
      7 N         -25.2286  -31.0083    4.2804 N.2       2 ALA2        0.0000 
      8 CZ        -23.5490  -26.7400    0.1318 C.ar      4 PHE5        0.0000 
      9 CZ        -24.0640  -27.9583    0.8392 C.ar      4 PHE5        0.0000 
     10 DU        -24.5791  -29.1766    1.5467 H         6 CUB7        0.0000 
     11 DU        -25.0941  -30.3949    2.2541 H         6 CUB7        0.0000 
     12 N         -25.6092  -31.6132    2.9616 N.2       2 ALA2        0.0000 
     13 N         -26.1242  -32.8315    3.6690 N.2       2 ALA2        0.0000 
     14 CZ        -24.4446  -28.5632   -0.4796 C.ar      4 PHE5        0.0000 
     15 DU        -24.9597  -29.7815    0.2279 H         6 CUB7        0.0000 
     16 DU        -25.4747  -30.9998    0.9353 H         6 CUB7        0.0000 
     17 CZ        -25.9897  -32.2181    1.6428 C.ar      4 PHE5        0.0000 
     18 CZ        -26.5048  -33.4364    2.3502 C.ar      4 PHE5        0.0000 
     19 CZ        -25.3402  -30.3864   -1.0909 C.ar      4 PHE5        0.0000 
     20 DU        -25.8553  -31.6047   -0.3835 H         6 CUB7        0.0000 
     21 CZ        -26.3703  -32.8230    0.3240 C.ar      4 PHE5        0.0000 
     22 CZ        -26.8854  -34.0413    1.0314 C.ar      4 PHE5        0.0000 
     23 CZ        -25.2058  -29.7730   -3.1172 C.ar      4 PHE5        0.0000 
     24 DU        -25.7208  -30.9913   -2.4097 H         6 CUB7        0.0000 
     25 DU        -26.2359  -32.2096   -1.7023 H         6 CUB7        0.0000 
     26 CA        -26.7509  -33.4279   -0.9949 C.3       5 GLY6        0.0000 
     27 CA        -27.2659  -34.6462   -0.2874 C.3       5 GLY6        0.0000 
     28 NZ        -25.0713  -29.1596   -5.1434 N.2       3 LYS4        0.0000 
     29 DU        -25.5863  -30.3779   -4.4360 H         6 CUB7        0.0000 
     30 DU        -26.1014  -31.5962   -3.7285 H         6 CUB7        0.0000 
     31 CA        -26.6164  -32.8145   -3.0211 C.3       5 GLY6        0.0000 
     32 CA        -27.1315  -34.0328   -2.3137 C.3       5 GLY6        0.0000 
     33 NZ        -25.4519  -29.7645   -6.4622 N.2       3 LYS4        0.0000 
     34 N         -25.9669  -30.9828   -5.7548 N.2       2 ALA2        0.0000 
     35 CZ        -27.9415  -29.7437    4.4832 C.ar      4 PHE5        0.0000 
     36 N         -27.2919  -27.9120    1.7495 N.2       2 ALA2        0.0000 
     37 N         -27.8070  -29.1303    2.4569 N.2       2 ALA2        0.0000 
     38 CZ        -28.3220  -30.3486    3.1644 C.ar      4 PHE5        0.0000 
     39 CZ        -28.8371  -31.5669    3.8718 C.ar      4 PHE5        0.0000 
     40 DU        -28.1876  -29.7352    1.1381 H         6 CUB7        0.0000 
     41 DU        -28.7026  -30.9535    1.8456 H         6 CUB7        0.0000 
     42 O         -21.6201  -30.4497    4.6889 O.2       2 ALA2        0.0000 
     43 CZ        -20.4556  -27.3997    1.2478 C.ar      4 PHE5        0.0000 
     44 N         -20.9706  -28.6180    1.9553 N.2       2 ALA2        0.0000 
     45 N         -21.4857  -29.8363    2.6627 N.2       2 ALA2        0.0000 
     46 O         -22.0007  -31.0546    3.3701 O.2       2 ALA2        0.0000 
     47 O         -22.5157  -32.2729    4.0776 O.2       2 ALA2        0.0000 
     48 CZ        -20.8361  -28.0046   -0.0710 C.ar      4 PHE5        0.0000 
     49 DU        -21.3512  -29.2229    0.6364 H         6 CUB7        0.0000 
     50 CA        -21.8662  -30.4412    1.3439 C.3       5 GLY6        0.0000 
     51 O         -22.3813  -31.6595    2.0513 O.2       2 ALA2        0.0000 
     52 O         -22.8963  -32.8778    2.7588 O.2       2 ALA2        0.0000 
     53 CZ        -20.7017  -27.3912   -2.0972 C.ar      4 PHE5        0.0000 
     54 CZ        -21.2167  -28.6095   -1.3898 C.ar      4 PHE5        0.0000 
     55 DU        -21.7318  -29.8278   -0.6824 H         6 CUB7        0.0000 
     56 DU        -22.2468  -31.0461    0.0251 H         6 CUB7        0.0000 
     57 CA        -22.7619  -32.2645    0.7325 C.3       5 GLY6        0.0000 
     58 CZ        -20.5672  -26.7779   -4.1235 C.ar      4 PHE5        0.0000 
     59 CZ        -21.0822  -27.9962   -3.4160 C.ar      4 PHE5        0.0000 
     60 CZ        -21.5973  -29.2145   -2.7086 C.ar      4 PHE5        0.0000 
     61 DU        -22.1123  -30.4328   -2.0012 H         6 CUB7        0.0000 
     62 CA        -22.6274  -31.6511   -1.2937 C.3       5 GLY6        0.0000 
     63 CA        -23.1424  -32.8694   -0.5863 C.3       5 GLY6        0.0000 
     64 CZ        -23.6575  -34.0877    0.1212 C.ar      4 PHE5        0.0000 
     65 NZ        -20.9478  -27.3828   -5.4423 N.2       3 LYS4        0.0000 
     66 NZ        -21.4628  -28.6011   -4.7348 N.2       3 LYS4        0.0000 
     67 CZ        -21.9779  -29.8194   -4.0274 C.ar      4 PHE5        0.0000 
     68 DU        -22.4929  -31.0377   -3.3200 H         6 CUB7        0.0000 
     69 CA        -23.0080  -32.2560   -2.6125 C.3       5 GLY6        0.0000 
     70 CA        -23.5230  -33.4743   -1.9051 C.3       5 GLY6        0.0000 
     71 NZ        -22.3584  -30.4243   -5.3462 N.2       3 LYS4        0.0000 
     72 CZ        -22.8735  -31.6426   -4.6388 C.ar      4 PHE5        0.0000 
     73 N         -23.3885  -32.8609   -3.9313 N.2       2 ALA2        0.0000 
     74 CA        -23.9036  -34.0792   -3.2239 C.3       5 GLY6        0.0000 
     75 O         -19.6142  -29.2503    1.8539 O.2       2 ALA2        0.0000 
     76 N         -25.0399  -26.7211    2.2595 N.2       2 ALA2        0.0000 
     77 N         -26.5850  -30.3760    4.3818 N.2       2 ALA2        0.0000 
     78 CZ        -27.1001  -31.5943    5.0892 C.ar      4 PHE5        0.0000 
     79 O         -25.4205  -27.3260    0.9406 O.2       2 ALA2        0.0000 
     80 N         -25.9355  -28.5443    1.6481 N.2       2 ALA2        0.0000 
     81 N         -26.4506  -29.7626    2.3555 N.2       2 ALA2        0.0000 
     82 DU        -26.9656  -30.9809    3.0630 H         6 CUB7        0.0000 
     83 CZ        -27.4806  -32.1992    3.7704 C.ar      4 PHE5        0.0000 
     84 O         -26.3161  -29.1492    0.3293 O.2       2 ALA2        0.0000 
     85 DU        -26.8311  -30.3675    1.0367 H         6 CUB7        0.0000 
     86 DU        -27.3462  -31.5858    1.7442 H         6 CUB7        0.0000 
     87 DU        -27.8612  -32.8041    2.4516 H         6 CUB7        0.0000 
     88 O         -26.6967  -29.7541   -0.9895 O.2       2 ALA2        0.0000 
     89 CZ        -26.5622  -29.1407   -3.0158 C.ar      4 PHE5        0.0000 
     90 DU        -27.0772  -30.3590   -2.3083 H         6 CUB7        0.0000 
     91 DU        -28.1073  -32.7956   -0.8935 H         6 CUB7        0.0000 
     92 CA        -26.9428  -29.7456   -4.3346 C.3       5 GLY6        0.0000 
     93 CA        -26.8083  -29.1322   -6.3608 C.3       5 GLY6        0.0000 
     94 NZ        -17.3935  -30.4980   -5.0390 N.2       3 LYS4        0.0000 
     95 N         -21.9465  -27.3808    3.3755 N.2       2 ALA2        0.0000 
     96 CA        -22.4615  -28.5991    4.0829 C.3       5 GLY6        0.0000 
     97 O         -22.9766  -29.8174    4.7903 O.2       2 ALA2        0.0000 
     98 CZ        -23.4916  -31.0357    5.4978 C.ar      4 PHE5        0.0000 
     99 CA        -21.8120  -26.7674    1.3492 C.3       5 GLY6        0.0000 
    100 DU        -22.3270  -27.9857    2.0567 H         6 CUB7        0.0000 
    101 DU        -22.8421  -29.2040    2.7641 H         6 CUB7        0.0000 
    102 DU        -23.3571  -30.4223    3.4715 H         6 CUB7        0.0000 
    103 N         -23.8722  -31.6406    4.1790 N.2       2 ALA2        0.0000 
    104 CZ        -22.1926  -27.3723    0.0304 C.ar      4 PHE5        0.0000 
    105 DU        -22.7076  -28.5906    0.7378 H         6 CUB7        0.0000 
    106 DU        -23.7377  -31.0272    2.1527 H         6 CUB7        0.0000 
    107 CZ        -24.2527  -32.2455    2.8602 C.ar      4 PHE5        0.0000 
    108 CZ        -23.0882  -29.1955   -0.5810 C.ar      4 PHE5        0.0000 
    109 DU        -23.6032  -30.4138    0.1265 H         6 CUB7        0.0000 
    110 DU        -24.1183  -31.6321    0.8339 H         6 CUB7        0.0000 
    111 CZ        -24.6333  -32.8504    1.5414 C.ar      4 PHE5        0.0000 
    112 CZ        -23.4688  -29.8004   -1.8998 C.ar      4 PHE5        0.0000 
    113 DU        -23.9838  -31.0187   -1.1923 H         6 CUB7        0.0000 
    114 DU        -24.4989  -32.2370   -0.4849 H         6 CUB7        0.0000 
    115 CZ        -25.0139  -33.4553    0.2226 C.ar      4 PHE5        0.0000 
    116 CZ        -23.3343  -29.1870   -3.9260 C.ar      4 PHE5        0.0000 
    117 CZ        -23.8493  -30.4053   -3.2186 C.ar      4 PHE5        0.0000 
    118 DU        -24.3644  -31.6236   -2.5111 H         6 CUB7        0.0000 
    119 CA        -24.8794  -32.8420   -1.8037 C.3       5 GLY6        0.0000 
    120 CA        -25.3945  -34.0603   -1.0963 C.3       5 GLY6        0.0000 
    121 NZ        -23.7149  -29.7920   -5.2448 N.2       3 LYS4        0.0000 
    122 DU        -24.2299  -31.0103   -4.5374 H         6 CUB7        0.0000 
    123 N         -24.7450  -32.2286   -3.8299 N.2       2 ALA2        0.0000 
    124 CA        -25.2600  -33.4469   -3.1225 C.3       5 GLY6        0.0000 
    125 N         -24.6105  -31.6152   -5.8562 N.2       2 ALA2        0.0000 
    126 CZ        -19.4797  -28.6370   -0.1724 C.ar      4 PHE5        0.0000 
    127 CA        -19.9948  -29.8553    0.5351 C.3       5 GLY6        0.0000 
    128 CZ        -19.8603  -29.2419   -1.4912 C.ar      4 PHE5        0.0000 
    129 NZ        -20.3753  -30.4602   -0.7838 N.2       3 LYS4        0.0000 
    130 CA        -20.8904  -31.6785   -0.0763 C.3       5 GLY6        0.0000 
    131 CA        -21.4054  -32.8968    0.6311 C.3       5 GLY6        0.0000 
    132 CZ        -19.7258  -28.6285   -3.5174 C.ar      4 PHE5        0.0000 
    133 NZ        -20.2409  -29.8468   -2.8100 N.2       3 LYS4        0.0000 
    134 NZ        -20.7559  -31.0651   -2.1026 N.2       3 LYS4        0.0000 
    135 NZ        -21.2710  -32.2834   -1.3951 N.2       3 LYS4        0.0000 
    136 OG        -19.5913  -28.0151   -5.5437 O.2       1 SER1        0.0000 
    137 DU        -20.1064  -29.2334   -4.8362 H         6 CUB7        0.0000 
    138 NZ        -20.6214  -30.4517   -4.1288 N.2       3 LYS4        0.0000 
    139 NZ        -21.1365  -31.6700   -3.4214 N.2       3 LYS4        0.0000 
    140 CA        -21.6515  -32.8883   -2.7139 C.3       5 GLY6        0.0000 
    141 NZ        -19.9719  -28.6200   -6.8625 N.2       3 LYS4        0.0000 
    142 O         -20.4870  -29.8383   -6.1551 O.2       2 ALA2        0.0000 
    143 CZ        -21.0020  -31.0566   -5.4476 C.ar      4 PHE5        0.0000 
    144 NZ        -18.8844  -30.4791   -2.9114 N.2       3 LYS4        0.0000 
    145 NZ        -18.2349  -28.6474   -5.6451 N.2       3 LYS4        0.0000 
    146 NZ        -18.7500  -29.8657   -4.9376 N.2       3 LYS4        0.0000 
    147 NZ        -19.2650  -31.0840   -4.2302 N.2       3 LYS4        0.0000 
    148 CZ        -18.6155  -29.2523   -6.9639 C.ar      4 PHE5        0.0000 
    149 O         -19.1305  -30.4706   -6.2564 O.2       2 ALA2        0.0000 
@<TRIPOS>BOND
@<TRIPOS>SUBSTRUCTURE
     1 SER1      136 GROUP   
     2 ALA2        5 GROUP   
     3 LYS4       28 GROUP   
     4 PHE5        2 GROUP   
     5 GLY6        1 GROUP   
     6 CUB7       10 GROUP   
@<TRIPOS>SET

