#    Name: 2j7c_IDE_2_INTS_M
#    Modification time : Tue Mar 25 19:25:46 2014

@<TRIPOS>MOLECULE
2j7c_IDE_2_INTS_M
   69     0     9     0     0
SMALL
NO_CHARGES


@<TRIPOS>ATOM
      1 O         -21.7475  -27.6795   -7.1515 O.2       1 ALC1        0.0000 
      2 O         -21.7770  -27.7340   -5.4850 O.2       7 ALL1        0.0000 
      3 O         -21.7180  -27.6250   -8.8180 O.2       4 ALP1        0.0000 
      4 O         -22.5225  -28.0105   -6.4500 O.2       1 ALC1        0.0000 
      5 O         -23.2680  -28.2870   -7.4150 O.2       4 ALP1        0.0000 
      6 CA        -19.6210  -25.9280   -4.2030 C.3       3 GLC5        0.0000 
      7 CA        -20.5120  -27.0810   -5.6360 C.3       9 GLL5        0.0000 
      8 CA        -18.7300  -24.7750   -2.7700 C.3       6 GLP5        0.0000 
      9 CA        -22.0330  -26.7845   -4.2430 C.3       3 GLC5        0.0000 
     10 CA        -23.5540  -26.4880   -2.8500 C.3       6 GLP5        0.0000 
     11 CA        -21.3835  -25.5905   -5.7720 C.3       3 GLC5        0.0000 
     12 CA        -22.2550  -24.1000   -5.9080 C.3       6 GLP5        0.0000 
     13 CA        -18.6615  -26.9850   -4.0985 C.3       3 GLC5        0.0000 
     14 CA        -19.3710  -28.0800   -5.5900 C.3       9 GLL5        0.0000 
     15 CA        -17.9520  -25.8900   -2.6070 C.3       6 GLP5        0.0000 
     16 CA        -18.0200  -28.0990   -7.5110 C.3       3 GLC5        0.0000 
     17 CA        -19.4420  -29.1500   -6.6820 C.3       9 GLL5        0.0000 
     18 CA        -16.5980  -27.0480   -8.3400 C.3       6 GLP5        0.0000 
     19 CA        -20.5900  -30.4390   -7.7355 C.3       3 GLC5        0.0000 
     20 CA        -21.7380  -31.7280   -8.7890 C.3       6 GLP5        0.0000 
     21 N         -19.4730  -29.1510   -9.4520 N.am      2 SEC2        0.0000 
     22 N         -19.5200  -28.5990   -8.0170 N.am      8 SEL2        0.0000 
     23 N         -19.4260  -29.7030  -10.8870 N.am      5 SEP2        0.0000 
     24 O         -20.6190  -28.1120   -8.4175 O.2       1 ALC1        0.0000 
     25 O         -19.5200  -28.5990   -8.0170 O.2       7 ALL1        0.0000 
     26 CA        -17.3440  -29.1180   -7.8285 C.3       3 GLC5        0.0000 
     27 CA        -18.2370  -30.0870   -6.4800 C.3       9 GLL5        0.0000 
     28 CA        -16.4510  -28.1490   -9.1770 C.3       6 GLP5        0.0000 
     29 N         -16.9675  -31.9575   -7.4855 N.am      2 SEC2        0.0000 
     30 N         -17.9820  -30.9440   -7.5940 N.am      8 SEL2        0.0000 
     31 N         -15.9530  -32.9710   -7.3770 N.am      5 SEP2        0.0000 
     32 N         -19.1825  -31.4660   -8.1910 N.am      2 SEC2        0.0000 
     33 N         -20.3830  -31.9880   -8.7880 N.am      5 SEP2        0.0000 
     34 O         -17.7835  -30.8375   -8.8510 O.2       1 ALC1        0.0000 
     35 O         -17.9820  -30.9440   -7.5940 O.2       7 ALL1        0.0000 
     36 O         -17.5850  -30.7310  -10.1080 O.2       4 ALP1        0.0000 
     37 CA        -19.2665  -32.5130   -5.3075 C.3       3 GLC5        0.0000 
     38 CA        -18.3290  -30.9090   -5.2030 C.3       9 GLL5        0.0000 
     39 CA        -20.2040  -34.1170   -5.4120 C.3       6 GLP5        0.0000 
     40 N         -16.4475  -32.7480   -4.6885 N.am      2 SEC2        0.0000 
     41 N         -17.0320  -31.3960   -4.8470 N.am      8 SEL2        0.0000 
     42 N         -15.8630  -34.1000   -4.5300 N.am      5 SEP2        0.0000 
     43 O         -16.5695  -30.0220   -4.3075 O.2       1 ALC1        0.0000 
     44 O         -17.0320  -31.3960   -4.8470 O.2       7 ALL1        0.0000 
     45 O         -16.1070  -28.6480   -3.7680 O.2       4 ALP1        0.0000 
     46 O         -15.8275  -30.7190   -4.7310 O.2       1 ALC1        0.0000 
     47 O         -14.6230  -30.0420   -4.6150 O.2       4 ALP1        0.0000 
     48 N         -18.8985  -31.7180   -2.4915 N.am      2 SEC2        0.0000 
     49 N         -19.1600  -30.4590   -2.8580 N.am      8 SEL2        0.0000 
     50 N         -18.6370  -32.9770   -2.1250 N.am      5 SEP2        0.0000 
     51 CA        -19.5620  -30.9950    0.6080 C.3       3 GLC5        0.0000 
     52 CA        -20.1940  -29.4470   -0.7670 C.3       9 GLL5        0.0000 
     53 CA        -18.9300  -32.5430    1.9830 C.3       6 GLP5        0.0000 
     54 CA        -19.4825  -27.8080   -0.5720 C.3       3 GLC5        0.0000 
     55 CA        -18.7710  -26.1690   -0.3770 C.3       6 GLP5        0.0000 
     56 CA        -22.0610  -33.3835    0.0120 C.3       3 GLC5        0.0000 
     57 CA        -22.7650  -31.6860    0.8300 C.3       9 GLL5        0.0000 
     58 CA        -21.3570  -35.0810   -0.8060 C.3       6 GLP5        0.0000 
     59 CA        -20.2860  -30.2090    4.4320 C.3       3 GLC5        0.0000 
     60 CA        -22.0390  -30.1630    3.0640 C.3       9 GLL5        0.0000 
     61 CA        -18.5330  -30.2550    5.8000 C.3       6 GLP5        0.0000 
     62 CA        -18.6298  -26.4102   -6.4255 C.3       3 GLC5        0.0000 
     63 CA        -17.3180  -25.2400   -7.2380 C.3       6 GLP5        0.0000 
     64 CA        -20.6112  -31.8558    1.3678 C.3       3 GLC5        0.0000 
     65 CA        -21.8200  -30.6510    0.6750 C.3       9 GLL5        0.0000 
     66 CA        -21.0445  -32.0580    2.3165 C.3       3 GLC5        0.0000 
     67 CA        -23.3410  -31.9520    2.0900 C.3       9 GLL5        0.0000 
     68 CA        -20.3415  -31.2853    2.2103 C.3       3 GLC5        0.0000 
     69 CA        -21.4670  -29.8920    1.8110 C.3       9 GLL5        0.0000 
@<TRIPOS>BOND
@<TRIPOS>SUBSTRUCTURE
     1 ALC1        1 GROUP        1 X    ALC  0     ROOT ALC X 1
     2 SEC2       21 GROUP        1 X    SEC  0     **** SEC X 2
     3 GLC5        6 GROUP        1 X    GLC  0     **** GLC X 6
     4 ALP1        3 GROUP        1 Y    ALP  0     ROOT ALP Y 8
     5 SEP2       23 GROUP        1 Y    SEP  0     **** SEP Y 9
     6 GLP5        8 GROUP        1 Y    GLP  0     **** GLP Y 13
     7 ALL1        2 GROUP        1 Z    ALL  0     ROOT ALL Z 15
     8 SEL2       22 GROUP        1 Z    SEL  0     **** SEL Z 16
     9 GLL5        7 GROUP        1 Z    GLL  0     **** GLL Z 20
@<TRIPOS>SET

