#    Name: 2j7c_IDE_2_ligand
#    Modification time : Tue Mar 25 19:25:46 2014

@<TRIPOS>MOLECULE
2j7c_IDE_2_ligand
   41    43     1     0     0
SMALL
NO_CHARGES


@<TRIPOS>ATOM
      1 O6B       -21.7770  -27.7340   -5.4850 O.3       1 IDE1446     0.0000 
      2 C6B       -20.5120  -27.0810   -5.6360 C.3       1 IDE1446     0.0000 
      3 C5B       -19.3710  -28.0800   -5.5900 C.3       1 IDE1446     0.0000 
      4 C4B       -19.4420  -29.1500   -6.6820 C.3       1 IDE1446     0.0000 
      5 O4B       -19.5200  -28.5990   -8.0170 O.3       1 IDE1446     0.0000 
      6 C3B       -18.2370  -30.0870   -6.4800 C.3       1 IDE1446     0.0000 
      7 O3B       -17.9820  -30.9440   -7.5940 O.3       1 IDE1446     0.0000 
      8 C2B       -18.3290  -30.9090   -5.2030 C.3       1 IDE1446     0.0000 
      9 O2B       -17.0320  -31.3960   -4.8470 O.3       1 IDE1446     0.0000 
     10 N1B       -19.4150  -28.8300   -4.3010 N.pl3     1 IDE1446     0.0000 
     11 C8B       -19.9310  -28.4290   -3.1300 C.2       1 IDE1446     0.0000 
     12 C7B       -19.7750  -29.4560   -2.2170 C.2       1 IDE1446     0.0000 
     13 N2B       -19.1600  -30.4590   -2.8580 N.2       1 IDE1446     0.0000 
     14 C1B       -18.9430  -30.0800   -4.1330 C.2       1 IDE1446     0.0000 
     15 C7        -20.1940  -29.4470   -0.7670 C.3       1 IDE1446     0.0000 
     16 N1        -21.2700  -30.4100   -0.5600 N.pl3     1 IDE1446     0.0000 
     17 C1        -21.8200  -30.6510    0.6750 C.ar      1 IDE1446     0.0000 
     18 C6        -22.7650  -31.6860    0.8300 C.ar      1 IDE1446     0.0000 
     19 C5        -23.3410  -31.9520    2.0900 C.ar      1 IDE1446     0.0000 
     20 C4        -22.9770  -31.1940    3.2100 C.ar      1 IDE1446     0.0000 
     21 C3        -22.0390  -30.1630    3.0640 C.ar      1 IDE1446     0.0000 
     22 C2        -21.4670  -29.8920    1.8110 C.ar      1 IDE1446     0.0000 
     23 H         -20.3455  -26.3388   -4.8378 H         1 IDE1446     0.0000 
     24 H         -20.4511  -26.5404   -6.5951 H         1 IDE1446     0.0000 
     25 H         -18.4298  -27.5753   -5.6634 H         1 IDE1446     0.0000 
     26 H         -20.3396  -29.7572   -6.4613 H         1 IDE1446     0.0000 
     27 H         -17.3433  -29.4138   -6.3401 H         1 IDE1446     0.0000 
     28 H         -19.0031  -31.7470   -5.4193 H         1 IDE1446     0.0000 
     29 H         -20.3411  -27.5842   -2.9351 H         1 IDE1446     0.0000 
     30 H         -20.5215  -28.4372   -0.5027 H         1 IDE1446     0.0000 
     31 H         -19.3262  -29.6968   -0.1495 H         1 IDE1446     0.0000 
     32 H         -21.6089  -30.9153   -1.4025 H         1 IDE1446     0.0000 
     33 H         -23.0368  -32.2519    0.0179 H         1 IDE1446     0.0000 
     34 H         -24.0305  -32.7064    2.1818 H         1 IDE1446     0.0000 
     35 H         -23.3896  -31.3897    4.1216 H         1 IDE1446     0.0000 
     36 H         -21.7671  -29.6003    3.8801 H         1 IDE1446     0.0000 
     37 H         -20.7814  -29.1310    1.7165 H         1 IDE1446     0.0000 
     38 H         -21.8979  -28.2614   -6.3260 H         1 IDE1446     0.0000 
     39 H         -20.1982  -27.8666   -7.9554 H         1 IDE1446     0.0000 
     40 H         -17.6981  -30.3316   -8.3318 H         1 IDE1446     0.0000 
     41 H         -16.5957  -30.6387   -4.3610 H         1 IDE1446     0.0000 
@<TRIPOS>BOND
     1    2    1 1    
     2   38    1 1    
     3    3    2 1    
     4   23    2 1    
     5   24    2 1    
     6    4    3 1    
     7   10    3 1    
     8   25    3 1    
     9    5    4 1    
    10    6    4 1    
    11   26    4 1    
    12   39    5 1    
    13    7    6 1    
    14    8    6 1    
    15   27    6 1    
    16   40    7 1    
    17    9    8 1    
    18   14    8 1    
    19   28    8 1    
    20   41    9 1    
    21   11   10 1    
    22   14   10 1    
    23   12   11 2    
    24   29   11 1    
    25   13   12 1    
    26   15   12 1    
    27   14   13 2    
    28   16   15 1    
    29   30   15 1    
    30   31   15 1    
    31   17   16 1    
    32   32   16 1    
    33   18   17 ar   
    34   22   17 ar   
    35   19   18 ar   
    36   33   18 1    
    37   20   19 ar   
    38   34   19 1    
    39   21   20 ar   
    40   35   20 1    
    41   22   21 ar   
    42   36   21 1    
    43   37   22 1    
@<TRIPOS>SUBSTRUCTURE
     1 IDE1446     1 GROUP   
@<TRIPOS>SET

