#    Name: 3iph_G11_1_INTS_M
#    Modification time : Tue Mar 25 17:02:34 2014

@<TRIPOS>MOLECULE
3iph_G11_1_INTS_M
   81     0     9     0     0
SMALL
NO_CHARGES


@<TRIPOS>ATOM
      1 CA         40.3105   32.0530   35.1065 C.3       3 GLC5        0.0000 
      2 CA         40.6020   30.3750   33.6560 C.3       9 GLL5        0.0000 
      3 CA         40.0190   33.7310   36.5570 C.3       6 GLP5        0.0000 
      4 CA         40.3025   34.1930   33.3135 C.3       3 GLC5        0.0000 
      5 CA         42.0800   33.1910   33.2620 C.3       9 GLL5        0.0000 
      6 CA         38.5250   35.1950   33.3650 C.3       6 GLP5        0.0000 
      7 CA         37.8025   30.0490   35.1235 C.3       3 GLC5        0.0000 
      8 CA         39.5000   29.5370   33.8490 C.3       9 GLL5        0.0000 
      9 CA         36.1050   30.5610   36.3980 C.3       6 GLP5        0.0000 
     10 CA         36.7070   30.6225   30.8970 C.3       3 GLC5        0.0000 
     11 CA         38.6310   30.4630   31.7760 C.3       9 GLL5        0.0000 
     12 CA         34.7830   30.7820   30.0180 C.3       6 GLP5        0.0000 
     13 CA         41.2475   32.1150   28.8420 C.3       3 GLC5        0.0000 
     14 CA         39.8330   32.2060   30.3860 C.3       9 GLL5        0.0000 
     15 CA         42.6620   32.0240   27.2980 C.3       6 GLP5        0.0000 
     16 CA         40.8730   33.6965   29.9450 C.3       3 GLC5        0.0000 
     17 CA         41.9130   35.1870   29.5040 C.3       6 GLP5        0.0000 
     18 CA         39.1695   30.9165   29.1510 C.3       3 GLC5        0.0000 
     19 CA         38.5060   29.6270   27.9160 C.3       6 GLP5        0.0000 
     20 CA         38.7035   33.1045   31.9310 C.3       3 GLC5        0.0000 
     21 CA         37.5740   34.0030   33.4760 C.3       6 GLP5        0.0000 
     22 CA         43.7830   35.3605   34.5255 C.3       3 GLC5        0.0000 
     23 CA         43.2380   33.9530   33.2410 C.3       9 GLL5        0.0000 
     24 CA         44.3280   36.7680   35.8100 C.3       6 GLP5        0.0000 
     25 O          37.9410   27.1325   34.0380 O.2       1 ALC1        0.0000 
     26 O          38.6130   27.6400   35.1970 O.2       7 ALL1        0.0000 
     27 O          37.2690   26.6250   32.8790 O.2       4 ALP1        0.0000 
     28 N          41.1470   28.2050   36.8885 N.am      2 SEC2        0.0000 
     29 N          40.3210   28.9230   35.9890 N.am      8 SEL2        0.0000 
     30 N          41.9730   27.4870   37.7880 N.am      5 SEP2        0.0000 
     31 CA         38.7490   24.8915   35.7175 C.3       3 GLC5        0.0000 
     32 CA         38.6000   26.7110   36.2870 C.3       9 GLL5        0.0000 
     33 CA         38.8980   23.0720   35.1480 C.3       6 GLP5        0.0000 
     34 N          45.8060   36.7930   33.1140 N.am      2 SEC2        0.0000 
     35 N          45.6990   35.3800   33.0970 N.am      8 SEL2        0.0000 
     36 N          45.9130   38.2060   33.1310 N.am      5 SEP2        0.0000 
     37 CA         37.1915   29.0200   36.9590 C.3       3 GLC5        0.0000 
     38 CA         38.2780   27.4790   37.5200 C.3       9 GLL5        0.0000 
     39 CA         38.9250   29.5465   37.6895 C.3       3 GLC5        0.0000 
     40 CA         39.5720   31.6140   37.8590 C.3       6 GLP5        0.0000 
     41 CA         35.4205   26.5095   38.0440 C.3       3 GLC5        0.0000 
     42 CA         37.2120   26.6860   36.8160 C.3       9 GLL5        0.0000 
     43 CA         33.6290   26.3330   39.2720 C.3       6 GLP5        0.0000 
     44 CA         36.0600   28.2515   36.2625 C.3       3 GLC5        0.0000 
     45 CA         34.9080   29.8170   35.7090 C.3       6 GLP5        0.0000 
     46 CA         36.9500   24.6125   36.4675 C.3       3 GLC5        0.0000 
     47 CA         36.6880   22.5390   36.1190 C.3       6 GLP5        0.0000 
     48 CA         46.4470   35.7485   30.2265 C.3       3 GLC5        0.0000 
     49 CA         47.7350   34.5760   31.2270 C.3       9 GLL5        0.0000 
     50 CA         45.1590   36.9210   29.2260 C.3       6 GLP5        0.0000 
     51 CA         48.0005   34.3425   35.0565 C.3       3 GLC5        0.0000 
     52 CA         49.0220   33.9820   33.2770 C.3       9 GLL5        0.0000 
     53 CA         46.9790   34.7030   36.8360 C.3       6 GLP5        0.0000 
     54 CA         39.3195   29.1365   30.8942 C.3       3 GLC5        0.0000 
     55 CA         39.7390   31.2890   31.6010 C.3       9 GLL5        0.0000 
     56 CA         39.4540   27.3970   30.1000 C.3       6 GLP5        0.0000 
     57 CA         41.7360   34.2895   34.8487 C.3       3 GLC5        0.0000 
     58 CA         40.8130   35.0070   36.4460 C.3       6 GLP5        0.0000 
     59 CA         39.2288   28.4823   31.7310 C.3       3 GLC5        0.0000 
     60 CA         36.8335   29.8837   33.2657 C.3       3 GLC5        0.0000 
     61 CA         38.5070   29.5980   32.8750 C.3       9 GLL5        0.0000 
     62 CA         35.0980   29.7370   34.2060 C.3       6 GLP5        0.0000 
     63 CA         38.5045   32.4314   32.7024 C.3       3 GLC5        0.0000 
     64 CA         44.6913   31.9350   33.8098 C.3       3 GLC5        0.0000 
     65 CA         44.3150   33.5330   32.4730 C.3       9 GLL5        0.0000 
     66 CA         45.1510   30.9250   35.5150 C.3       6 GLP5        0.0000 
     67 CA         43.0495   32.7758   34.8941 C.3       3 GLC5        0.0000 
     68 CA         43.4670   32.2680   36.7240 C.3       6 GLP5        0.0000 
     69 CA         36.5970   26.2867   35.2152 C.3       3 GLC5        0.0000 
     70 CA         35.2880   25.8750   33.8790 C.3       6 GLP5        0.0000 
     71 CA         40.1725   26.5665   37.2357 C.3       3 GLC5        0.0000 
     72 CA         41.9060   26.0380   37.5680 C.3       6 GLP5        0.0000 
     73 CA         37.5445   27.5998   39.0745 C.3       3 GLC5        0.0000 
     74 CA         37.3440   28.1170   40.9810 C.3       6 GLP5        0.0000 
     75 CA         50.9510   35.3422   33.4180 C.3       3 GLC5        0.0000 
     76 CA         52.3650   36.5120   34.0600 C.3       6 GLP5        0.0000 
     77 CA         50.6050   33.0953   34.2025 C.3       3 GLC5        0.0000 
     78 CA         50.0520   34.3630   32.2750 C.3       9 GLL5        0.0000 
     79 CA         51.6730   32.0180   35.6290 C.3       6 GLP5        0.0000 
     80 CA         42.6724   34.1506   31.0442 C.3       3 GLC5        0.0000 
     81 CA         44.1480   32.3570   31.7360 C.3       9 GLL5        0.0000 
@<TRIPOS>BOND
@<TRIPOS>SUBSTRUCTURE
     1 ALC1       25 GROUP        1 X    ALC  0     ROOT ALC X 1
     2 SEC2       28 GROUP        1 X    SEC  0     **** SEC X 2
     3 GLC5        1 GROUP        1 X    GLC  0     **** GLC X 6
     4 ALP1       27 GROUP        1 Y    ALP  0     ROOT ALP Y 8
     5 SEP2       30 GROUP        1 Y    SEP  0     **** SEP Y 9
     6 GLP5        3 GROUP        1 Y    GLP  0     **** GLP Y 13
     7 ALL1       26 GROUP        1 Z    ALL  0     ROOT ALL Z 15
     8 SEL2       29 GROUP        1 Z    SEL  0     **** SEL Z 16
     9 GLL5        2 GROUP        1 Z    GLL  0     **** GLL Z 20
@<TRIPOS>SET

