#    Name: 3iph_G11_1_ligand
#    Modification time : Tue Mar 25 17:02:35 2014

@<TRIPOS>MOLECULE
3iph_G11_1_ligand
   49    52     1     0     0
SMALL
NO_CHARGES


@<TRIPOS>ATOM
      1 C1         40.7390   31.2240   32.5620 C.ar      1 G11361      0.0000 
      2 C2         41.9720   32.0370   32.5130 C.ar      1 G11361      0.0000 
      3 C3         40.6020   30.3750   33.6560 C.ar      1 G11361      0.0000 
      4 C4         39.7390   31.2890   31.6010 C.ar      1 G11361      0.0000 
      5 C5         42.0800   33.1910   33.2620 C.ar      1 G11361      0.0000 
      6 N6         43.0270   31.6210   31.7650 N.ar      1 G11361      0.0000 
      7 C7         39.5000   29.5370   33.8490 C.ar      1 G11361      0.0000 
      8 C8         38.6310   30.4630   31.7760 C.ar      1 G11361      0.0000 
      9 C9         39.8330   32.2060   30.3860 C.3       1 G11361      0.0000 
     10 C10        44.1480   32.3570   31.7360 C.ar      1 G11361      0.0000 
     11 C11        43.2380   33.9530   33.2410 C.ar      1 G11361      0.0000 
     12 C12        39.5090   28.6770   35.0810 C.2       1 G11361      0.0000 
     13 C13        38.5070   29.5980   32.8750 C.ar      1 G11361      0.0000 
     14 C14        44.3150   33.5330   32.4730 C.ar      1 G11361      0.0000 
     15 N15        38.6130   27.6400   35.1970 N.am      1 G11361      0.0000 
     16 O16        40.3210   28.9230   35.9890 O.2       1 G11361      0.0000 
     17 C17        45.5420   34.3580   32.4330 C.2       1 G11361      0.0000 
     18 C18        38.6000   26.7110   36.2870 C.3       1 G11361      0.0000 
     19 N19        46.4540   33.9380   31.5100 N.am      1 G11361      0.0000 
     20 O20        45.6990   35.3800   33.0970 O.2       1 G11361      0.0000 
     21 C21        38.2780   27.4790   37.5200 C.3       1 G11361      0.0000 
     22 C22        37.2120   26.6860   36.8160 C.3       1 G11361      0.0000 
     23 C23        47.7350   34.5760   31.2270 C.3       1 G11361      0.0000 
     24 C24        48.8060   33.6970   31.8430 C.3       1 G11361      0.0000 
     25 C25        49.0220   33.9820   33.2770 C.3       1 G11361      0.0000 
     26 C26        50.0520   34.3630   32.2750 C.3       1 G11361      0.0000 
     27 H          41.3670   30.3612   34.3776 H         1 G11361      0.0000 
     28 H          41.2819   33.4962   33.8523 H         1 G11361      0.0000 
     29 H          37.8656   30.4844   31.0697 H         1 G11361      0.0000 
     30 H          44.9616   32.0512   31.1310 H         1 G11361      0.0000 
     31 H          43.2988   34.8182   33.7871 H         1 G11361      0.0000 
     32 H          37.6687   29.0031   32.9570 H         1 G11361      0.0000 
     33 H          37.8833   27.5012   34.4510 H         1 G11361      0.0000 
     34 H          39.0372   25.9672   36.4608 H         1 G11361      0.0000 
     35 H          46.2473   33.0731   30.9268 H         1 G11361      0.0000 
     36 H          38.1662   28.3945   37.2881 H         1 G11361      0.0000 
     37 H          38.5678   26.9785   38.2749 H         1 G11361      0.0000 
     38 H          37.0819   25.8749   37.2961 H         1 G11361      0.0000 
     39 H          36.6803   27.2908   36.3093 H         1 G11361      0.0000 
     40 H          47.7894   35.5582   31.6758 H         1 G11361      0.0000 
     41 H          47.9100   34.6445   30.1623 H         1 G11361      0.0000 
     42 H          48.9599   32.7897   31.6799 H         1 G11361      0.0000 
     43 H          49.3031   33.1812   33.7130 H         1 G11361      0.0000 
     44 H          48.5266   34.7617   33.5159 H         1 G11361      0.0000 
     45 H          49.9787   35.2990   32.1039 H         1 G11361      0.0000 
     46 H          50.7552   33.7184   32.3011 H         1 G11361      0.0000 
     47 H          39.9115   33.1670   30.6512 H         1 G11361      0.0000 
     48 H          40.6292   31.9922   29.8200 H         1 G11361      0.0000 
     49 H          39.0270   32.1287   29.7992 H         1 G11361      0.0000 
@<TRIPOS>BOND
     1    2    1 1    
     2    3    1 ar   
     3    4    1 ar   
     4    5    2 ar   
     5    6    2 ar   
     6    7    3 ar   
     7   27    3 1    
     8    8    4 ar   
     9    9    4 1    
    10   11    5 ar   
    11   28    5 1    
    12   10    6 ar   
    13   12    7 1    
    14   13    7 ar   
    15   13    8 ar   
    16   29    8 1    
    17   47    9 1    
    18   48    9 1    
    19   49    9 1    
    20   14   10 ar   
    21   30   10 1    
    22   14   11 ar   
    23   31   11 1    
    24   15   12 am   
    25   16   12 2    
    26   32   13 1    
    27   17   14 1    
    28   18   15 1    
    29   33   15 1    
    30   19   17 am   
    31   20   17 2    
    32   21   18 1    
    33   22   18 1    
    34   34   18 1    
    35   23   19 1    
    36   35   19 1    
    37   22   21 1    
    38   36   21 1    
    39   37   21 1    
    40   38   22 1    
    41   39   22 1    
    42   24   23 1    
    43   40   23 1    
    44   41   23 1    
    45   25   24 1    
    46   26   24 1    
    47   42   24 1    
    48   26   25 1    
    49   43   25 1    
    50   44   25 1    
    51   45   26 1    
    52   46   26 1    
@<TRIPOS>SUBSTRUCTURE
     1 G11361      1 GROUP   
@<TRIPOS>SET

