#    Name: 4fkz_UD1_2_INTS_M
#    Modification time : Mon Mar 24 20:15:19 2014

@<TRIPOS>MOLECULE
4fkz_UD1_2_INTS_M
   92     0     9     0     0
SMALL
NO_CHARGES


@<TRIPOS>ATOM
      1 CA         27.3595   13.7455   18.2285 C.3       3 GLC5        0.0000 
      2 CA         25.2660   13.2020   18.7310 C.3       9 GLL5        0.0000 
      3 CA         29.4530   14.2890   17.7260 C.3       6 GLP5        0.0000 
      4 CA         26.1470   14.1695   15.7085 C.3       3 GLC5        0.0000 
      5 CA         24.7760   13.6740   17.3590 C.3       9 GLL5        0.0000 
      6 CA         27.5180   14.6650   14.0580 C.3       6 GLP5        0.0000 
      7 CA         28.1600    9.6715   17.0015 C.3       3 GLC5        0.0000 
      8 CA         26.7210    9.8840   17.8330 C.3       9 GLL5        0.0000 
      9 CA         29.5990    9.4590   16.1700 C.3       6 GLP5        0.0000 
     10 CA         21.6450   18.0225   18.1900 C.3       3 GLC5        0.0000 
     11 CA         22.6750   16.7940   17.2000 C.3       9 GLL5        0.0000 
     12 CA         20.6150   19.2510   19.1800 C.3       6 GLP5        0.0000 
     13 CA         23.7350   18.5415   16.8805 C.3       3 GLC5        0.0000 
     14 CA         24.7950   20.2890   16.5610 C.3       6 GLP5        0.0000 
     15 CA         21.2250   17.4710   16.4325 C.3       3 GLC5        0.0000 
     16 CA         19.7750   18.1480   15.6650 C.3       6 GLP5        0.0000 
     17 O          22.6110   13.1040   15.2910 O.2       1 ALC1        0.0000 
     18 O          23.8920   12.9400   15.2230 O.2       7 ALL1        0.0000 
     19 O          21.3300   13.2680   15.3590 O.2       4 ALP1        0.0000 
     20 N          23.0845   10.2205   15.7085 N.am      2 SEC2        0.0000 
     21 N          24.5000   10.2090   15.9280 N.am      8 SEL2        0.0000 
     22 N          21.6690   10.2320   15.4890 N.am      5 SEP2        0.0000 
     23 O          25.0185    9.6915   14.8775 O.2       1 ALC1        0.0000 
     24 O          24.5000   10.2090   15.9280 O.2       7 ALL1        0.0000 
     25 O          25.5370    9.1740   13.8270 O.2       4 ALP1        0.0000 
     26 N          26.1645    9.0110   20.3715 N.am      2 SEC2        0.0000 
     27 N          26.7420    9.0670   19.0120 N.am      8 SEL2        0.0000 
     28 N          25.5870    8.9550   21.7310 N.am      5 SEP2        0.0000 
     29 O          26.9885    7.8880   18.2785 O.2       1 ALC1        0.0000 
     30 O          26.7420    9.0670   19.0120 O.2       7 ALL1        0.0000 
     31 O          27.2350    6.7090   17.5450 O.2       4 ALP1        0.0000 
     32 N          25.9110   16.4935   17.8450 N.am      2 SEC2        0.0000 
     33 N          24.9750   16.4070   16.7570 N.am      8 SEL2        0.0000 
     34 N          26.8470   16.5800   18.9330 N.am      5 SEP2        0.0000 
     35 N          25.2290   17.4755   15.8530 N.am      2 SEC2        0.0000 
     36 N          25.4830   18.5440   14.9490 N.am      5 SEP2        0.0000 
     37 O          31.6300   11.7100   27.3790 O.2       1 ALC1        0.0000 
     38 O          30.4150   11.6610   26.7030 O.2       7 ALL1        0.0000 
     39 O          32.8450   11.7590   28.0550 O.2       4 ALP1        0.0000 
     40 N          32.4990   12.5845   24.5815 N.am      2 SEC2        0.0000 
     41 N          31.6750   11.2740   24.8700 N.am      8 SEL2        0.0000 
     42 N          33.3230   13.8950   24.2930 N.am      5 SEP2        0.0000 
     43 N          32.7575   10.4200   24.4370 N.am      2 SEC2        0.0000 
     44 N          33.8400    9.5660   24.0040 N.am      5 SEP2        0.0000 
     45 CA         27.6465   10.5025   27.1130 C.3       3 GLC5        0.0000 
     46 CA         26.8080   12.5660   27.0460 C.3       9 GLL5        0.0000 
     47 CA         28.4850    8.4390   27.1800 C.3       6 GLP5        0.0000 
     48 CA         25.3810   11.2465   27.0360 C.3       3 GLC5        0.0000 
     49 CA         23.9540    9.9270   27.0260 C.3       6 GLP5        0.0000 
     50 CA         26.8035   15.5925   28.9165 C.3       3 GLC5        0.0000 
     51 CA         26.8500   14.0200   27.5150 C.3       9 GLL5        0.0000 
     52 CA         26.7570   17.1650   30.3180 C.3       6 GLP5        0.0000 
     53 N          25.2925   15.4250   29.0745 N.am      2 SEC2        0.0000 
     54 N          26.0510   14.1590   28.7040 N.am      8 SEL2        0.0000 
     55 N          24.5340   16.6910   29.4450 N.am      5 SEP2        0.0000 
     56 CA         25.8265   16.8145   25.5990 C.3       3 GLC5        0.0000 
     57 CA         26.1960   14.7510   26.3510 C.3       9 GLL5        0.0000 
     58 CA         25.4570   18.8780   24.8470 C.3       6 GLP5        0.0000 
     59 CA         24.5390   11.8425   26.4780 C.3       3 GLC5        0.0000 
     60 CA         25.1240   13.7580   25.9300 C.3       9 GLL5        0.0000 
     61 CA         24.4735   12.6410   27.7250 C.3       3 GLC5        0.0000 
     62 CA         23.8230   11.5240   29.5200 C.3       6 GLP5        0.0000 
     63 N          24.7770   17.2610   27.0665 N.am      2 SEC2        0.0000 
     64 N          25.6710   16.0320   26.7150 N.am      8 SEL2        0.0000 
     65 N          23.8830   18.4900   27.4180 N.am      5 SEP2        0.0000 
     66 O          26.4555   17.0950   27.2870 O.2       1 ALC1        0.0000 
     67 O          25.6710   16.0320   26.7150 O.2       7 ALL1        0.0000 
     68 O          27.2400   18.1580   27.8590 O.2       4 ALP1        0.0000 
     69 CA         23.8070   11.9610   25.1665 C.3       3 GLC5        0.0000 
     70 CA         24.6340   13.8800   24.4840 C.3       9 GLL5        0.0000 
     71 CA         22.9800   10.0420   25.8490 C.3       6 GLP5        0.0000 
     72 N          26.0095   17.0020   23.1465 N.am      2 SEC2        0.0000 
     73 N          24.8030   16.2650   22.6460 N.am      8 SEL2        0.0000 
     74 N          27.2160   17.7390   23.6470 N.am      5 SEP2        0.0000 
     75 N          26.7350   15.7260   20.1485 N.am      2 SEC2        0.0000 
     76 N          26.6230   14.8720   21.3640 N.am      8 SEL2        0.0000 
     77 N          26.8830   12.0735   21.1170 N.am      2 SEC2        0.0000 
     78 N          25.5020   11.9050   21.3800 N.am      8 SEL2        0.0000 
     79 N          28.2640   12.2420   20.8540 N.am      5 SEP2        0.0000 
     80 CA         27.0737   10.4910   16.0990 C.3       3 GLC5        0.0000 
     81 CA         25.6190   10.9390   17.9320 C.3       9 GLL5        0.0000 
     82 CA         28.7610    9.8470   14.9730 C.3       6 GLP5        0.0000 
     83 CA         29.0025   12.5092   23.1165 C.3       3 GLC5        0.0000 
     84 CA         29.4690   11.7960   24.5290 C.3       9 GLL5        0.0000 
     85 CA         29.1550   13.0610   21.4300 C.3       6 GLP5        0.0000 
     86 CA         29.1420   10.0653   24.1005 C.3       3 GLC5        0.0000 
     87 CA         29.4340    8.1730   23.3980 C.3       6 GLP5        0.0000 
     88 CA         29.7015   13.4642   25.5620 C.3       3 GLC5        0.0000 
     89 CA         30.5530   14.9710   26.3210 C.3       6 GLP5        0.0000 
     90 CA         28.6675   10.1982   25.9915 C.3       3 GLC5        0.0000 
     91 CA         25.3260   12.4085   28.4002 C.3       3 GLC5        0.0000 
     92 CA         28.5380   14.6783   26.6270 C.3       3 GLC5        0.0000 
@<TRIPOS>BOND
@<TRIPOS>SUBSTRUCTURE
     1 ALC1       17 GROUP        1 X    ALC  0     ROOT ALC X 1
     2 SEC2       20 GROUP        1 X    SEC  0     **** SEC X 2
     3 GLC5        1 GROUP        1 X    GLC  0     **** GLC X 6
     4 ALP1       19 GROUP        1 Y    ALP  0     ROOT ALP Y 8
     5 SEP2       22 GROUP        1 Y    SEP  0     **** SEP Y 9
     6 GLP5        3 GROUP        1 Y    GLP  0     **** GLP Y 13
     7 ALL1       18 GROUP        1 Z    ALL  0     ROOT ALL Z 15
     8 SEL2       21 GROUP        1 Z    SEL  0     **** SEL Z 16
     9 GLL5        2 GROUP        1 Z    GLL  0     **** GLL Z 20
@<TRIPOS>SET

