#    Name: 4fkz_UD1_2_ligand
#    Modification time : Mon Mar 24 20:15:19 2014

@<TRIPOS>MOLECULE
4fkz_UD1_2_ligand
   64    66     1     0     0
SMALL
NO_CHARGES


@<TRIPOS>ATOM
      1 C1'        25.2660   13.2020   18.7310 C.3       1 UD1401      0.0000 
      2 C2'        24.7760   13.6740   17.3590 C.3       1 UD1401      0.0000 
      3 C3'        24.1830   12.5130   16.5760 C.3       1 UD1401      0.0000 
      4 C4'        25.1540   11.3310   16.5180 C.3       1 UD1401      0.0000 
      5 C5'        25.6190   10.9390   17.9320 C.3       1 UD1401      0.0000 
      6 C6'        26.7210    9.8840   17.8330 C.3       1 UD1401      0.0000 
      7 C7'        23.9110   15.9440   17.1360 C.2       1 UD1401      0.0000 
      8 C8'        22.6750   16.7940   17.2000 C.3       1 UD1401      0.0000 
      9 N2'        23.7360   14.6810   17.5340 N.am      1 UD1401      0.0000 
     10 O1'        24.1240   12.7940   19.4640 O.3       1 UD1401      0.0000 
     11 O3'        23.8920   12.9400   15.2230 O.3       1 UD1401      0.0000 
     12 O4'        24.5000   10.2090   15.9280 O.3       1 UD1401      0.0000 
     13 O5'        26.1690   12.0910   18.5560 O.3       1 UD1401      0.0000 
     14 O6'        26.7420    9.0670   19.0120 O.3       1 UD1401      0.0000 
     15 O7'        24.9750   16.4070   16.7570 O.2       1 UD1401      0.0000 
     16 N1         28.0990   12.2130   26.4250 N.am      1 UD1401      0.0000 
     17 C2         29.2200   11.9550   27.2440 C.2       1 UD1401      0.0000 
     18 N3         30.4150   11.6610   26.7030 N.am      1 UD1401      0.0000 
     19 C4         30.5610   11.5670   25.3590 C.2       1 UD1401      0.0000 
     20 C5         29.4690   11.7960   24.5290 C.2       1 UD1401      0.0000 
     21 C6         28.2310   12.1190   25.0770 C.2       1 UD1401      0.0000 
     22 O2         29.1070   12.0580   28.4960 O.2       1 UD1401      0.0000 
     23 O4         31.6750   11.2740   24.8700 O.2       1 UD1401      0.0000 
     24 C1B        26.8080   12.5660   27.0460 C.3       1 UD1401      0.0000 
     25 C2B        26.8500   14.0200   27.5150 C.3       1 UD1401      0.0000 
     26 O2'        26.0510   14.1590   28.7040 O.3       1 UD1401      0.0000 
     27 C3B        26.1960   14.7510   26.3510 C.3       1 UD1401      0.0000 
     28 C4B        25.1240   13.7580   25.9300 C.3       1 UD1401      0.0000 
     29 O4B        25.7440   12.4700   26.1070 O.3       1 UD1401      0.0000 
     30 O3B        25.6710   16.0320   26.7150 O.3       1 UD1401      0.0000 
     31 C5B        24.6340   13.8800   24.4840 C.3       1 UD1401      0.0000 
     32 O5B        25.7190   14.1080   23.5950 O.3       1 UD1401      0.0000 
     33 PA         25.3940   14.9410   22.2340 P.3       1 UD1401      0.0000 
     34 O1A        24.8030   16.2650   22.6460 O.co2     1 UD1401      0.0000 
     35 O2A        26.6230   14.8720   21.3640 O.co2     1 UD1401      0.0000 
     36 O3A        24.1920   14.0800   21.6270 O.3       1 UD1401      0.0000 
     37 PB         24.1960   12.5750   21.0660 P.3       1 UD1401      0.0000 
     38 O1B        25.5020   11.9050   21.3800 O.co2     1 UD1401      0.0000 
     39 O2B        22.8950   11.9560   21.4240 O.co2     1 UD1401      0.0000 
     40 H          25.7570   14.0299   19.1994 H         1 UD1401      0.0000 
     41 H          25.6029   14.0753   16.8131 H         1 UD1401      0.0000 
     42 H          23.2822   12.1858   17.0688 H         1 UD1401      0.0000 
     43 H          26.0177   11.6241   15.9514 H         1 UD1401      0.0000 
     44 H          24.7991   10.5393   18.4666 H         1 UD1401      0.0000 
     45 H          27.6751   10.4086   17.6887 H         1 UD1401      0.0000 
     46 H          26.5324    9.2860   16.9312 H         1 UD1401      0.0000 
     47 H          22.8579   14.3564   17.9841 H         1 UD1401      0.0000 
     48 H          31.2438   11.5023   27.3218 H         1 UD1401      0.0000 
     49 H          29.5758   11.7267   23.5081 H         1 UD1401      0.0000 
     50 H          27.4292   12.2829   24.4505 H         1 UD1401      0.0000 
     51 H          26.6272   11.9538   27.9068 H         1 UD1401      0.0000 
     52 H          27.8359   14.3219   27.6109 H         1 UD1401      0.0000 
     53 H          26.9202   14.7935   25.5567 H         1 UD1401      0.0000 
     54 H          24.2884   13.8467   26.6033 H         1 UD1401      0.0000 
     55 H          23.8989   14.7005   24.4529 H         1 UD1401      0.0000 
     56 H          24.0919   12.9520   24.2400 H         1 UD1401      0.0000 
     57 H          22.8507   17.7288   16.8914 H         1 UD1401      0.0000 
     58 H          21.9427   16.4285   16.6254 H         1 UD1401      0.0000 
     59 H          22.3143   16.8555   18.1307 H         1 UD1401      0.0000 
     60 H          22.9467   12.6574   15.0602 H         1 UD1401      0.0000 
     61 H          25.0538    9.9779   15.1281 H         1 UD1401      0.0000 
     62 H          26.9377    8.1431   18.6831 H         1 UD1401      0.0000 
     63 H          26.5367   13.6364   29.4046 H         1 UD1401      0.0000 
     64 H          26.4617   16.5544   27.0341 H         1 UD1401      0.0000 
@<TRIPOS>BOND
     1    2    1 1    
     2   10    1 1    
     3   13    1 1    
     4   40    1 1    
     5    3    2 1    
     6    9    2 1    
     7   41    2 1    
     8    4    3 1    
     9   11    3 1    
    10   42    3 1    
    11    5    4 1    
    12   12    4 1    
    13   43    4 1    
    14    6    5 1    
    15   13    5 1    
    16   44    5 1    
    17   14    6 1    
    18   45    6 1    
    19   46    6 1    
    20    8    7 1    
    21    9    7 am   
    22   15    7 2    
    23   57    8 1    
    24   58    8 1    
    25   59    8 1    
    26   47    9 1    
    27   37   10 1    
    28   60   11 1    
    29   61   12 1    
    30   62   14 1    
    31   17   16 1    
    32   21   16 1    
    33   24   16 1    
    34   18   17 1    
    35   22   17 2    
    36   19   18 1    
    37   48   18 1    
    38   20   19 1    
    39   23   19 2    
    40   21   20 2    
    41   49   20 1    
    42   50   21 1    
    43   25   24 1    
    44   29   24 1    
    45   51   24 1    
    46   26   25 1    
    47   27   25 1    
    48   52   25 1    
    49   63   26 1    
    50   28   27 1    
    51   30   27 1    
    52   53   27 1    
    53   29   28 1    
    54   31   28 1    
    55   54   28 1    
    56   64   30 1    
    57   32   31 1    
    58   55   31 1    
    59   56   31 1    
    60   33   32 1    
    61   34   33 ar   
    62   35   33 ar   
    63   36   33 1    
    64   37   36 1    
    65   38   37 ar   
    66   39   37 ar   
@<TRIPOS>SUBSTRUCTURE
     1 UD1401      1 GROUP   
@<TRIPOS>SET

