#    Name: 2p1u_4TN_1_INTS_M
#    Modification time : Mon Mar 24 18:09:58 2014

@<TRIPOS>MOLECULE
2p1u_4TN_1_INTS_M
  104     0     9     0     0
SMALL
NO_CHARGES


@<TRIPOS>ATOM
      1 CA          1.7540   23.4550   27.5650 C.3       3 GLC5        0.0000 
      2 CA          1.0500   21.5820   27.2180 C.3       9 GLL5        0.0000 
      3 CA          2.4580   25.3280   27.9120 C.3       6 GLP5        0.0000 
      4 CA          2.7160   21.6015   26.6915 C.3       3 GLC5        0.0000 
      5 CA          4.3820   21.6210   26.1650 C.3       6 GLP5        0.0000 
      6 CA          1.2025   22.8815   25.7110 C.3       3 GLC5        0.0000 
      7 CA          1.3550   24.1810   24.2040 C.3       6 GLP5        0.0000 
      8 CA         -0.0955   23.2815   28.2320 C.3       3 GLC5        0.0000 
      9 CA          0.1450   21.2010   28.3810 C.3       9 GLL5        0.0000 
     10 CA         -0.3360   25.3620   28.0830 C.3       6 GLP5        0.0000 
     11 N          -0.4595   18.9470   27.7330 N.am      1 SEC2        0.0000 
     12 N           0.2960   19.7880   28.5710 N.am      7 SEL2        0.0000 
     13 N          -1.2150   18.1060   26.8950 N.am      4 SEP2        0.0000 
     14 CA         -2.1315   23.2545   33.7355 C.3       3 GLC5        0.0000 
     15 CA         -1.7380   21.2680   33.3540 C.3       9 GLL5        0.0000 
     16 CA         -2.5250   25.2410   34.1170 C.3       6 GLP5        0.0000 
     17 CA          0.0995   22.0485   33.8950 C.3       3 GLC5        0.0000 
     18 CA          1.9370   22.8290   34.4360 C.3       6 GLP5        0.0000 
     19 CA         -3.3815   21.3210   34.5190 C.3       3 GLC5        0.0000 
     20 CA         -5.0250   21.3740   35.6840 C.3       6 GLP5        0.0000 
     21 CA         -3.2500   22.1275   32.5355 C.3       3 GLC5        0.0000 
     22 CA         -4.7620   22.9870   31.7170 C.3       6 GLP5        0.0000 
     23 CA         -3.9590   20.3100   34.0665 C.3       3 GLC5        0.0000 
     24 CA         -2.8930   19.2460   32.4490 C.3       9 GLL5        0.0000 
     25 CA         -3.5030   18.0290   34.0375 C.3       3 GLC5        0.0000 
     26 CA         -4.1130   16.8120   35.6260 C.3       6 GLP5        0.0000 
     27 CA         -3.0670   17.6475   31.0290 C.3       3 GLC5        0.0000 
     28 CA         -3.2410   16.0490   29.6090 C.3       6 GLP5        0.0000 
     29 CA         -4.4095   19.4040   31.6345 C.3       3 GLC5        0.0000 
     30 CA         -5.9260   19.5620   30.8200 C.3       6 GLP5        0.0000 
     31 CA         -3.8275   21.1165   32.0830 C.3       3 GLC5        0.0000 
     32 CA         -2.7895   19.8750   35.6120 C.3       3 GLC5        0.0000 
     33 CA         -1.4190   18.9920   34.4260 C.3       9 GLL5        0.0000 
     34 CA         -4.1600   20.7580   36.7980 C.3       6 GLP5        0.0000 
     35 CA         -2.7660   17.9020   35.0260 C.3       3 GLC5        0.0000 
     36 CA         -1.5015   20.4240   36.0895 C.3       3 GLC5        0.0000 
     37 CA         -0.0080   19.1420   35.0190 C.3       9 GLL5        0.0000 
     38 CA         -2.9950   21.7060   37.1600 C.3       6 GLP5        0.0000 
     39 CA          2.9085   16.4775   33.2670 C.3       3 GLC5        0.0000 
     40 CA          1.1350   17.0420   34.1920 C.3       9 GLL5        0.0000 
     41 CA          4.6820   15.9130   32.3420 C.3       6 GLP5        0.0000 
     42 CA          1.2905   15.2225   34.6165 C.3       3 GLC5        0.0000 
     43 CA          1.4460   13.4030   35.0410 C.3       6 GLP5        0.0000 
     44 CA          0.0545   16.2655   32.7060 C.3       3 GLC5        0.0000 
     45 CA         -1.0260   15.4890   31.2200 C.3       6 GLP5        0.0000 
     46 CA          4.0960   19.1040   34.9225 C.3       3 GLC5        0.0000 
     47 CA          2.4010   19.2140   34.4910 C.3       9 GLL5        0.0000 
     48 CA          5.7910   18.9940   35.3540 C.3       6 GLP5        0.0000 
     49 CA          2.1150   18.8185   36.4460 C.3       3 GLC5        0.0000 
     50 CA          1.8290   18.4230   38.4010 C.3       6 GLP5        0.0000 
     51 N           1.3175   16.6315   26.9150 N.am      1 SEC2        0.0000 
     52 N           1.4250   17.2840   28.0580 N.am      7 SEL2        0.0000 
     53 N           1.2100   15.9790   25.7720 N.am      4 SEP2        0.0000 
     54 N           0.1050   17.6950   27.4765 N.am      1 SEC2        0.0000 
     55 CA          7.0630   21.7605   29.3710 C.3       3 GLC5        0.0000 
     56 CA          6.3090   19.7910   29.1200 C.3       9 GLL5        0.0000 
     57 CA          7.8170   23.7300   29.6220 C.3       6 GLP5        0.0000 
     58 CA          6.6255   20.6455   31.0390 C.3       3 GLC5        0.0000 
     59 CA          6.9420   21.5000   32.9580 C.3       6 GLP5        0.0000 
     60 CA          9.1600   19.5980   27.5040 C.3       3 GLC5        0.0000 
     61 CA          7.5470   19.1730   28.8920 C.3       9 GLL5        0.0000 
     62 CA         10.7730   20.0230   26.1160 C.3       6 GLP5        0.0000 
     63 NZ         11.2900   18.3640   29.1365 N.4       2 LYC4        0.0000 
     64 NZ          9.7960   18.9830   28.9670 N.4       8 LYL4        0.0000 
     65 NZ         12.7820   18.0160   30.6100 N.4       5 LYP4        0.0000 
     66 N          10.7480   18.7670   30.0710 N.am      1 SEC2        0.0000 
     67 N           9.7960   18.9830   28.9670 N.am      7 SEL2        0.0000 
     68 N          11.7000   18.5510   31.1750 N.am      4 SEP2        0.0000 
     69 N          11.2900   18.3640   29.1365 N.am      1 SEC2        0.0000 
     70 N          12.7840   17.7450   29.3060 N.am      4 SEP2        0.0000 
     71 N          10.1000   21.3565   30.4295 N.am      1 SEC2        0.0000 
     72 N           8.9030   20.7540   29.8840 N.am      7 SEL2        0.0000 
     73 N          11.2970   21.9590   30.9750 N.am      4 SEP2        0.0000 
     74 CA          1.4607   21.8148   29.5328 C.3       3 GLC5        0.0000 
     75 CA          2.3240   22.2380   31.2660 C.3       6 GLP5        0.0000 
     76 CA         -0.9742   22.1688   26.6837 C.3       3 GLC5        0.0000 
     77 CA         -2.5460   22.9460   25.5680 C.3       6 GLP5        0.0000 
     78 CA          1.1532   20.9258   30.8040 C.3       3 GLC5        0.0000 
     79 CA          0.5010   19.4950   29.8890 C.3       9 GLL5        0.0000 
     80 CA         -0.8738   17.7092   29.9635 C.3       3 GLC5        0.0000 
     81 CA         -1.7300   15.8050   29.5850 C.3       6 GLP5        0.0000 
     82 CA          1.2680   20.7138   31.8235 C.3       3 GLC5        0.0000 
     83 CA         -0.3990   19.4560   32.1560 C.3       9 GLL5        0.0000 
     84 CA          1.3310   18.1866   36.3876 C.3       3 GLC5        0.0000 
     85 CA          1.7015   20.9326   34.4799 C.3       3 GLC5        0.0000 
     86 CA          1.0700   18.5750   34.0940 C.3       9 GLL5        0.0000 
     87 CA          2.0598   20.5263   31.1350 C.3       3 GLC5        0.0000 
     88 CA          1.8670   18.6760   31.6860 C.3       9 GLL5        0.0000 
     89 CA          0.0067   17.2109   31.6268 C.3       3 GLC5        0.0000 
     90 CA          2.8625   20.6318   30.3965 C.3       3 GLC5        0.0000 
     91 CA          2.7820   18.7170   29.4160 C.3       9 GLL5        0.0000 
     92 CA          4.4720   20.4337   27.6833 C.3       3 GLC5        0.0000 
     93 CA          4.0200   19.3340   29.6380 C.3       9 GLL5        0.0000 
     94 CA          3.1015   15.8815   28.4277 C.3       3 GLC5        0.0000 
     95 CA          3.6990   17.7040   27.3970 C.3       9 GLL5        0.0000 
     96 CA          3.0420   13.9610   29.0140 C.3       6 GLP5        0.0000 
     97 CA          4.3518   19.8165   26.8432 C.3       3 GLC5        0.0000 
     98 CA          5.4917   17.0045   26.5508 C.3       3 GLC5        0.0000 
     99 CA          4.9440   18.3200   27.6460 C.3       9 GLL5        0.0000 
    100 CA          6.6620   15.9970   25.5800 C.3       6 GLP5        0.0000 
    101 CA          6.3945   20.7140   27.5090 C.3       3 GLC5        0.0000 
    102 CA          5.8610   21.9460   26.0120 C.3       6 GLP5        0.0000 
    103 CA          6.7095   18.0500   29.9690 C.3       3 GLC5        0.0000 
    104 CA          6.4910   16.6180   30.9320 C.3       6 GLP5        0.0000 
@<TRIPOS>BOND
@<TRIPOS>SUBSTRUCTURE
     1 SEC2       11 GROUP        1 X    SEC  0     ROOT SEC X 2
     2 LYC4       63 GROUP        1 X    LYC  0     **** LYC X 4
     3 GLC5        1 GROUP        1 X    GLC  0     **** GLC X 6
     4 SEP2       13 GROUP        1 Y    SEP  0     ROOT SEP Y 9
     5 LYP4       65 GROUP        1 Y    LYP  0     **** LYP Y 11
     6 GLP5        3 GROUP        1 Y    GLP  0     **** GLP Y 13
     7 SEL2       12 GROUP        1 Z    SEL  0     ROOT SEL Z 16
     8 LYL4       64 GROUP        1 Z    LYL  0     **** LYL Z 18
     9 GLL5        2 GROUP        1 Z    GLL  0     **** GLL Z 20
@<TRIPOS>SET

