#    Name: 2p1u_4TN_1_ligand
#    Modification time : Mon Mar 24 18:09:58 2014

@<TRIPOS>MOLECULE
2p1u_4TN_1_ligand
   58    60     1     0     0
SMALL
NO_CHARGES


@<TRIPOS>ATOM
      1 CAA         1.0500   21.5820   27.2180 C.3       1 4TN201      0.0000 
      2 CAP         0.1450   21.2010   28.3810 C.3       1 4TN201      0.0000 
      3 OAS         0.2960   19.7880   28.5710 O.3       1 4TN201      0.0000 
      4 CAW         0.5010   19.4950   29.8890 C.ar      1 4TN201      0.0000 
      5 CAN        -0.5360   19.7320   30.7950 C.ar      1 4TN201      0.0000 
      6 CAZ        -0.3990   19.4560   32.1560 C.ar      1 4TN201      0.0000 
      7 CBB        -1.5980   19.7530   33.0960 C.3       1 4TN201      0.0000 
      8 CAB        -1.7380   21.2680   33.3540 C.3       1 4TN201      0.0000 
      9 CAC        -2.8930   19.2460   32.4490 C.3       1 4TN201      0.0000 
     10 CAQ        -1.4190   18.9920   34.4260 C.3       1 4TN201      0.0000 
     11 CAR        -0.0080   19.1420   35.0190 C.3       1 4TN201      0.0000 
     12 CBC         1.0700   18.5750   34.0940 C.3       1 4TN201      0.0000 
     13 CAD         1.1350   17.0420   34.1920 C.3       1 4TN201      0.0000 
     14 CAE         2.4010   19.2140   34.4910 C.3       1 4TN201      0.0000 
     15 CBA         0.8230   18.9230   32.6060 C.ar      1 4TN201      0.0000 
     16 CAO         1.8670   18.6760   31.6860 C.ar      1 4TN201      0.0000 
     17 CAY         1.7240   18.9530   30.3220 C.ar      1 4TN201      0.0000 
     18 CAX         2.7820   18.7170   29.4160 C.ar      1 4TN201      0.0000 
     19 CAM         4.0200   19.3340   29.6380 C.ar      1 4TN201      0.0000 
     20 CAV         2.6230   17.9000   28.2860 C.ar      1 4TN201      0.0000 
     21 OAH         1.4250   17.2840   28.0580 O.3       1 4TN201      0.0000 
     22 CAL         3.6990   17.7040   27.3970 C.ar      1 4TN201      0.0000 
     23 CAK         4.9440   18.3200   27.6460 C.ar      1 4TN201      0.0000 
     24 CAU         5.1040   19.1590   28.7650 C.ar      1 4TN201      0.0000 
     25 CAJ         6.3090   19.7910   29.1200 C.2       1 4TN201      0.0000 
     26 CAI         7.5470   19.1730   28.8920 C.2       1 4TN201      0.0000 
     27 CAT         8.8030   19.6700   29.2750 C.2       1 4TN201      0.0000 
     28 OAG         9.7960   18.9830   28.9670 O.co2     1 4TN201      0.0000 
     29 OAF         8.9030   20.7540   29.8840 O.co2     1 4TN201      0.0000 
     30 H          -0.8723   21.4670   28.1211 H         1 4TN201      0.0000 
     31 H           0.4586   21.7614   29.2533 H         1 4TN201      0.0000 
     32 H          -1.4321   20.1239   30.4455 H         1 4TN201      0.0000 
     33 H          -1.6240   17.9294   34.2560 H         1 4TN201      0.0000 
     34 H          -2.1520   19.3660   35.1490 H         1 4TN201      0.0000 
     35 H           0.0302   18.6204   35.9790 H         1 4TN201      0.0000 
     36 H           0.1908   20.2022   35.1966 H         1 4TN201      0.0000 
     37 H           2.7568   18.2804   32.0358 H         1 4TN201      0.0000 
     38 H           4.1396   19.9390   30.4734 H         1 4TN201      0.0000 
     39 H           3.5782   17.1148   26.5702 H         1 4TN201      0.0000 
     40 H           5.7293   18.1559   27.0124 H         1 4TN201      0.0000 
     41 H           6.2800   20.7259   29.5558 H         1 4TN201      0.0000 
     42 H           7.5339   18.2364   28.3790 H         1 4TN201      0.0000 
     43 H           2.0079   21.3654   27.4064 H         1 4TN201      0.0000 
     44 H           0.7998   21.0989   26.3790 H         1 4TN201      0.0000 
     45 H           1.0048   22.5606   27.0173 H         1 4TN201      0.0000 
     46 H          -0.9203   21.6483   33.7862 H         1 4TN201      0.0000 
     47 H          -1.8850   21.7771   32.5060 H         1 4TN201      0.0000 
     48 H          -2.5098   21.4724   33.9561 H         1 4TN201      0.0000 
     49 H          -3.0691   19.6920   31.5714 H         1 4TN201      0.0000 
     50 H          -2.8612   18.2615   32.2763 H         1 4TN201      0.0000 
     51 H          -3.6894   19.4162   33.0293 H         1 4TN201      0.0000 
     52 H           1.8352   16.6606   33.5885 H         1 4TN201      0.0000 
     53 H           1.3506   16.7380   35.1199 H         1 4TN201      0.0000 
     54 H           0.2663   16.6165   33.9386 H         1 4TN201      0.0000 
     55 H           3.1551   18.8848   33.9228 H         1 4TN201      0.0000 
     56 H           2.3773   20.2094   34.3986 H         1 4TN201      0.0000 
     57 H           2.6406   19.0134   35.4409 H         1 4TN201      0.0000 
     58 H           1.3118   16.6479   28.8213 H         1 4TN201      0.0000 
@<TRIPOS>BOND
     1    2    1 1    
     2   43    1 1    
     3   44    1 1    
     4   45    1 1    
     5    3    2 1    
     6   30    2 1    
     7   31    2 1    
     8    4    3 1    
     9    5    4 ar   
    10   17    4 ar   
    11    6    5 ar   
    12   32    5 1    
    13    7    6 1    
    14   15    6 ar   
    15    8    7 1    
    16    9    7 1    
    17   10    7 1    
    18   46    8 1    
    19   47    8 1    
    20   48    8 1    
    21   49    9 1    
    22   50    9 1    
    23   51    9 1    
    24   11   10 1    
    25   33   10 1    
    26   34   10 1    
    27   12   11 1    
    28   35   11 1    
    29   36   11 1    
    30   13   12 1    
    31   14   12 1    
    32   15   12 1    
    33   52   13 1    
    34   53   13 1    
    35   54   13 1    
    36   55   14 1    
    37   56   14 1    
    38   57   14 1    
    39   16   15 ar   
    40   17   16 ar   
    41   37   16 1    
    42   18   17 1    
    43   19   18 ar   
    44   20   18 ar   
    45   24   19 ar   
    46   38   19 1    
    47   21   20 1    
    48   22   20 ar   
    49   58   21 1    
    50   23   22 ar   
    51   39   22 1    
    52   24   23 ar   
    53   40   23 1    
    54   25   24 1    
    55   26   25 2    
    56   41   25 1    
    57   27   26 1    
    58   42   26 1    
    59   28   27 ar   
    60   29   27 ar   
@<TRIPOS>SUBSTRUCTURE
     1 4TN201      1 GROUP   
@<TRIPOS>SET

