#    Name: 1yqx_NAP_2_INTS_M
#    Modification time : Mon Apr  7 15:51:15 2014

@<TRIPOS>MOLECULE
1yqx_NAP_2_INTS_M
  114     0    12     0     0
SMALL
NO_CHARGES


@<TRIPOS>ATOM
      1 N          46.1380   91.9605    3.3070 N.am      2 SEC2        0.0000 
      2 N          46.8420   90.9760    4.1090 N.am     10 SEL2        0.0000 
      3 N          45.4340   92.9450    2.5050 N.am      6 SEP2        0.0000 
      4 N          50.3455   89.2780    4.1530 N.am      2 SEC2        0.0000 
      5 N          48.9790   89.6330    3.6400 N.am     10 SEL2        0.0000 
      6 N          51.7120   88.9230    4.6660 N.am      6 SEP2        0.0000 
      7 CA         47.2385   93.7645    5.8450 C.3       4 GLC5        0.0000 
      8 CA         48.2630   91.9630    6.4900 C.3      12 GLL5        0.0000 
      9 CA         46.2140   95.5660    5.2000 C.3       8 GLP5        0.0000 
     10 CA         49.5995   91.5830    9.7025 C.3       4 GLC5        0.0000 
     11 CA         48.5280   91.2810    7.8360 C.3      12 GLL5        0.0000 
     12 CA         50.6710   91.8850   11.5690 C.3       8 GLP5        0.0000 
     13 CA         49.1220   89.4325    7.6045 C.3       4 GLC5        0.0000 
     14 CA         47.2140   90.2880    8.2370 C.3      12 GLL5        0.0000 
     15 CA         51.0300   88.5770    6.9720 C.3       8 GLP5        0.0000 
     16 O          46.7610   88.0165    7.9495 O.2       1 ALC1        0.0000 
     17 O          47.9490   88.9580    8.1560 O.2       9 ALL1        0.0000 
     18 O          45.5730   87.0750    7.7430 O.2       5 ALP1        0.0000 
     19 CA         44.9950   93.0635   14.2500 C.3       4 GLC5        0.0000 
     20 CA         44.9880   94.2840   12.9730 C.3      12 GLL5        0.0000 
     21 CA         45.0020   91.8430   15.5270 C.3       8 GLP5        0.0000 
     22 CA         45.8535   95.4190   11.7595 C.3       4 GLC5        0.0000 
     23 CA         46.7190   96.5540   10.5460 C.3       8 GLP5        0.0000 
     24 CA         45.1155   96.4130   13.5190 C.3       4 GLC5        0.0000 
     25 CA         45.2430   98.5420   14.0650 C.3       8 GLP5        0.0000 
     26 N          52.7420   91.5435    4.1350 N.am      2 SEC2        0.0000 
     27 N          51.5100   92.2850    3.9230 N.am     10 SEL2        0.0000 
     28 N          53.9740   90.8020    4.3470 N.am      6 SEP2        0.0000 
     29 N          49.6010   92.5310    0.3270 N.am      2 SEC2        0.0000 
     30 N          50.5470   92.3660    1.5320 N.am     10 SEL2        0.0000 
     31 N          48.6550   92.6960   -0.8780 N.am      6 SEP2        0.0000 
     32 CA         48.7240   94.0695    2.6880 C.3       4 GLC5        0.0000 
     33 CA         50.0160   94.6050    4.2990 C.3      12 GLL5        0.0000 
     34 CA         47.4320   93.5340    1.0770 C.3       8 GLP5        0.0000 
     35 CA         50.4240   97.6695    5.0200 C.3       4 GLC5        0.0000 
     36 CA         49.8360   96.1070    4.0620 C.3      12 GLL5        0.0000 
     37 CA         51.0120   99.2320    5.9780 C.3       8 GLP5        0.0000 
     38 CA         47.4820   96.0635    4.1050 C.3       4 GLC5        0.0000 
     39 CA         48.7500   96.5610    3.0100 C.3      12 GLL5        0.0000 
     40 N          48.7310   99.0220    4.0170 N.am      2 SEC2        0.0000 
     41 N          47.9940   97.6850    3.5500 N.am     10 SEL2        0.0000 
     42 N          49.4680  100.3590    4.4840 N.am      6 SEP2        0.0000 
     43 O          46.7025   97.7410    2.7235 O.2       1 ALC1        0.0000 
     44 O          47.9940   97.6850    3.5500 O.2       9 ALL1        0.0000 
     45 O          45.4110   97.7970    1.8970 O.2       5 ALP1        0.0000 
     46 CA         48.8345   96.7445   -0.2350 C.3       4 GLC5        0.0000 
     47 CA         49.5590   96.9510    1.8070 C.3      12 GLL5        0.0000 
     48 CA         48.1100   96.5380   -2.2770 C.3       8 GLP5        0.0000 
     49 N          49.4415   97.7130   -0.2175 N.am      2 SEC2        0.0000 
     50 N          48.8250   97.7840    0.9210 N.am     10 SEL2        0.0000 
     51 N          50.0580   97.6420   -1.3560 N.am      6 SEP2        0.0000 
     52 CA         52.3915   96.3595    3.0535 C.3       4 GLC5        0.0000 
     53 CA         50.7010   97.6160    2.4450 C.3      12 GLL5        0.0000 
     54 CA         54.0820   95.1030    3.6620 C.3       8 GLP5        0.0000 
     55 CA         50.8565   98.4240    4.2115 C.3       4 GLC5        0.0000 
     56 CA         49.8745   99.6110    2.4410 C.3       4 GLC5        0.0000 
     57 CA         49.0480  101.6060    2.4370 C.3       8 GLP5        0.0000 
     58 CA         53.4420   96.9925    2.7535 C.3       4 GLC5        0.0000 
     59 CA         52.8020   98.8820    1.8450 C.3      12 GLL5        0.0000 
     60 N          57.2025  100.4540    0.3925 N.am      2 SEC2        0.0000 
     61 N          55.9150  100.2630    0.6900 N.am     10 SEL2        0.0000 
     62 N          58.4900  100.6450    0.0950 N.am      6 SEP2        0.0000 
     63 O          53.8020  100.4920    3.1825 O.2       1 ALC1        0.0000 
     64 O          54.4670  101.1870    2.0760 O.2       9 ALL1        0.0000 
     65 O          53.1370   99.7970    4.2890 O.2       5 ALP1        0.0000 
     66 O          55.7200  101.7070    2.8900 O.2       1 ALC1        0.0000 
     67 O          56.9730  102.2270    3.7040 O.2       5 ALP1        0.0000 
     68 CA         56.0250   98.5050   -1.0175 C.3       4 GLC5        0.0000 
     69 CA         54.4730   97.8550    0.2930 C.3      12 GLL5        0.0000 
     70 CA         57.5770   99.1550   -2.3280 C.3       8 GLP5        0.0000 
     71 NZ         48.5335   87.4785   11.1570 N.4       3 LYC4        0.0000 
     72 NZ         49.0220   88.7460   12.4870 N.4      11 LYL4        0.0000 
     73 NZ         48.0450   86.2110    9.8270 N.4       7 LYP4        0.0000 
     74 N          50.1705   89.1610   11.8595 N.am      2 SEC2        0.0000 
     75 N          49.0220   88.7460   12.4870 N.am     10 SEL2        0.0000 
     76 N          51.3190   89.5760   11.2320 N.am      6 SEP2        0.0000 
     77 N          48.8935   88.1775   13.5915 N.am      2 SEC2        0.0000 
     78 N          48.7650   87.6090   14.6960 N.am      6 SEP2        0.0000 
     79 N          46.8770   89.8015   14.2260 N.am      2 SEC2        0.0000 
     80 N          46.8580   90.0910   12.7280 N.am     10 SEL2        0.0000 
     81 N          46.8960   89.5120   15.7240 N.am      6 SEP2        0.0000 
     82 N          45.7485   90.0575   13.3595 N.am      2 SEC2        0.0000 
     83 N          44.6390   90.0240   13.9910 N.am      6 SEP2        0.0000 
     84 NZ         47.4515   87.0165   10.6760 N.4       3 LYC4        0.0000 
     85 NZ         46.8580   87.8220   11.5250 N.4      11 LYL4        0.0000 
     86 N          45.8420   86.9355   12.2215 N.am      2 SEC2        0.0000 
     87 N          46.8580   87.8220   11.5250 N.am     10 SEL2        0.0000 
     88 N          44.8260   86.0490   12.9180 N.am      6 SEP2        0.0000 
     89 N          47.4515   87.0165   10.6760 N.am      2 SEC2        0.0000 
     90 N          48.0450   86.2110    9.8270 N.am      6 SEP2        0.0000 
     91 N          45.8000   87.9620   10.5440 N.am      2 SEC2        0.0000 
     92 N          44.7420   88.1020    9.5630 N.am      6 SEP2        0.0000 
     93 CA         49.7127   90.0995    7.0675 C.3       4 GLC5        0.0000 
     94 CA         48.8235   91.5105   10.6582 C.3       4 GLC5        0.0000 
     95 CA         46.9160   90.3390    9.6670 C.3      12 GLL5        0.0000 
     96 CA         43.0763   95.7202    9.6322 C.3       4 GLC5        0.0000 
     97 CA         43.8990   93.6760   10.4050 C.3      12 GLL5        0.0000 
     98 CA         42.6520   97.3720    8.3880 C.3       8 GLP5        0.0000 
     99 CA         45.5321   95.1041   10.6939 C.3       4 GLC5        0.0000 
    100 CA         52.0040   95.2295    3.9213 C.3       4 GLC5        0.0000 
    101 CA         48.0700   95.4610    4.6903 C.3       4 GLC5        0.0000 
    102 CA         48.2933   95.1450    1.7428 C.3       4 GLC5        0.0000 
    103 CA         47.4662   97.3680    1.4968 C.3       4 GLC5        0.0000 
    104 CA         45.7780   97.9800    0.5850 C.3       8 GLP5        0.0000 
    105 CA         55.6525   97.9830    1.8478 C.3       4 GLC5        0.0000 
    106 CA         54.0170   98.9550    1.1540 C.3      12 GLL5        0.0000 
    107 CA         57.0600   97.5610    2.9720 C.3       8 GLP5        0.0000 
    108 CA         54.7548   96.3787   -1.1530 C.3       4 GLC5        0.0000 
    109 CA         55.4630   95.4820   -2.5470 C.3       8 GLP5        0.0000 
    110 CA         52.2485   95.4087   -0.5505 C.3       4 GLC5        0.0000 
    111 CA         53.6200   96.6960    0.1890 C.3      12 GLL5        0.0000 
    112 CA         51.5030   94.1660   -1.6420 C.3       8 GLP5        0.0000 
    113 CA         53.6446   96.0221    2.1145 C.3       4 GLC5        0.0000 
    114 CA         52.3680   96.6070    0.8930 C.3      12 GLL5        0.0000 
@<TRIPOS>BOND
@<TRIPOS>SUBSTRUCTURE
     1 ALC1       16 GROUP        1 X    ALC  0     ROOT ALC X 1
     2 SEC2        1 GROUP        1 X    SEC  0     **** SEC X 2
     3 LYC4       71 GROUP        1 X    LYC  0     **** LYC X 4
     4 GLC5        7 GROUP        1 X    GLC  0     **** GLC X 6
     5 ALP1       18 GROUP        1 Y    ALP  0     ROOT ALP Y 8
     6 SEP2        3 GROUP        1 Y    SEP  0     **** SEP Y 9
     7 LYP4       73 GROUP        1 Y    LYP  0     **** LYP Y 11
     8 GLP5        9 GROUP        1 Y    GLP  0     **** GLP Y 13
     9 ALL1       17 GROUP        1 Z    ALL  0     ROOT ALL Z 15
    10 SEL2        2 GROUP        1 Z    SEL  0     **** SEL Z 16
    11 LYL4       72 GROUP        1 Z    LYL  0     **** LYL Z 18
    12 GLL5        8 GROUP        1 Z    GLL  0     **** GLL Z 20
@<TRIPOS>SET

