#    Name: 1yqx_NAP_2_ligand
#    Modification time : Mon Apr  7 15:51:15 2014

@<TRIPOS>MOLECULE
1yqx_NAP_2_ligand
   72    76     1     0     0
SMALL
NO_CHARGES


@<TRIPOS>ATOM
      1 PA         48.2200   90.8060    4.1700 P.3       1 NAP600      0.0000 
      2 O1A        46.8420   90.9760    4.1090 O.co2     1 NAP600      0.0000 
      3 O2A        48.9790   89.6330    3.6400 O.co2     1 NAP600      0.0000 
      4 O5B        48.7950   90.9200    5.6600 O.3       1 NAP600      0.0000 
      5 C5B        48.2630   91.9630    6.4900 C.3       1 NAP600      0.0000 
      6 C4B        48.5280   91.2810    7.8360 C.3       1 NAP600      0.0000 
      7 O4B        47.9230   92.2640    9.0140 O.3       1 NAP600      0.0000 
      8 C3B        47.2140   90.2880    8.2370 C.3       1 NAP600      0.0000 
      9 O3B        47.9490   88.9580    8.1560 O.3       1 NAP600      0.0000 
     10 C2B        46.9160   90.3390    9.6670 C.3       1 NAP600      0.0000 
     11 O2B        47.9720   89.8950   10.4840 O.3       1 NAP600      0.0000 
     12 C1B        47.0360   91.9330    9.8280 C.3       1 NAP600      0.0000 
     13 N9A        45.7000   92.5380    9.7600 N.pl3     1 NAP600      0.0000 
     14 C8A        44.7400   92.5510    8.7390 C.2       1 NAP600      0.0000 
     15 N7A        43.6270   93.2290    9.0820 N.2       1 NAP600      0.0000 
     16 C5A        43.8990   93.6760   10.4050 C.ar      1 NAP600      0.0000 
     17 C6A        43.1020   94.4610   11.3480 C.ar      1 NAP600      0.0000 
     18 N6A        41.8500   94.9630   11.1550 N.pl3     1 NAP600      0.0000 
     19 N1A        43.6800   94.7500   12.6340 N.ar      1 NAP600      0.0000 
     20 C2A        44.9880   94.2840   12.9730 C.ar      1 NAP600      0.0000 
     21 N3A        45.7760   93.5200   12.0810 N.ar      1 NAP600      0.0000 
     22 C4A        45.1900   93.2400   10.8070 C.ar      1 NAP600      0.0000 
     23 O3         48.9100   92.0650    3.4790 O.3       1 NAP600      0.0000 
     24 PN         50.4230   92.2190    2.9790 P.3       1 NAP600      0.0000 
     25 O1N        51.5100   92.2850    3.9230 O.co2     1 NAP600      0.0000 
     26 O2N        50.5470   92.3660    1.5320 O.co2     1 NAP600      0.0000 
     27 O5D        50.2340   93.8460    3.0420 O.3       1 NAP600      0.0000 
     28 C5D        50.0160   94.6050    4.2990 C.3       1 NAP600      0.0000 
     29 C4D        49.8360   96.1070    4.0620 C.3       1 NAP600      0.0000 
     30 O4D        51.0380   96.7970    3.6210 O.3       1 NAP600      0.0000 
     31 C3D        48.7500   96.5610    3.0100 C.3       1 NAP600      0.0000 
     32 O3D        47.9940   97.6850    3.5500 O.3       1 NAP600      0.0000 
     33 C2D        49.5590   96.9510    1.8070 C.3       1 NAP600      0.0000 
     34 O2D        48.8250   97.7840    0.9210 O.3       1 NAP600      0.0000 
     35 C1D        50.7010   97.6160    2.4450 C.3       1 NAP600      0.0000 
     36 N1N        51.9900   97.7200    1.7110 N.pl3     1 NAP600      0.0000 
     37 C2N        52.8020   98.8820    1.8450 C.ar      1 NAP600      0.0000 
     38 C3N        54.0170   98.9550    1.1540 C.ar      1 NAP600      0.0000 
     39 C7N        54.8690  100.2170    1.3100 C.2       1 NAP600      0.0000 
     40 O7N        55.9150  100.2630    0.6900 O.2       1 NAP600      0.0000 
     41 N7N        54.4670  101.1870    2.0760 N.am      1 NAP600      0.0000 
     42 C4N        54.4730   97.8550    0.2930 C.ar      1 NAP600      0.0000 
     43 C5N        53.6200   96.6960    0.1890 C.ar      1 NAP600      0.0000 
     44 C6N        52.3680   96.6070    0.8930 C.ar      1 NAP600      0.0000 
     45 P2B        47.6210   89.0760   11.9310 P.3       1 NAP600      0.0000 
     46 O1X        49.0220   88.7460   12.4870 O.co2     1 NAP600      0.0000 
     47 O2X        46.8580   90.0910   12.7280 O.co2     1 NAP600      0.0000 
     48 O3X        46.8580   87.8220   11.5250 O.co2     1 NAP600      0.0000 
     49 H          47.2299   92.0820    6.3742 H         1 NAP600      0.0000 
     50 H          48.8291   92.8419    6.4444 H         1 NAP600      0.0000 
     51 H          49.2991   90.8918    8.1103 H         1 NAP600      0.0000 
     52 H          46.5231   90.3756    7.5836 H         1 NAP600      0.0000 
     53 H          45.9806   90.0997    9.9112 H         1 NAP600      0.0000 
     54 H          47.3817   92.0015   10.9088 H         1 NAP600      0.0000 
     55 H          44.8897   92.1047    7.8750 H         1 NAP600      0.0000 
     56 H          45.3671   94.5177   13.9078 H         1 NAP600      0.0000 
     57 H          50.8699   94.4628    4.9807 H         1 NAP600      0.0000 
     58 H          49.1210   94.2277    4.8193 H         1 NAP600      0.0000 
     59 H          49.5158   96.5862    5.0181 H         1 NAP600      0.0000 
     60 H          48.1570   95.7198    2.7943 H         1 NAP600      0.0000 
     61 H          49.9037   96.0405    1.3501 H         1 NAP600      0.0000 
     62 H          50.4178   98.5933    2.8206 H         1 NAP600      0.0000 
     63 H          52.4922   99.6463    2.4402 H         1 NAP600      0.0000 
     64 H          53.5974  101.0432    2.5484 H         1 NAP600      0.0000 
     65 H          55.0644  101.9876    2.1223 H         1 NAP600      0.0000 
     66 H          55.3317   97.9185   -0.1904 H         1 NAP600      0.0000 
     67 H          53.9159   95.9136   -0.4043 H         1 NAP600      0.0000 
     68 H          51.7895   95.8015    0.8123 H         1 NAP600      0.0000 
     69 H          47.2396   88.2629    8.2728 H         1 NAP600      0.0000 
     70 H          41.9797   95.9493   11.0527 H         1 NAP600      0.0000 
     71 H          47.0640   97.5614    3.2039 H         1 NAP600      0.0000 
     72 H          48.4327   98.4973    1.5018 H         1 NAP600      0.0000 
@<TRIPOS>BOND
     1    2    1 ar   
     2    3    1 ar   
     3    4    1 1    
     4   23    1 1    
     5    5    4 1    
     6    6    5 1    
     7   49    5 1    
     8   50    5 1    
     9    7    6 1    
    10    8    6 1    
    11   51    6 1    
    12   12    7 1    
    13    9    8 1    
    14   10    8 1    
    15   52    8 1    
    16   69    9 1    
    17   11   10 1    
    18   12   10 1    
    19   53   10 1    
    20   45   11 1    
    21   13   12 1    
    22   54   12 1    
    23   14   13 1    
    24   22   13 1    
    25   15   14 2    
    26   55   14 1    
    27   16   15 1    
    28   17   16 ar   
    29   22   16 ar   
    30   18   17 1    
    31   19   17 ar   
    32   70   18 1    
    33   20   19 ar   
    34   21   20 ar   
    35   56   20 1    
    36   22   21 ar   
    37   24   23 1    
    38   25   24 ar   
    39   26   24 ar   
    40   27   24 1    
    41   28   27 1    
    42   29   28 1    
    43   57   28 1    
    44   58   28 1    
    45   30   29 1    
    46   31   29 1    
    47   59   29 1    
    48   35   30 1    
    49   32   31 1    
    50   33   31 1    
    51   60   31 1    
    52   71   32 1    
    53   34   33 1    
    54   35   33 1    
    55   61   33 1    
    56   72   34 1    
    57   36   35 1    
    58   62   35 1    
    59   37   36 ar   
    60   44   36 ar   
    61   38   37 ar   
    62   63   37 1    
    63   39   38 1    
    64   42   38 ar   
    65   40   39 2    
    66   41   39 am   
    67   64   41 1    
    68   65   41 1    
    69   43   42 ar   
    70   66   42 1    
    71   44   43 ar   
    72   67   43 1    
    73   68   44 1    
    74   46   45 ar   
    75   47   45 ar   
    76   48   45 ar   
@<TRIPOS>SUBSTRUCTURE
     1 NAP600      1 GROUP   
@<TRIPOS>SET

