#    Name: 3rk1_ATP_1_INTS_M
#    Modification time : Tue Mar 25 11:35:10 2014

@<TRIPOS>MOLECULE
3rk1_ATP_1_INTS_M
   64     0    12     0     0
SMALL
NO_CHARGES


@<TRIPOS>ATOM
      1 NZ         19.9595   13.0920   33.1580 N.4       3 LYC4        0.0000 
      2 NZ         18.6380   13.4290   32.4480 N.4      11 LYL4        0.0000 
      3 NZ         21.2810   12.7550   33.8680 N.4       7 LYP4        0.0000 
      4 N          19.9595   13.0920   33.1580 N.am      2 SEC2        0.0000 
      5 N          18.6380   13.4290   32.4480 N.am     10 SEL2        0.0000 
      6 N          21.2810   12.7550   33.8680 N.am      6 SEP2        0.0000 
      7 N          18.6955   14.1335   31.3285 N.am      2 SEC2        0.0000 
      8 N          18.7530   14.8380   30.2090 N.am      6 SEP2        0.0000 
      9 N          16.3410   14.5165   31.7275 N.am      2 SEC2        0.0000 
     10 N          16.2420   13.1610   31.9040 N.am     10 SEL2        0.0000 
     11 N          16.4400   15.8720   31.5510 N.am      6 SEP2        0.0000 
     12 N          17.4975   13.9995   31.0565 N.am      2 SEC2        0.0000 
     13 N          16.0405    8.9120   30.3665 N.am      2 SEC2        0.0000 
     14 N          17.6760    8.8260   30.9710 N.am     10 SEL2        0.0000 
     15 N          14.4050    8.9980   29.7620 N.am      6 SEP2        0.0000 
     16 N          18.5555    8.3385   30.0445 N.am      2 SEC2        0.0000 
     17 N          19.4350    7.8510   29.1180 N.am      6 SEP2        0.0000 
     18 N          17.1020    8.0405   29.9625 N.am      2 SEC2        0.0000 
     19 N          16.5280    7.2550   28.9540 N.am      6 SEP2        0.0000 
     20 N          14.3735   10.9900   31.4805 N.am      2 SEC2        0.0000 
     21 N          15.5620    9.9750   31.7120 N.am     10 SEL2        0.0000 
     22 N          13.1850   12.0050   31.2490 N.am      6 SEP2        0.0000 
     23 CA         17.7535    5.4265   36.1320 C.3       4 GLC5        0.0000 
     24 CA         16.6400    6.4460   34.8150 C.3      12 GLL5        0.0000 
     25 CA         18.8670    4.4070   37.4490 C.3       8 GLP5        0.0000 
     26 CA         17.5465    4.2215   35.2790 C.3       4 GLC5        0.0000 
     27 CA         16.6600    5.3460   33.7530 C.3      12 GLL5        0.0000 
     28 CA         18.4330    3.0970   36.8050 C.3       8 GLP5        0.0000 
     29 CA         18.8055    4.9040   32.2670 C.3       4 GLC5        0.0000 
     30 CA         16.8970    5.8420   32.3450 C.3      12 GLL5        0.0000 
     31 CA         20.7140    3.9660   32.1890 C.3       8 GLP5        0.0000 
     32 N          18.3250    3.3435   31.4460 N.am      2 SEC2        0.0000 
     33 N          16.9210    3.7320   31.0380 N.am     10 SEL2        0.0000 
     34 N          19.7290    2.9550   31.8540 N.am      6 SEP2        0.0000 
     35 O          16.4355    3.6915   29.6105 O.2       1 ALC1        0.0000 
     36 O          16.9210    3.7320   31.0380 O.2       9 ALL1        0.0000 
     37 O          15.9500    3.6510   28.1830 O.2       5 ALP1        0.0000 
     38 N          11.4015    7.7200   33.1905 N.am      2 SEC2        0.0000 
     39 N          12.2170    6.7740   32.5550 N.am     10 SEL2        0.0000 
     40 N          10.5860    8.6660   33.8260 N.am      6 SEP2        0.0000 
     41 CA         11.8680    8.1445   32.1265 C.3       4 GLC5        0.0000 
     42 CA         11.7330    5.9830   31.5650 C.3      12 GLL5        0.0000 
     43 CA         12.0030   10.3060   32.6880 C.3       8 GLP5        0.0000 
     44 CA          8.8725    4.6670   30.5020 C.3       4 GLC5        0.0000 
     45 CA         10.5840    5.9260   30.7250 C.3      12 GLL5        0.0000 
     46 CA          7.1610    3.4080   30.2790 C.3       8 GLP5        0.0000 
     47 O           8.3080    6.6195   29.9815 O.2       1 ALC1        0.0000 
     48 O           9.6090    6.8330   30.6630 O.2       9 ALL1        0.0000 
     49 O           7.0070    6.4060   29.3000 O.2       5 ALP1        0.0000 
     50 N           9.2920    4.5300   28.9720 N.am      2 SEC2        0.0000 
     51 N          10.4660    4.8870   29.7920 N.am     10 SEL2        0.0000 
     52 N           8.1180    4.1730   28.1520 N.am      6 SEP2        0.0000 
     53 CA         13.0640    2.6305   29.5305 C.3       4 GLC5        0.0000 
     54 CA         11.4500    3.9300   29.6590 C.3      12 GLL5        0.0000 
     55 CA         14.6780    1.3310   29.4020 C.3       8 GLP5        0.0000 
     56 CA         10.4100    4.0845   27.8680 C.3       4 GLC5        0.0000 
     57 CA          9.3700    4.2390   26.0770 C.3       8 GLP5        0.0000 
     58 CA          9.3055    3.6690   29.9690 C.3       4 GLC5        0.0000 
     59 CA         15.1345    2.9768   30.6623 C.3       4 GLC5        0.0000 
     60 CA         15.0020    4.4220   32.3620 C.3      12 GLL5        0.0000 
     61 CA          9.9507    6.0613   32.4980 C.3       4 GLC5        0.0000 
     62 CA          8.7430    6.1680   33.8510 C.3       8 GLP5        0.0000 
     63 CA         12.5694    6.8821   30.3878 C.3       4 GLC5        0.0000 
     64 CA         13.2000    8.2960   29.5130 C.3       8 GLP5        0.0000 
@<TRIPOS>BOND
@<TRIPOS>SUBSTRUCTURE
     1 ALC1       35 GROUP        1 X    ALC  0     ROOT ALC X 1
     2 SEC2        4 GROUP        1 X    SEC  0     **** SEC X 2
     3 LYC4        1 GROUP        1 X    LYC  0     **** LYC X 4
     4 GLC5       23 GROUP        1 X    GLC  0     **** GLC X 6
     5 ALP1       37 GROUP        1 Y    ALP  0     ROOT ALP Y 8
     6 SEP2        6 GROUP        1 Y    SEP  0     **** SEP Y 9
     7 LYP4        3 GROUP        1 Y    LYP  0     **** LYP Y 11
     8 GLP5       25 GROUP        1 Y    GLP  0     **** GLP Y 13
     9 ALL1       36 GROUP        1 Z    ALL  0     ROOT ALL Z 15
    10 SEL2        5 GROUP        1 Z    SEL  0     **** SEL Z 16
    11 LYL4        2 GROUP        1 Z    LYL  0     **** LYL Z 18
    12 GLL5       24 GROUP        1 Z    GLL  0     **** GLL Z 20
@<TRIPOS>SET

