#    Name: 3rk1_ATP_1_ligand
#    Modification time : Tue Mar 25 11:35:10 2014

@<TRIPOS>MOLECULE
3rk1_ATP_1_ligand
   42    44     1     0     0
SMALL
NO_CHARGES


@<TRIPOS>ATOM
      1 PG         17.5360   12.5130   32.6170 P.3       1 ATP301      0.0000 
      2 O1G        18.6380   13.4290   32.4480 O.co2     1 ATP301      0.0000 
      3 O2G        17.2690   12.2050   34.0070 O.co2     1 ATP301      0.0000 
      4 O3G        16.2420   13.1610   31.9040 O.co2     1 ATP301      0.0000 
      5 PB         17.0460    9.7760   31.9040 P.3       1 ATP301      0.0000 
      6 O1B        17.6760    8.8260   30.9710 O.co2     1 ATP301      0.0000 
      7 O2B        15.5620    9.9750   31.7120 O.co2     1 ATP301      0.0000 
      8 O3B        17.8670   11.1330   31.7790 O.3       1 ATP301      0.0000 
      9 PA         16.3580    9.0220   34.6340 P.3       1 ATP301      0.0000 
     10 O1A        17.1470    9.1120   35.8790 O.co2     1 ATP301      0.0000 
     11 O2A        15.2130   10.0300   34.6190 O.co2     1 ATP301      0.0000 
     12 O3A        17.3590    9.2870   33.4040 O.3       1 ATP301      0.0000 
     13 O5'        15.8440    7.5310   34.4210 O.3       1 ATP301      0.0000 
     14 C5'        16.6400    6.4460   34.8150 C.3       1 ATP301      0.0000 
     15 C4'        16.6600    5.3460   33.7530 C.3       1 ATP301      0.0000 
     16 O4'        15.4750    4.5530   33.7080 O.3       1 ATP301      0.0000 
     17 C3'        16.8970    5.8420   32.3450 C.3       1 ATP301      0.0000 
     18 O3'        18.3050    5.9260   32.1200 O.3       1 ATP301      0.0000 
     19 C2'        16.1800    4.8230   31.4830 C.3       1 ATP301      0.0000 
     20 O2'        16.9210    3.7320   31.0380 O.3       1 ATP301      0.0000 
     21 C1'        15.0020    4.4220   32.3620 C.3       1 ATP301      0.0000 
     22 N9         13.7300    5.2330   32.2500 N.pl3     1 ATP301      0.0000 
     23 C8         13.3940    6.3550   32.9830 C.2       1 ATP301      0.0000 
     24 N7         12.2170    6.7740   32.5550 N.2       1 ATP301      0.0000 
     25 C5         11.7330    5.9830   31.5650 C.ar      1 ATP301      0.0000 
     26 C6         10.5840    5.9260   30.7250 C.ar      1 ATP301      0.0000 
     27 N6          9.6090    6.8330   30.6630 N.pl3     1 ATP301      0.0000 
     28 N1         10.4660    4.8870   29.7920 N.ar      1 ATP301      0.0000 
     29 C2         11.4500    3.9300   29.6590 C.ar      1 ATP301      0.0000 
     30 N3         12.5880    3.9820   30.4570 N.ar      1 ATP301      0.0000 
     31 C4         12.7190    4.9820   31.3800 C.ar      1 ATP301      0.0000 
     32 H          16.2814    5.9841   35.7554 H         1 ATP301      0.0000 
     33 H          17.6913    6.7428   34.9961 H         1 ATP301      0.0000 
     34 H          17.5218    4.6734   33.9884 H         1 ATP301      0.0000 
     35 H          16.3984    6.7830   32.2506 H         1 ATP301      0.0000 
     36 H          15.7248    5.3982   30.6514 H         1 ATP301      0.0000 
     37 H          14.7776    3.3737   32.1776 H         1 ATP301      0.0000 
     38 H          13.9433    6.7344   33.6733 H         1 ATP301      0.0000 
     39 H          11.3468    3.1717   28.9676 H         1 ATP301      0.0000 
     40 H          18.4454    6.8175   31.6893 H         1 ATP301      0.0000 
     41 H          16.6788    3.6311   30.0730 H         1 ATP301      0.0000 
     42 H           8.8808    6.3944   30.1364 H         1 ATP301      0.0000 
@<TRIPOS>BOND
     1    2    1 ar   
     2    3    1 ar   
     3    4    1 ar   
     4    8    1 1    
     5    6    5 ar   
     6    7    5 ar   
     7    8    5 1    
     8   12    5 1    
     9   10    9 ar   
    10   11    9 ar   
    11   12    9 1    
    12   13    9 1    
    13   14   13 1    
    14   15   14 1    
    15   32   14 1    
    16   33   14 1    
    17   16   15 1    
    18   17   15 1    
    19   34   15 1    
    20   21   16 1    
    21   18   17 1    
    22   19   17 1    
    23   35   17 1    
    24   40   18 1    
    25   20   19 1    
    26   21   19 1    
    27   36   19 1    
    28   41   20 1    
    29   22   21 1    
    30   37   21 1    
    31   23   22 1    
    32   31   22 1    
    33   24   23 2    
    34   38   23 1    
    35   25   24 1    
    36   26   25 ar   
    37   31   25 ar   
    38   27   26 1    
    39   28   26 ar   
    40   42   27 1    
    41   29   28 ar   
    42   30   29 ar   
    43   39   29 1    
    44   31   30 ar   
@<TRIPOS>SUBSTRUCTURE
     1 ATP301      1 GROUP   
@<TRIPOS>SET

