#    Name: 3cxh_SMA_1_INTS_M
#    Modification time : Mon Mar 24 22:28:37 2014

@<TRIPOS>MOLECULE
3cxh_SMA_1_INTS_M
  125     0     9     0     0
SMALL
NO_CHARGES


@<TRIPOS>ATOM
      1 CA         15.7025  -23.2640   68.0255 C.3       3 GLC5        0.0000 
      2 CA         15.6630  -22.7000   70.0640 C.3       9 GLL5        0.0000 
      3 CA         15.7420  -23.8280   65.9870 C.3       6 GLP5        0.0000 
      4 CA         15.0575  -23.8720   72.5250 C.3       3 GLC5        0.0000 
      5 CA         14.6410  -23.2200   70.8150 C.3       9 GLL5        0.0000 
      6 CA         15.4740  -24.5240   74.2350 C.3       6 GLP5        0.0000 
      7 CA         14.5455  -21.7910   73.0550 C.3       3 GLC5        0.0000 
      8 CA         13.5910  -22.3610   71.4000 C.3       9 GLL5        0.0000 
      9 CA         15.5000  -21.2210   74.7100 C.3       6 GLP5        0.0000 
     10 CA         11.6235  -22.0320   72.0245 C.3       3 GLC5        0.0000 
     11 CA          9.6560  -21.7030   72.6490 C.3       6 GLP5        0.0000 
     12 CA         13.1090  -20.7380   71.3730 C.3       3 GLC5        0.0000 
     13 CA         12.6270  -19.1150   71.3460 C.3       6 GLP5        0.0000 
     14 CA         13.6465  -29.0070   70.5820 C.3       3 GLC5        0.0000 
     15 CA         15.0230  -28.6930   72.0440 C.3       9 GLL5        0.0000 
     16 CA         12.2700  -29.3210   69.1200 C.3       6 GLP5        0.0000 
     17 CA         15.9575  -30.3655   71.4380 C.3       3 GLC5        0.0000 
     18 CA         16.8920  -32.0380   70.8320 C.3       6 GLP5        0.0000 
     19 CA         15.2035  -27.2850   73.2935 C.3       3 GLC5        0.0000 
     20 CA         15.3840  -25.8770   74.5430 C.3       6 GLP5        0.0000 
     21 CA         13.7070  -29.9170   72.6995 C.3       3 GLC5        0.0000 
     22 CA         12.3910  -31.1410   73.3550 C.3       6 GLP5        0.0000 
     23 CA         16.7960  -29.8420   70.4525 C.3       3 GLC5        0.0000 
     24 CA         16.7000  -27.6460   70.0730 C.3       9 GLL5        0.0000 
     25 CA         19.0720  -26.6035   70.4775 C.3       3 GLC5        0.0000 
     26 CA         17.6790  -27.0190   69.3080 C.3       9 GLL5        0.0000 
     27 CA         20.4650  -26.1880   71.6470 C.3       6 GLP5        0.0000 
     28 CA         20.1635  -30.5665   69.6545 C.3       3 GLC5        0.0000 
     29 CA         18.9520  -29.0500   69.1260 C.3       9 GLL5        0.0000 
     30 CA         21.3750  -32.0830   70.1830 C.3       6 GLP5        0.0000 
     31 CA         17.6965  -28.8995   67.5585 C.3       3 GLC5        0.0000 
     32 CA         16.4410  -28.7490   65.9910 C.3       6 GLP5        0.0000 
     33 CA         18.5030  -30.4335   70.4630 C.3       3 GLC5        0.0000 
     34 CA         18.0540  -31.8170   71.8000 C.3       6 GLP5        0.0000 
     35 CA         19.7085  -27.6190   70.3865 C.3       3 GLC5        0.0000 
     36 CA         18.7405  -23.7390   68.6305 C.3       3 GLC5        0.0000 
     37 CA         17.6620  -25.6060   69.1120 C.3       9 GLL5        0.0000 
     38 CA         19.8190  -21.8720   68.1490 C.3       6 GLP5        0.0000 
     39 CA         17.8985  -21.0215   70.0545 C.3       3 GLC5        0.0000 
     40 CA         15.8960  -21.2360   69.7410 C.3       9 GLL5        0.0000 
     41 CA         19.9010  -20.8070   70.3680 C.3       6 GLP5        0.0000 
     42 CA         14.2615  -20.1755   70.5435 C.3       3 GLC5        0.0000 
     43 CA         15.5000  -22.2750   67.2255 C.3       3 GLC5        0.0000 
     44 CA         15.2580  -20.7220   68.4640 C.3       9 GLL5        0.0000 
     45 CA         13.4925  -19.7775   69.1290 C.3       3 GLC5        0.0000 
     46 CA         11.7270  -18.8330   69.7940 C.3       6 GLP5        0.0000 
     47 CA         13.4270  -18.7495   68.3695 C.3       3 GLC5        0.0000 
     48 CA         15.1270  -18.6660   66.9450 C.3       9 GLL5        0.0000 
     49 CA         14.0485  -21.2435   64.9725 C.3       3 GLC5        0.0000 
     50 CA         14.7010  -19.4880   65.7250 C.3       9 GLL5        0.0000 
     51 CA         13.3960  -22.9990   64.2200 C.3       6 GLP5        0.0000 
     52 CA         12.0535  -17.7800   65.3710 C.3       3 GLC5        0.0000 
     53 CA         13.9920  -18.5510   64.7260 C.3       9 GLL5        0.0000 
     54 CA         10.1150  -17.0090   66.0160 C.3       6 GLP5        0.0000 
     55 CA         15.2315  -18.3670   61.3365 C.3       3 GLC5        0.0000 
     56 CA         13.6760  -19.4250   62.3780 C.3       9 GLL5        0.0000 
     57 CA         16.7870  -17.3090   60.2950 C.3       6 GLP5        0.0000 
     58 CA         15.0595  -20.9965   61.8060 C.3       3 GLC5        0.0000 
     59 CA         16.4430  -22.5680   61.2340 C.3       6 GLP5        0.0000 
     60 CA         11.0355  -20.4990   61.7960 C.3       3 GLC5        0.0000 
     61 CA         12.9990  -20.2300   61.3720 C.3       9 GLL5        0.0000 
     62 CA          9.0720  -20.7680   62.2200 C.3       6 GLP5        0.0000 
     63 CA         15.1210  -18.7965   60.2020 C.3       3 GLC5        0.0000 
     64 CA         13.4550  -20.2840   60.1090 C.3       9 GLL5        0.0000 
     65 CA         10.8020  -22.1420   56.5635 C.3       3 GLC5        0.0000 
     66 CA         12.9730  -21.5690   56.5360 C.3       9 GLL5        0.0000 
     67 CA          8.6310  -22.7150   56.5910 C.3       6 GLP5        0.0000 
     68 CA         13.3040  -23.4935   56.5820 C.3       3 GLC5        0.0000 
     69 CA         13.6350  -25.4180   56.6280 C.3       6 GLP5        0.0000 
     70 CA         13.6290  -21.8260   54.6050 C.3       3 GLC5        0.0000 
     71 CA         14.2850  -22.0830   52.6740 C.3       6 GLP5        0.0000 
     72 CA         16.3520  -17.8865   70.8970 C.3       3 GLC5        0.0000 
     73 CA         16.3700  -18.5360   69.1030 C.3       9 GLL5        0.0000 
     74 CA         16.3340  -17.2370   72.6910 C.3       6 GLP5        0.0000 
     75 CA         14.4985  -18.8255   70.2245 C.3       3 GLC5        0.0000 
     76 CA         12.7515  -17.8175   68.7030 C.3       3 GLC5        0.0000 
     77 CA         13.7760  -16.8020   67.6120 C.3       9 GLL5        0.0000 
     78 CA         12.2755  -16.2945   66.8320 C.3       3 GLC5        0.0000 
     79 CA         10.7750  -15.7870   66.0520 C.3       6 GLP5        0.0000 
     80 CA         14.5220  -15.0690   68.0600 C.3       3 GLC5        0.0000 
     81 CA         15.2680  -13.3360   68.5080 C.3       6 GLP5        0.0000 
     82 CA         17.1650  -21.0850   63.8755 C.3       3 GLC5        0.0000 
     83 CA         15.8870  -20.1780   65.0740 C.3       9 GLL5        0.0000 
     84 CA         18.4430  -21.9920   62.6770 C.3       6 GLP5        0.0000 
     85 CA         15.8145  -22.0030   65.5305 C.3       3 GLC5        0.0000 
     86 CA         14.6985  -14.5065   63.3765 C.3       3 GLC5        0.0000 
     87 CA         14.6070  -16.3440   64.0210 C.3       9 GLL5        0.0000 
     88 CA         14.7900  -12.6690   62.7320 C.3       6 GLP5        0.0000 
     89 CA         16.5330  -16.8085   64.8020 C.3       3 GLC5        0.0000 
     90 CA         18.4590  -17.2730   65.5830 C.3       6 GLP5        0.0000 
     91 CA         15.6970  -16.8265   62.1580 C.3       3 GLC5        0.0000 
     92 CA         12.6910  -16.0655   65.0365 C.3       3 GLC5        0.0000 
     93 CA         10.4045  -21.3525   60.7500 C.3       3 GLC5        0.0000 
     94 CA         11.7370  -21.9370   59.2800 C.3       9 GLL5        0.0000 
     95 CA          9.8160  -22.6830   59.0675 C.3       3 GLC5        0.0000 
     96 CA          7.8950  -23.4290   58.8550 C.3       6 GLP5        0.0000 
     97 N          12.7720  -25.8265   72.6105 N.am      2 SEC2        0.0000 
     98 N          13.6410  -25.1520   71.7570 N.am      8 SEL2        0.0000 
     99 N          11.9030  -26.5010   73.4640 N.am      5 SEP2        0.0000 
    100 O          19.8725  -25.2700   68.2380 O.2       1 ALC1        0.0000 
    101 O          18.5910  -24.9140   68.3730 O.2       7 ALL1        0.0000 
    102 O          21.1540  -25.6260   68.1030 O.2       4 ALP1        0.0000 
    103 CA         13.8203  -26.5115   69.9188 C.3       3 GLC5        0.0000 
    104 CA         15.6170  -25.4770   70.4820 C.3       9 GLL5        0.0000 
    105 CA         11.9890  -26.8400   69.2720 C.3       6 GLP5        0.0000 
    106 CA         16.8152  -28.0407   67.8407 C.3       3 GLC5        0.0000 
    107 CA         17.3419  -26.3027   71.6021 C.3       3 GLC5        0.0000 
    108 CA         18.5080  -25.6910   72.8850 C.3       6 GLP5        0.0000 
    109 CA         16.4417  -24.5290   67.6997 C.3       3 GLC5        0.0000 
    110 CA         16.6210  -24.8540   69.7130 C.3       9 GLL5        0.0000 
    111 CA         18.3117  -25.1475   70.6987 C.3       3 GLC5        0.0000 
    112 CA         19.4820  -25.0650   71.9850 C.3       6 GLP5        0.0000 
    113 CA         18.1145  -19.1945   68.4213 C.3       3 GLC5        0.0000 
    114 CA         15.9840  -19.4620   67.9600 C.3       9 GLL5        0.0000 
    115 CA         20.0520  -19.3900   68.3110 C.3       6 GLP5        0.0000 
    116 CA         16.8765  -18.5530   65.4912 C.3       3 GLC5        0.0000 
    117 CA         14.3370  -21.8515   60.7717 C.3       3 GLC5        0.0000 
    118 CA         15.4470  -23.4460   60.8030 C.3       6 GLP5        0.0000 
    119 CA         13.3210  -21.4064   63.2086 C.3       3 GLC5        0.0000 
    120 CA         14.9850  -22.0153   57.1088 C.3       3 GLC5        0.0000 
    121 CA         13.4210  -20.8900   57.7630 C.3       9 GLL5        0.0000 
    122 CA         16.7730  -22.8010   57.0680 C.3       6 GLP5        0.0000 
    123 CA         17.2109  -18.0365   66.9304 C.3       3 GLC5        0.0000 
    124 CA         13.9457  -22.4486   59.8167 C.3       3 GLC5        0.0000 
    125 CA         12.8830  -21.0410   58.9990 C.3       9 GLL5        0.0000 
@<TRIPOS>BOND
@<TRIPOS>SUBSTRUCTURE
     1 ALC1      100 GROUP        1 X    ALC  0     ROOT ALC X 1
     2 SEC2       97 GROUP        1 X    SEC  0     **** SEC X 2
     3 GLC5        1 GROUP        1 X    GLC  0     **** GLC X 6
     4 ALP1      102 GROUP        1 Y    ALP  0     ROOT ALP Y 8
     5 SEP2       99 GROUP        1 Y    SEP  0     **** SEP Y 9
     6 GLP5        3 GROUP        1 Y    GLP  0     **** GLP Y 13
     7 ALL1      101 GROUP        1 Z    ALL  0     ROOT ALL Z 15
     8 SEL2       98 GROUP        1 Z    SEL  0     **** SEL Z 16
     9 GLL5        2 GROUP        1 Z    GLL  0     **** GLL Z 20
@<TRIPOS>SET

