#    Name: 3cxh_SMA_1_ligand
#    Modification time : Mon Mar 24 22:28:37 2014

@<TRIPOS>MOLECULE
3cxh_SMA_1_ligand
   79    80     1     0     0
SMALL
NO_CHARGES


@<TRIPOS>ATOM
      1 C2         15.6630  -22.7000   70.0640 C.2       1 SMA4005     0.0000 
      2 C3         14.6410  -23.2200   70.8150 C.2       1 SMA4005     0.0000 
      3 C3M        13.5910  -22.3610   71.4000 C.3       1 SMA4005     0.0000 
      4 C4         14.5470  -24.6650   71.0790 C.2       1 SMA4005     0.0000 
      5 C4A        15.6170  -25.4770   70.4820 C.ar      1 SMA4005     0.0000 
      6 C5         15.6860  -26.8890   70.6490 C.ar      1 SMA4005     0.0000 
      7 C5M        15.0230  -28.6930   72.0440 C.3       1 SMA4005     0.0000 
      8 C6         16.7000  -27.6460   70.0730 C.ar      1 SMA4005     0.0000 
      9 C7         17.6790  -27.0190   69.3080 C.ar      1 SMA4005     0.0000 
     10 C7M        18.9520  -29.0500   69.1260 C.3       1 SMA4005     0.0000 
     11 C8         17.6620  -25.6060   69.1120 C.ar      1 SMA4005     0.0000 
     12 C8A        16.6210  -24.8540   69.7130 C.ar      1 SMA4005     0.0000 
     13 C9         15.8960  -21.2360   69.7410 C.3       1 SMA4005     0.0000 
     14 C10        15.2580  -20.7220   68.4640 C.3       1 SMA4005     0.0000 
     15 C11        15.9840  -19.4620   67.9600 C.3       1 SMA4005     0.0000 
     16 C12        15.1270  -18.6660   66.9450 C.3       1 SMA4005     0.0000 
     17 C13        14.7010  -19.4880   65.7250 C.3       1 SMA4005     0.0000 
     18 C14        13.9920  -18.5510   64.7260 C.3       1 SMA4005     0.0000 
     19 C15        13.3100  -19.3700   63.6670 C.2       1 SMA4005     0.0000 
     20 C16        13.6760  -19.4250   62.3780 C.2       1 SMA4005     0.0000 
     21 C17        12.9990  -20.2300   61.3720 C.2       1 SMA4005     0.0000 
     22 C18        13.4550  -20.2840   60.1090 C.2       1 SMA4005     0.0000 
     23 C19        12.8830  -21.0410   58.9990 C.2       1 SMA4005     0.0000 
     24 C20        13.4210  -20.8900   57.7630 C.2       1 SMA4005     0.0000 
     25 C21        12.9730  -21.5690   56.5360 C.3       1 SMA4005     0.0000 
     26 C22        16.3700  -18.5360   69.1030 C.3       1 SMA4005     0.0000 
     27 C23        13.7760  -16.8020   67.6120 C.3       1 SMA4005     0.0000 
     28 C24        15.8870  -20.1780   65.0740 C.3       1 SMA4005     0.0000 
     29 C25        14.6070  -16.3440   64.0210 C.3       1 SMA4005     0.0000 
     30 C26        11.7370  -21.9370   59.2800 C.3       1 SMA4005     0.0000 
     31 O1         16.6710  -23.4840   69.4920 O.3       1 SMA4005     0.0000 
     32 O4         13.6410  -25.1520   71.7570 O.2       1 SMA4005     0.0000 
     33 O5         14.7040  -27.4450   71.4110 O.3       1 SMA4005     0.0000 
     34 O7         18.7240  -27.6990   68.6960 O.3       1 SMA4005     0.0000 
     35 O8         18.5910  -24.9140   68.3730 O.3       1 SMA4005     0.0000 
     36 O12        13.9140  -18.2120   67.5730 O.3       1 SMA4005     0.0000 
     37 O14        15.0110  -17.6980   64.1960 O.3       1 SMA4005     0.0000 
     38 H          16.7270  -28.6624   70.2109 H         1 SMA4005     0.0000 
     39 H          16.9942  -21.0513   69.6914 H         1 SMA4005     0.0000 
     40 H          15.5327  -20.6192   70.5954 H         1 SMA4005     0.0000 
     41 H          14.2140  -20.4756   68.6488 H         1 SMA4005     0.0000 
     42 H          15.3096  -21.4890   67.6935 H         1 SMA4005     0.0000 
     43 H          16.8951  -19.7681   67.4477 H         1 SMA4005     0.0000 
     44 H          15.7025  -17.8205   66.5969 H         1 SMA4005     0.0000 
     45 H          13.9852  -20.2308   66.0480 H         1 SMA4005     0.0000 
     46 H          13.2642  -17.9918   65.2836 H         1 SMA4005     0.0000 
     47 H          12.4847  -19.9235   64.0290 H         1 SMA4005     0.0000 
     48 H          14.5000  -18.8670   62.0254 H         1 SMA4005     0.0000 
     49 H          12.1610  -20.7488   61.6813 H         1 SMA4005     0.0000 
     50 H          14.3346  -19.7239   59.8431 H         1 SMA4005     0.0000 
     51 H          14.2443  -20.2299   57.6210 H         1 SMA4005     0.0000 
     52 H          13.9728  -21.6843   72.0296 H         1 SMA4005     0.0000 
     53 H          13.0891  -21.8570   70.6971 H         1 SMA4005     0.0000 
     54 H          12.9192  -22.8939   71.9145 H         1 SMA4005     0.0000 
     55 H          15.2587  -29.3987   71.3759 H         1 SMA4005     0.0000 
     56 H          15.8016  -28.6059   72.6654 H         1 SMA4005     0.0000 
     57 H          14.2563  -29.0432   72.5821 H         1 SMA4005     0.0000 
     58 H          19.7175  -29.4706   68.6390 H         1 SMA4005     0.0000 
     59 H          19.1635  -29.0984   70.1022 H         1 SMA4005     0.0000 
     60 H          18.1519  -29.6293   68.9704 H         1 SMA4005     0.0000 
     61 H          13.5186  -21.2999   55.7423 H         1 SMA4005     0.0000 
     62 H          13.0419  -22.5634   56.6155 H         1 SMA4005     0.0000 
     63 H          12.0194  -21.3575   56.3215 H         1 SMA4005     0.0000 
     64 H          16.9787  -18.9862   69.7563 H         1 SMA4005     0.0000 
     65 H          16.8445  -17.7191   68.7751 H         1 SMA4005     0.0000 
     66 H          15.5695  -18.2243   69.6150 H         1 SMA4005     0.0000 
     67 H          14.5224  -16.3696   68.1180 H         1 SMA4005     0.0000 
     68 H          13.7742  -16.4035   66.6948 H         1 SMA4005     0.0000 
     69 H          12.9229  -16.5244   68.0539 H         1 SMA4005     0.0000 
     70 H          16.5723  -19.5210   64.7598 H         1 SMA4005     0.0000 
     71 H          16.3469  -20.8015   65.7062 H         1 SMA4005     0.0000 
     72 H          15.6119  -20.7176   64.2783 H         1 SMA4005     0.0000 
     73 H          15.3441  -15.7820   63.6457 H         1 SMA4005     0.0000 
     74 H          13.8311  -16.2659   63.3950 H         1 SMA4005     0.0000 
     75 H          14.3296  -15.9245   64.8853 H         1 SMA4005     0.0000 
     76 H          11.9719  -22.6416   59.9496 H         1 SMA4005     0.0000 
     77 H          10.9537  -21.4345   59.6459 H         1 SMA4005     0.0000 
     78 H          11.4236  -22.4088   58.4558 H         1 SMA4005     0.0000 
     79 H          19.4642  -25.0855   68.8291 H         1 SMA4005     0.0000 
@<TRIPOS>BOND
     1    2    1 2    
     2   13    1 1    
     3   31    1 1    
     4    3    2 1    
     5    4    2 1    
     6   52    3 1    
     7   53    3 1    
     8   54    3 1    
     9    5    4 1    
    10   32    4 2    
    11    6    5 ar   
    12   12    5 ar   
    13    8    6 ar   
    14   33    6 1    
    15   33    7 1    
    16   55    7 1    
    17   56    7 1    
    18   57    7 1    
    19    9    8 ar   
    20   38    8 1    
    21   11    9 ar   
    22   34    9 1    
    23   34   10 1    
    24   58   10 1    
    25   59   10 1    
    26   60   10 1    
    27   12   11 ar   
    28   35   11 1    
    29   31   12 1    
    30   14   13 1    
    31   39   13 1    
    32   40   13 1    
    33   15   14 1    
    34   41   14 1    
    35   42   14 1    
    36   16   15 1    
    37   26   15 1    
    38   43   15 1    
    39   17   16 1    
    40   36   16 1    
    41   44   16 1    
    42   18   17 1    
    43   28   17 1    
    44   45   17 1    
    45   19   18 1    
    46   37   18 1    
    47   46   18 1    
    48   20   19 2    
    49   47   19 1    
    50   21   20 1    
    51   48   20 1    
    52   22   21 2    
    53   49   21 1    
    54   23   22 1    
    55   50   22 1    
    56   24   23 2    
    57   30   23 1    
    58   25   24 1    
    59   51   24 1    
    60   61   25 1    
    61   62   25 1    
    62   63   25 1    
    63   64   26 1    
    64   65   26 1    
    65   66   26 1    
    66   36   27 1    
    67   67   27 1    
    68   68   27 1    
    69   69   27 1    
    70   70   28 1    
    71   71   28 1    
    72   72   28 1    
    73   37   29 1    
    74   73   29 1    
    75   74   29 1    
    76   75   29 1    
    77   76   30 1    
    78   77   30 1    
    79   78   30 1    
    80   79   35 1    
@<TRIPOS>SUBSTRUCTURE
     1 SMA4005     1 GROUP   
@<TRIPOS>SET

