#    Name: 3w18_N13_2_INTS_M
#    Modification time : Tue Mar 25 01:58:57 2014

@<TRIPOS>MOLECULE
3w18_N13_2_INTS_M
   67     0     9     0     0
SMALL
NO_CHARGES


@<TRIPOS>ATOM
      1 CA        -32.5580   13.0035   21.0615 C.3       3 GLC5        0.0000 
      2 CA        -31.0610   12.1940   19.6260 C.3       9 GLL5        0.0000 
      3 CA        -34.0550   13.8130   22.4970 C.3       6 GLP5        0.0000 
      4 CA        -30.5930   12.3335   21.6290 C.3       3 GLC5        0.0000 
      5 CA        -30.1250   12.4730   23.6320 C.3       6 GLP5        0.0000 
      6 CA        -30.0590   10.3970   18.8770 C.3       3 GLC5        0.0000 
      7 CA        -29.0570    8.6000   18.1280 C.3       6 GLP5        0.0000 
      8 CA        -33.0720   15.3245   18.8350 C.3       3 GLC5        0.0000 
      9 CA        -31.2150   14.9720   19.5420 C.3       9 GLL5        0.0000 
     10 CA        -34.9290   15.6770   18.1280 C.3       6 GLP5        0.0000 
     11 CA        -32.6350   14.3925   21.0195 C.3       3 GLC5        0.0000 
     12 CA        -24.3480   12.0930   19.7565 C.3       3 GLC5        0.0000 
     13 CA        -25.2390   13.7220   20.6080 C.3       9 GLL5        0.0000 
     14 CA        -23.4570   10.4640   18.9050 C.3       6 GLP5        0.0000 
     15 CA        -24.2625   14.9250   21.6165 C.3       3 GLC5        0.0000 
     16 CA        -23.2860   16.1280   22.6250 C.3       6 GLP5        0.0000 
     17 CA        -24.9895   14.3230   22.3675 C.3       3 GLC5        0.0000 
     18 CA        -25.4520   12.4510   21.3280 C.3       9 GLL5        0.0000 
     19 CA        -24.5270   16.1950   23.4070 C.3       6 GLP5        0.0000 
     20 CA        -24.3085   11.0495   24.2405 C.3       3 GLC5        0.0000 
     21 CA        -25.1570    9.6620   23.1850 C.3       9 GLL5        0.0000 
     22 CA        -23.4600   12.4370   25.2960 C.3       6 GLP5        0.0000 
     23 CA        -28.2095    8.7215   23.3890 C.3       3 GLC5        0.0000 
     24 CA        -26.2210    9.0570   23.8870 C.3       9 GLL5        0.0000 
     25 CA        -30.1980    8.3860   22.8910 C.3       6 GLP5        0.0000 
     26 CA        -21.8105    9.7355   23.0300 C.3       3 GLC5        0.0000 
     27 CA        -23.8770    9.1000   23.2700 C.3       9 GLL5        0.0000 
     28 CA        -19.7440   10.3710   22.7900 C.3       6 GLP5        0.0000 
     29 CA        -24.1255    6.2770   23.0285 C.3       3 GLC5        0.0000 
     30 CA        -23.7410    7.9610   24.0720 C.3       9 GLL5        0.0000 
     31 CA        -24.5100    4.5930   21.9850 C.3       6 GLP5        0.0000 
     32 O         -28.2395    7.5165   25.7890 O.2       1 ALC1        0.0000 
     33 O         -26.8800    7.2380   25.3470 O.2       7 ALL1        0.0000 
     34 O         -29.5990    7.7950   26.2310 O.2       4 ALP1        0.0000 
     35 N         -27.1295    5.1815   26.3810 N.am      2 SEC2        0.0000 
     36 N         -26.1630    6.1540   25.9070 N.am      8 SEL2        0.0000 
     37 N         -28.0960    4.2090   26.8550 N.am      5 SEP2        0.0000 
     38 CA        -23.2070    5.4765   27.9505 C.3       3 GLC5        0.0000 
     39 CA        -22.8650    3.7870   26.7840 C.3       9 GLL5        0.0000 
     40 CA        -23.5490    7.1660   29.1170 C.3       6 GLP5        0.0000 
     41 CA        -22.1495    4.2970   28.8895 C.3       3 GLC5        0.0000 
     42 CA        -22.5020    2.6590   27.4210 C.3       9 GLL5        0.0000 
     43 CA        -21.7970    5.9350   30.3580 C.3       6 GLP5        0.0000 
     44 CA        -29.9605   13.1750   21.7775 C.3       3 GLC5        0.0000 
     45 CA        -29.1310   13.9600   20.1010 C.3       9 GLL5        0.0000 
     46 CA        -28.5855   16.8462   21.6988 C.3       3 GLC5        0.0000 
     47 CA        -28.5190   15.2030   20.2350 C.3       9 GLL5        0.0000 
     48 CA        -28.2900   17.8970   23.2560 C.3       6 GLP5        0.0000 
     49 CA        -23.1445   12.2923   20.8332 C.3       3 GLC5        0.0000 
     50 CA        -21.2560   12.4960   19.9820 C.3       6 GLP5        0.0000 
     51 CA        -24.2465   12.2628   23.4902 C.3       3 GLC5        0.0000 
     52 CA        -24.6140   11.7260   22.0410 C.3       9 GLL5        0.0000 
     53 CA        -25.7170    7.5789   22.6400 C.3       3 GLC5        0.0000 
     54 CA        -26.6510    5.9280   21.8770 C.3       6 GLP5        0.0000 
     55 CA        -26.0275    6.8133   23.2760 C.3       3 GLC5        0.0000 
     56 CA        -24.7920    7.4270   24.7250 C.3       9 GLL5        0.0000 
     57 CA        -22.7747    2.1030   25.8173 C.3       3 GLC5        0.0000 
     58 CA        -22.8660    0.9830   24.5320 C.3       6 GLP5        0.0000 
     59 CA        -21.7717    1.8342   25.8923 C.3       3 GLC5        0.0000 
     60 CA        -21.1690    2.2720   27.5480 C.3       9 GLL5        0.0000 
     61 CA        -21.1905    5.9633   27.4010 C.3       3 GLC5        0.0000 
     62 CA        -20.6250    4.2630   26.3080 C.3       9 GLL5        0.0000 
     63 CA        -21.0940    7.4990   28.5260 C.3       6 GLP5        0.0000 
     64 CA        -22.0765    2.7052   25.4040 C.3       3 GLC5        0.0000 
     65 CA        -21.9490    4.5920   26.2440 C.3       9 GLL5        0.0000 
     66 CA        -24.0781    9.3197   25.4104 C.3       3 GLC5        0.0000 
     67 CA        -23.5240   10.3890   26.7400 C.3       6 GLP5        0.0000 
@<TRIPOS>BOND
@<TRIPOS>SUBSTRUCTURE
     1 ALC1       32 GROUP        1 X    ALC  0     ROOT ALC X 1
     2 SEC2       35 GROUP        1 X    SEC  0     **** SEC X 2
     3 GLC5        1 GROUP        1 X    GLC  0     **** GLC X 6
     4 ALP1       34 GROUP        1 Y    ALP  0     ROOT ALP Y 8
     5 SEP2       37 GROUP        1 Y    SEP  0     **** SEP Y 9
     6 GLP5        3 GROUP        1 Y    GLP  0     **** GLP Y 13
     7 ALL1       33 GROUP        1 Z    ALL  0     ROOT ALL Z 15
     8 SEL2       36 GROUP        1 Z    SEL  0     **** SEL Z 16
     9 GLL5        2 GROUP        1 Z    GLL  0     **** GLL Z 20
@<TRIPOS>SET

