#    Name: 3w18_N13_2_ligand
#    Modification time : Tue Mar 25 01:58:57 2014

@<TRIPOS>MOLECULE
3w18_N13_2_ligand
   52    57     1     0     0
SMALL
NO_CHARGES


@<TRIPOS>ATOM
      1 CA        -26.6650   14.0070   20.1930 C.2       1 N13501      0.0000 
      2 C29       -29.1310   13.9600   20.1010 C.ar      1 N13501      0.0000 
      3 C30       -30.4610   13.7940   19.7450 C.ar      1 N13501      0.0000 
      4 FA        -31.0610   12.1940   19.6260 F         1 N13501      0.0000 
      5 C31       -31.2150   14.9720   19.5420 C.ar      1 N13501      0.0000 
      6 C32       -30.5990   16.2550   19.7010 C.ar      1 N13501      0.0000 
      7 C33       -29.2430   16.3880   20.0480 C.ar      1 N13501      0.0000 
      8 C28       -28.5190   15.2030   20.2350 C.ar      1 N13501      0.0000 
      9 NB        -27.2370   15.1480   20.5720 N.am      1 N13501      0.0000 
     10 OB        -27.2490   13.1410   19.5620 O.2       1 N13501      0.0000 
     11 C26       -25.2390   13.7220   20.6080 C.3       1 N13501      0.0000 
     12 C21       -25.4520   12.4510   21.3280 C.2       1 N13501      0.0000 
     13 C25       -24.6140   11.7260   22.0410 C.2       1 N13501      0.0000 
     14 N22       -26.6520   11.9250   21.2930 N.pl3     1 N13501      0.0000 
     15 N23       -26.6510   10.9290   21.9050 N.2       1 N13501      0.0000 
     16 C24       -25.4230   10.7360   22.4360 C.2       1 N13501      0.0000 
     17 C16       -25.1570    9.6620   23.1850 C.ar      1 N13501      0.0000 
     18 C17       -26.2210    9.0570   23.8870 C.ar      1 N13501      0.0000 
     19 C15       -23.8770    9.1000   23.2700 C.ar      1 N13501      0.0000 
     20 C14       -23.7410    7.9610   24.0720 C.ar      1 N13501      0.0000 
     21 C18       -24.7920    7.4270   24.7250 C.ar      1 N13501      0.0000 
     22 C19       -26.0160    7.9700   24.6250 C.ar      1 N13501      0.0000 
     23 N11       -26.8800    7.2380   25.3470 N.pl3     1 N13501      0.0000 
     24 N12       -26.1630    6.1540   25.9070 N.2       1 N13501      0.0000 
     25 C13       -24.8940    6.3150   25.5020 C.2       1 N13501      0.0000 
     26 C02       -23.8970    5.4800   25.8860 C.2       1 N13501      0.0000 
     27 N03       -24.0680    4.3400   26.5560 N.2       1 N13501      0.0000 
     28 C08       -22.8650    3.7870   26.7840 C.ar      1 N13501      0.0000 
     29 C04       -22.5020    2.6590   27.4210 C.ar      1 N13501      0.0000 
     30 C05       -21.1690    2.2720   27.5480 C.ar      1 N13501      0.0000 
     31 C06       -20.1860    3.0990   26.9570 C.ar      1 N13501      0.0000 
     32 C07       -20.6250    4.2630   26.3080 C.ar      1 N13501      0.0000 
     33 C09       -21.9490    4.5920   26.2440 C.ar      1 N13501      0.0000 
     34 N01       -22.6030    5.6630   25.7020 N.pl3     1 N13501      0.0000 
     35 H         -28.5499   13.0991   20.2804 H         1 N13501      0.0000 
     36 H         -32.1980   14.9172   19.2822 H         1 N13501      0.0000 
     37 H         -31.1754   17.0982   19.5545 H         1 N13501      0.0000 
     38 H         -28.8169   17.2881   20.1559 H         1 N13501      0.0000 
     39 H         -26.7547   15.8765   21.0540 H         1 N13501      0.0000 
     40 H         -24.9032   14.4753   21.2596 H         1 N13501      0.0000 
     41 H         -24.6441   13.5786   19.7534 H         1 N13501      0.0000 
     42 H         -23.7157   11.8535   22.2253 H         1 N13501      0.0000 
     43 H         -27.4079   12.3777   20.7894 H         1 N13501      0.0000 
     44 H         -27.1619    9.4930   23.8033 H         1 N13501      0.0000 
     45 H         -23.0965    9.4946   22.7802 H         1 N13501      0.0000 
     46 H         -22.7916    7.5305   24.1520 H         1 N13501      0.0000 
     47 H         -27.8088    7.3851   25.4831 H         1 N13501      0.0000 
     48 H         -23.2335    2.0340   27.8446 H         1 N13501      0.0000 
     49 H         -20.9054    1.4342   28.0416 H         1 N13501      0.0000 
     50 H         -19.2121    2.8580   27.0028 H         1 N13501      0.0000 
     51 H         -19.9105    4.8814   25.8689 H         1 N13501      0.0000 
     52 H         -22.1699    6.4070   25.2678 H         1 N13501      0.0000 
@<TRIPOS>BOND
     1    9    1 am   
     2   10    1 2    
     3   11    1 1    
     4    3    2 ar   
     5    8    2 ar   
     6   35    2 1    
     7    4    3 1    
     8    5    3 ar   
     9    6    5 ar   
    10   36    5 1    
    11    7    6 ar   
    12   37    6 1    
    13    8    7 ar   
    14   38    7 1    
    15    9    8 1    
    16   39    9 1    
    17   12   11 1    
    18   40   11 1    
    19   41   11 1    
    20   13   12 2    
    21   14   12 1    
    22   16   13 1    
    23   42   13 1    
    24   15   14 1    
    25   43   14 1    
    26   16   15 2    
    27   17   16 1    
    28   18   17 ar   
    29   19   17 ar   
    30   22   18 ar   
    31   44   18 1    
    32   20   19 ar   
    33   45   19 1    
    34   21   20 ar   
    35   46   20 1    
    36   22   21 ar   
    37   25   21 1    
    38   23   22 1    
    39   24   23 1    
    40   47   23 1    
    41   25   24 2    
    42   26   25 1    
    43   27   26 2    
    44   34   26 1    
    45   28   27 1    
    46   29   28 ar   
    47   33   28 ar   
    48   30   29 ar   
    49   48   29 1    
    50   31   30 ar   
    51   49   30 1    
    52   32   31 ar   
    53   50   31 1    
    54   33   32 ar   
    55   51   32 1    
    56   34   33 1    
    57   52   34 1    
@<TRIPOS>SUBSTRUCTURE
     1 N13501      1 GROUP   
@<TRIPOS>SET

