#    Name: 4lrr_CF9_1_INTS_M
#    Modification time : Tue Mar 25 11:27:07 2014

@<TRIPOS>MOLECULE
4lrr_CF9_1_INTS_M
   30     0     6     0     0
SMALL
NO_CHARGES


@<TRIPOS>ATOM
      1 N           8.2710   12.4620  -41.2630 N.am      1 SEC2        0.0000 
      2 N           7.5230   13.3000  -39.9420 N.am      5 SEL2        0.0000 
      3 N           9.0190   11.6240  -42.5840 N.am      3 SEP2        0.0000 
      4 N           7.3820   13.4050  -38.5070 N.am      1 SEC2        0.0000 
      5 N           7.2410   13.5100  -37.0720 N.am      3 SEP2        0.0000 
      6 CA          7.3475   14.2410  -42.7555 C.3       2 GLC5        0.0000 
      7 CA          5.7750   14.7820  -41.7030 C.3       6 GLL5        0.0000 
      8 CA          8.9200   13.7000  -43.8080 C.3       4 GLP5        0.0000 
      9 CA          1.5455   13.1735  -36.7285 C.3       2 GLC5        0.0000 
     10 CA          0.8250   14.4110  -38.3270 C.3       6 GLL5        0.0000 
     11 CA          2.2660   11.9360  -35.1300 C.3       4 GLP5        0.0000 
     12 N           1.1425   13.6355  -35.7905 N.am      1 SEC2        0.0000 
     13 N           0.8290   14.3170  -36.9120 N.am      5 SEL2        0.0000 
     14 N           1.4560   12.9540  -34.6690 N.am      3 SEP2        0.0000 
     15 N           1.3040   14.4270  -34.9780 N.am      1 SEC2        0.0000 
     16 N           1.1520   15.9000  -35.2870 N.am      5 SEL2        0.0000 
     17 CA          7.0505   15.1408  -40.5305 C.3       2 GLC5        0.0000 
     18 CA          5.4270   13.7290  -40.8610 C.3       6 GLL5        0.0000 
     19 CA          8.5000   16.0260  -39.7790 C.3       4 GLP5        0.0000 
     20 CA          2.7628   12.2542  -40.9325 C.3       2 GLC5        0.0000 
     21 CA          4.1020   13.4080  -40.5970 C.3       6 GLL5        0.0000 
     22 CA          1.9230   10.7460  -40.9460 C.3       4 GLP5        0.0000 
     23 CA          1.2645   19.8645  -37.4638 C.3       2 GLC5        0.0000 
     24 CA          1.5340   18.3720  -38.9750 C.3       6 GLL5        0.0000 
     25 CA          1.0290   21.6180  -36.5990 C.3       4 GLP5        0.0000 
     26 CA          1.2942   12.2152  -40.4467 C.3       2 GLC5        0.0000 
     27 CA          0.6290   13.4560  -39.2890 C.3       6 GLL5        0.0000 
     28 CA         -0.6182   13.8484  -41.2018 C.3       2 GLC5        0.0000 
     29 CA          0.7020   13.9130  -40.6060 C.3       6 GLL5        0.0000 
     30 CA         -1.9600   13.6760  -42.3750 C.3       4 GLP5        0.0000 
@<TRIPOS>BOND
@<TRIPOS>SUBSTRUCTURE
     1 SEC2        1 GROUP        1 X    SEC  0     ROOT SEC X 2
     2 GLC5        6 GROUP        1 X    GLC  0     **** GLC X 6
     3 SEP2        3 GROUP        1 Y    SEP  0     ROOT SEP Y 9
     4 GLP5        8 GROUP        1 Y    GLP  0     **** GLP Y 13
     5 SEL2        2 GROUP        1 Z    SEL  0     ROOT SEL Z 16
     6 GLL5        7 GROUP        1 Z    GLL  0     **** GLL Z 20
@<TRIPOS>SET

