#    Name: 4lrr_CF9_1_ligand
#    Modification time : Tue Mar 25 11:27:07 2014

@<TRIPOS>MOLECULE
4lrr_CF9_1_ligand
   34    37     1     0     0
SMALL
NO_CHARGES


@<TRIPOS>ATOM
      1 O50         6.1310   11.6720  -40.2010 O.2       1 CF9309      0.0000 
      2 N48         6.4150   12.8770  -40.3100 N.pl3     1 CF9309      0.0000 
      3 O52         7.5230   13.3000  -39.9420 O.2       1 CF9309      0.0000 
      4 C41         5.4270   13.7290  -40.8610 C.ar      1 CF9309      0.0000 
      5 C39         4.1020   13.4080  -40.5970 C.ar      1 CF9309      0.0000 
      6 C37         3.1030   14.1170  -41.2410 C.ar      1 CF9309      0.0000 
      7 C43         5.7750   14.7820  -41.7030 C.ar      1 CF9309      0.0000 
      8 C45         4.7790   15.4950  -42.3450 C.ar      1 CF9309      0.0000 
      9 C35         3.4540   15.1500  -42.1010 C.ar      1 CF9309      0.0000 
     10 C31         2.3500   15.8830  -42.7640 C.2       1 CF9309      0.0000 
     11 O33         2.5830   16.6240  -43.7040 O.2       1 CF9309      0.0000 
     12 O29         1.0100   15.6610  -42.2350 O.3       1 CF9309      0.0000 
     13 C13         0.9340   15.2580  -40.9300 C.ar      1 CF9309      0.0000 
     14 C3          1.1240   16.1900  -39.9240 C.ar      1 CF9309      0.0000 
     15 C4          1.3670   17.5510  -40.0960 C.ar      1 CF9309      0.0000 
     16 C5          1.5340   18.3720  -38.9750 C.ar      1 CF9309      0.0000 
     17 C6          1.4660   17.8500  -37.6820 C.ar      1 CF9309      0.0000 
     18 C1          1.2230   16.4810  -37.5380 C.ar      1 CF9309      0.0000 
     19 C14         0.7020   13.9130  -40.6060 C.ar      1 CF9309      0.0000 
     20 C15         0.6290   13.4560  -39.2890 C.ar      1 CF9309      0.0000 
     21 C16         0.8250   14.4110  -38.3270 C.ar      1 CF9309      0.0000 
     22 C2          1.0610   15.7130  -38.6570 C.ar      1 CF9309      0.0000 
     23 O24         0.8290   14.3170  -36.9120 O.3       1 CF9309      0.0000 
     24 C22         1.0720   15.5990  -36.4620 C.2       1 CF9309      0.0000 
     25 O27         1.1520   15.9000  -35.2870 O.2       1 CF9309      0.0000 
     26 H           3.8710   12.6617  -39.9390 H         1 CF9309      0.0000 
     27 H           2.1181   13.8852  -41.0873 H         1 CF9309      0.0000 
     28 H           6.7613   15.0231  -41.8428 H         1 CF9309      0.0000 
     29 H           5.0069   16.2562  -42.9828 H         1 CF9309      0.0000 
     30 H           1.4236   17.9514  -41.0368 H         1 CF9309      0.0000 
     31 H           1.7106   19.3818  -39.1082 H         1 CF9309      0.0000 
     32 H           1.5889   18.4447  -36.8719 H         1 CF9309      0.0000 
     33 H           0.5792   13.2273  -41.3844 H         1 CF9309      0.0000 
     34 H           0.4461   12.4977  -39.0768 H         1 CF9309      0.0000 
@<TRIPOS>BOND
     1    2    1 2    
     2    3    2 2    
     3    4    2 1    
     4    5    4 ar   
     5    7    4 ar   
     6    6    5 ar   
     7   26    5 1    
     8    9    6 ar   
     9   27    6 1    
    10    8    7 ar   
    11   28    7 1    
    12    9    8 ar   
    13   29    8 1    
    14   10    9 1    
    15   11   10 2    
    16   12   10 1    
    17   13   12 1    
    18   14   13 ar   
    19   19   13 ar   
    20   15   14 ar   
    21   22   14 ar   
    22   16   15 ar   
    23   30   15 1    
    24   17   16 ar   
    25   31   16 1    
    26   18   17 ar   
    27   32   17 1    
    28   22   18 ar   
    29   24   18 1    
    30   20   19 ar   
    31   33   19 1    
    32   21   20 ar   
    33   34   20 1    
    34   22   21 ar   
    35   23   21 1    
    36   24   23 1    
    37   25   24 2    
@<TRIPOS>SUBSTRUCTURE
     1 CF9309      1 GROUP   
@<TRIPOS>SET

