#    Name: 3klp_B81_1_INTS_M
#    Modification time : Mon Mar 24 19:47:01 2014

@<TRIPOS>MOLECULE
3klp_B81_1_INTS_M
   56     0     3     0     0
SMALL
NO_CHARGES


@<TRIPOS>ATOM
      1 CA         19.7195  -16.9260  -39.4145 C.3       1 GLC5        0.0000 
      2 CA         18.1080  -18.2560  -39.4770 C.3       3 GLL5        0.0000 
      3 CA         21.3310  -15.5960  -39.3520 C.3       2 GLP5        0.0000 
      4 CA         17.8725  -14.3315  -38.3555 C.3       1 GLC5        0.0000 
      5 CA         16.4280  -15.0750  -39.8910 C.3       3 GLL5        0.0000 
      6 CA         19.3170  -13.5880  -36.8200 C.3       2 GLP5        0.0000 
      7 CA         17.0185  -12.2925  -40.5725 C.3       1 GLC5        0.0000 
      8 CA         16.1990  -13.9810  -40.7400 C.3       3 GLL5        0.0000 
      9 CA         17.8380  -10.6040  -40.4050 C.3       2 GLP5        0.0000 
     10 CA         13.5620  -14.5140  -41.3665 C.3       1 GLC5        0.0000 
     11 CA         15.5000  -14.4260  -42.0440 C.3       3 GLL5        0.0000 
     12 CA         11.6240  -14.6020  -40.6890 C.3       2 GLP5        0.0000 
     13 CA         14.4375  -17.2305  -45.1670 C.3       1 GLC5        0.0000 
     14 CA         15.6920  -15.9820  -44.1240 C.3       3 GLL5        0.0000 
     15 CA         13.1830  -18.4790  -46.2100 C.3       2 GLP5        0.0000 
     16 CA         13.9165  -16.0395  -45.7680 C.3       1 GLC5        0.0000 
     17 CA         15.4280  -14.7190  -44.9970 C.3       3 GLL5        0.0000 
     18 CA         12.4050  -17.3600  -46.5390 C.3       2 GLP5        0.0000 
     19 CA         17.1185  -12.4875  -43.7730 C.3       1 GLC5        0.0000 
     20 CA         15.2280  -13.2190  -43.0330 C.3       3 GLL5        0.0000 
     21 CA         19.0090  -11.7560  -44.5130 C.3       2 GLP5        0.0000 
     22 CA         13.0390  -13.2595  -41.6280 C.3       1 GLC5        0.0000 
     23 CA         14.4540  -11.9170  -42.5670 C.3       3 GLL5        0.0000 
     24 CA         14.5745  -12.1015  -46.8740 C.3       1 GLC5        0.0000 
     25 CA         14.5330  -12.2130  -45.0210 C.3       3 GLL5        0.0000 
     26 CA         14.6160  -11.9900  -48.7270 C.3       2 GLP5        0.0000 
     27 CA         16.2855  -11.7650  -45.8825 C.3       1 GLC5        0.0000 
     28 CA         18.0380  -11.3170  -46.7440 C.3       2 GLP5        0.0000 
     29 CA         12.6365  -12.3550  -46.2205 C.3       1 GLC5        0.0000 
     30 CA         10.7400  -12.4970  -47.4200 C.3       2 GLP5        0.0000 
     31 CA         12.3395  -14.3870  -42.4605 C.3       1 GLC5        0.0000 
     32 CA         13.0550  -14.1720  -44.2320 C.3       3 GLL5        0.0000 
     33 CA         12.7300  -15.7660  -45.3855 C.3       1 GLC5        0.0000 
     34 CA         11.8975  -13.3345  -45.8260 C.3       1 GLC5        0.0000 
     35 CA         19.7590  -16.6280  -41.1600 C.3       1 GLC5        0.0000 
     36 CA         17.9870  -17.4190  -42.0100 C.3       3 GLL5        0.0000 
     37 CA         21.3390  -15.2720  -40.8210 C.3       2 GLP5        0.0000 
     38 CA         15.2888  -13.5535  -38.7873 C.3       1 GLC5        0.0000 
     39 CA         14.2640  -12.5790  -37.2590 C.3       2 GLP5        0.0000 
     40 CA         14.5466  -16.3663  -39.8116 C.3       1 GLC5        0.0000 
     41 CA         12.5200  -16.7350  -39.8250 C.3       2 GLP5        0.0000 
     42 CA         18.2093  -14.0030  -40.0277 C.3       1 GLC5        0.0000 
     43 CA         20.1050  -13.4780  -39.7400 C.3       2 GLP5        0.0000 
     44 CA         14.2895  -17.0877  -40.8185 C.3       1 GLC5        0.0000 
     45 CA         16.5770  -16.8540  -41.7610 C.3       3 GLL5        0.0000 
     46 CA         16.0850  -15.9232  -45.9168 C.3       1 GLC5        0.0000 
     47 CA         16.6100  -16.4960  -47.2730 C.3       2 GLP5        0.0000 
     48 CA         12.5665  -11.8675  -43.7967 C.3       1 GLC5        0.0000 
     49 CA         10.7560  -12.2110  -44.3600 C.3       2 GLP5        0.0000 
     50 CA         15.5798  -10.9277  -42.0665 C.3       1 GLC5        0.0000 
     51 CA         14.3000  -11.1310  -43.9000 C.3       3 GLL5        0.0000 
     52 CA         16.5890  -10.0060  -40.7830 C.3       2 GLP5        0.0000 
     53 CA         13.2752  -10.2575  -45.4072 C.3       1 GLC5        0.0000 
     54 CA         12.1340   -8.8430  -46.3540 C.3       2 GLP5        0.0000 
     55 CA         12.2721  -12.8793  -44.4089 C.3       1 GLC5        0.0000 
     56 CA         14.5100  -13.6330  -44.3460 C.3       3 GLL5        0.0000 
@<TRIPOS>BOND
@<TRIPOS>SUBSTRUCTURE
     1 GLC5        1 GROUP        1 X    GLC  0     ROOT GLC X 6
     2 GLP5        3 GROUP        1 Y    GLP  0     ROOT GLP Y 13
     3 GLL5        2 GROUP        1 Z    GLL  0     ROOT GLL Z 20
@<TRIPOS>SET

