#    Name: 3klp_B81_1_ligand
#    Modification time : Mon Mar 24 19:47:01 2014

@<TRIPOS>MOLECULE
3klp_B81_1_ligand
   51    54     1     0     0
SMALL
NO_CHARGES


@<TRIPOS>ATOM
      1 C1         17.9870  -17.4190  -42.0100 C.3       1 B81328      0.0000 
      2 C2         18.3710  -18.5490  -40.9880 C.3       1 B81328      0.0000 
      3 C3         18.1080  -18.2560  -39.4770 C.3       1 B81328      0.0000 
      4 O3         17.9540  -19.5080  -38.8640 O.3       1 B81328      0.0000 
      5 C4         16.8340  -17.4330  -39.1540 C.3       1 B81328      0.0000 
      6 C5         16.6030  -16.4070  -40.2570 C.2       1 B81328      0.0000 
      7 C6         16.4280  -15.0750  -39.8910 C.2       1 B81328      0.0000 
      8 C7         16.1990  -13.9810  -40.7400 C.3       1 B81328      0.0000 
      9 C8         15.5000  -14.4260  -42.0440 C.3       1 B81328      0.0000 
     10 C9         16.2860  -15.6220  -42.7350 C.3       1 B81328      0.0000 
     11 C10        16.5770  -16.8540  -41.7610 C.3       1 B81328      0.0000 
     12 C11        15.6920  -15.9820  -44.1240 C.3       1 B81328      0.0000 
     13 C12        15.4280  -14.7190  -44.9970 C.3       1 B81328      0.0000 
     14 C13        14.5100  -13.6330  -44.3460 C.3       1 B81328      0.0000 
     15 C14        15.2280  -13.2190  -43.0330 C.3       1 B81328      0.0000 
     16 C15        14.4540  -11.9170  -42.5670 C.3       1 B81328      0.0000 
     17 C16        14.3000  -11.1310  -43.9000 C.3       1 B81328      0.0000 
     18 C17        14.5330  -12.2130  -45.0210 C.3       1 B81328      0.0000 
     19 O17        13.5430  -12.0730  -46.0360 O.3       1 B81328      0.0000 
     20 C18        13.0550  -14.1720  -44.2320 C.3       1 B81328      0.0000 
     21 C19        15.5410  -18.0270  -41.8630 C.3       1 B81328      0.0000 
     22 H          18.0398  -17.8361  -43.0157 H         1 B81328      0.0000 
     23 H          18.7208  -16.6175  -41.9243 H         1 B81328      0.0000 
     24 H          19.4464  -18.7804  -41.1188 H         1 B81328      0.0000 
     25 H          17.8203  -19.4684  -41.2684 H         1 B81328      0.0000 
     26 H          18.9642  -17.7411  -39.0805 H         1 B81328      0.0000 
     27 H          16.9752  -16.9298  -38.2084 H         1 B81328      0.0000 
     28 H          15.9906  -18.1057  -39.0960 H         1 B81328      0.0000 
     29 H          16.4728  -14.8545  -38.8360 H         1 B81328      0.0000 
     30 H          17.1332  -13.4740  -41.0359 H         1 B81328      0.0000 
     31 H          15.5530  -13.2158  -40.2769 H         1 B81328      0.0000 
     32 H          14.5078  -14.8343  -41.7623 H         1 B81328      0.0000 
     33 H          17.3222  -15.1770  -42.9560 H         1 B81328      0.0000 
     34 H          14.7522  -16.5126  -43.9810 H         1 B81328      0.0000 
     35 H          16.3887  -16.6327  -44.6497 H         1 B81328      0.0000 
     36 H          14.9700  -15.0373  -45.9473 H         1 B81328      0.0000 
     37 H          16.3955  -14.2536  -45.2445 H         1 B81328      0.0000 
     38 H          16.2370  -12.8401  -43.3915 H         1 B81328      0.0000 
     39 H          15.0605  -11.3831  -41.9045 H         1 B81328      0.0000 
     40 H          13.5142  -12.1949  -42.2045 H         1 B81328      0.0000 
     41 H          15.0527  -10.3963  -43.9706 H         1 B81328      0.0000 
     42 H          13.3179  -10.7571  -43.9829 H         1 B81328      0.0000 
     43 H          15.5340  -12.0530  -45.3962 H         1 B81328      0.0000 
     44 H          13.0080  -14.9984  -43.6709 H         1 B81328      0.0000 
     45 H          12.4416  -13.5003  -43.8165 H         1 B81328      0.0000 
     46 H          12.6734  -14.4032  -45.1269 H         1 B81328      0.0000 
     47 H          15.5607  -18.4627  -42.7629 H         1 B81328      0.0000 
     48 H          15.7215  -18.7417  -41.1873 H         1 B81328      0.0000 
     49 H          14.6048  -17.7099  -41.7113 H         1 B81328      0.0000 
     50 H          17.3381  -19.3447  -38.0933 H         1 B81328      0.0000 
     51 H          13.5685  -11.1063  -46.2907 H         1 B81328      0.0000 
@<TRIPOS>BOND
     1    2    1 1    
     2   11    1 1    
     3   22    1 1    
     4   23    1 1    
     5    3    2 1    
     6   24    2 1    
     7   25    2 1    
     8    4    3 1    
     9    5    3 1    
    10   26    3 1    
    11   50    4 1    
    12    6    5 1    
    13   27    5 1    
    14   28    5 1    
    15    7    6 2    
    16   11    6 1    
    17    8    7 1    
    18   29    7 1    
    19    9    8 1    
    20   30    8 1    
    21   31    8 1    
    22   10    9 1    
    23   15    9 1    
    24   32    9 1    
    25   11   10 1    
    26   12   10 1    
    27   33   10 1    
    28   21   11 1    
    29   13   12 1    
    30   34   12 1    
    31   35   12 1    
    32   14   13 1    
    33   36   13 1    
    34   37   13 1    
    35   15   14 1    
    36   18   14 1    
    37   20   14 1    
    38   16   15 1    
    39   38   15 1    
    40   17   16 1    
    41   39   16 1    
    42   40   16 1    
    43   18   17 1    
    44   41   17 1    
    45   42   17 1    
    46   19   18 1    
    47   43   18 1    
    48   51   19 1    
    49   44   20 1    
    50   45   20 1    
    51   46   20 1    
    52   47   21 1    
    53   48   21 1    
    54   49   21 1    
@<TRIPOS>SUBSTRUCTURE
     1 B81328      1 GROUP   
@<TRIPOS>SET

