#    Name: 3r96_AMP_4_INTS_M
#    Modification time : Tue Mar 25 11:16:26 2014

@<TRIPOS>MOLECULE
3r96_AMP_4_INTS_M
   38     0     9     0     0
SMALL
NO_CHARGES


@<TRIPOS>ATOM
      1 N          30.2735   14.8125  -20.0900 N.am      2 SEC2        0.0000 
      2 N          30.2540   15.2400  -18.7490 N.am      8 SEL2        0.0000 
      3 N          30.2930   14.3850  -21.4310 N.am      5 SEP2        0.0000 
      4 CA         34.7140   14.4515  -21.1985 C.3       3 GLC5        0.0000 
      5 CA         34.2520   15.8560  -20.1070 C.3       9 GLL5        0.0000 
      6 CA         35.1760   13.0470  -22.2900 C.3       6 GLP5        0.0000 
      7 CA         36.1285   18.9065  -20.5935 C.3       3 GLC5        0.0000 
      8 CA         34.7710   17.2680  -20.3460 C.3       9 GLL5        0.0000 
      9 CA         37.4860   20.5450  -20.8410 C.3       6 GLP5        0.0000 
     10 O          36.4390   18.4825  -20.2820 O.2       1 ALC1        0.0000 
     11 O          36.1650   17.1710  -20.6350 O.2       7 ALL1        0.0000 
     12 O          36.7130   19.7940  -19.9290 O.2       4 ALP1        0.0000 
     13 CA         32.7570   14.7395  -22.6135 C.3       3 GLC5        0.0000 
     14 CA         33.7480   16.4520  -22.2800 C.3       9 GLL5        0.0000 
     15 CA         31.7660   13.0270  -22.9470 C.3       6 GLP5        0.0000 
     16 CA         34.4620   14.7495  -22.2850 C.3       3 GLC5        0.0000 
     17 CA         31.1075   17.0065  -28.1470 C.3       3 GLC5        0.0000 
     18 CA         31.0860   15.7620  -26.3960 C.3       9 GLL5        0.0000 
     19 CA         31.1290   18.2510  -29.8980 C.3       6 GLP5        0.0000 
     20 CA         34.3270   14.7545  -28.3440 C.3       3 GLC5        0.0000 
     21 CA         33.2820   14.8950  -26.4160 C.3       9 GLL5        0.0000 
     22 CA         35.3720   14.6140  -30.2720 C.3       6 GLP5        0.0000 
     23 CA         32.9530   13.2215  -27.4105 C.3       3 GLC5        0.0000 
     24 CA         32.6240   11.5480  -28.4050 C.3       6 GLP5        0.0000 
     25 CA         35.3635   14.9835  -25.9360 C.3       3 GLC5        0.0000 
     26 CA         37.4450   15.0720  -25.4560 C.3       6 GLP5        0.0000 
     27 N          34.3430   14.2350  -24.4125 N.am      2 SEC2        0.0000 
     28 N          33.5820   15.3030  -25.1640 N.am      8 SEL2        0.0000 
     29 N          35.1040   13.1670  -23.6610 N.am      5 SEP2        0.0000 
     30 CA         33.0580   13.8735  -19.3990 C.3       3 GLC5        0.0000 
     31 CA         32.2690   11.9680  -19.3310 C.3       6 GLP5        0.0000 
     32 CA         36.2108   15.7345  -19.2888 C.3       3 GLC5        0.0000 
     33 CA         37.9100   14.9070  -18.3510 C.3       6 GLP5        0.0000 
     34 CA         35.3670   17.2858  -18.3708 C.3       3 GLC5        0.0000 
     35 CA         36.4250   18.0480  -16.8350 C.3       6 GLP5        0.0000 
     36 CA         35.7505   17.0405  -22.8865 C.3       3 GLC5        0.0000 
     37 CA         34.0000   17.7600  -21.5580 C.3       9 GLL5        0.0000 
     38 CA         37.6270   16.9750  -23.8540 C.3       6 GLP5        0.0000 
@<TRIPOS>BOND
@<TRIPOS>SUBSTRUCTURE
     1 ALC1       10 GROUP        1 X    ALC  0     ROOT ALC X 1
     2 SEC2        1 GROUP        1 X    SEC  0     **** SEC X 2
     3 GLC5        4 GROUP        1 X    GLC  0     **** GLC X 6
     4 ALP1       12 GROUP        1 Y    ALP  0     ROOT ALP Y 8
     5 SEP2        3 GROUP        1 Y    SEP  0     **** SEP Y 9
     6 GLP5        6 GROUP        1 Y    GLP  0     **** GLP Y 13
     7 ALL1       11 GROUP        1 Z    ALL  0     ROOT ALL Z 15
     8 SEL2        2 GROUP        1 Z    SEL  0     **** SEL Z 16
     9 GLL5        5 GROUP        1 Z    GLL  0     **** GLL Z 20
@<TRIPOS>SET

