#    Name: 3r96_AMP_4_ligand
#    Modification time : Tue Mar 25 11:16:26 2014

@<TRIPOS>MOLECULE
3r96_AMP_4_ligand
   35    37     1     0     0
SMALL
NO_CHARGES


@<TRIPOS>ATOM
      1 P          31.0120   16.2750  -17.9670 P.3       1 AMP500      0.0000 
      2 O1P        30.3310   17.6190  -17.8880 O.co2     1 AMP500      0.0000 
      3 O2P        31.5080   15.7640  -16.6280 O.co2     1 AMP500      0.0000 
      4 O3P        30.2540   15.2400  -18.7490 O.co2     1 AMP500      0.0000 
      5 O5'        32.3350   16.5940  -18.8360 O.3       1 AMP500      0.0000 
      6 C5'        33.4420   15.7020  -18.8270 C.3       1 AMP500      0.0000 
      7 C4'        34.2520   15.8560  -20.1070 C.3       1 AMP500      0.0000 
      8 O4'        33.4660   15.5140  -21.2510 O.3       1 AMP500      0.0000 
      9 C3'        34.7710   17.2680  -20.3460 C.3       1 AMP500      0.0000 
     10 O3'        36.1650   17.1710  -20.6350 O.3       1 AMP500      0.0000 
     11 C2'        34.0000   17.7600  -21.5580 C.3       1 AMP500      0.0000 
     12 O2'        34.7270   18.6690  -22.3880 O.3       1 AMP500      0.0000 
     13 C1'        33.7480   16.4520  -22.2800 C.3       1 AMP500      0.0000 
     14 N9         32.6130   16.5040  -23.2240 N.pl3     1 AMP500      0.0000 
     15 C8         31.4020   17.0540  -23.0180 C.2       1 AMP500      0.0000 
     16 N7         30.6130   16.9020  -24.1080 N.2       1 AMP500      0.0000 
     17 C5         31.3300   16.2380  -25.0270 C.ar      1 AMP500      0.0000 
     18 C6         31.0860   15.7620  -26.3960 C.ar      1 AMP500      0.0000 
     19 N6         29.8920   15.9750  -26.9940 N.pl3     1 AMP500      0.0000 
     20 N1         32.0910   15.1120  -27.0160 N.ar      1 AMP500      0.0000 
     21 C2         33.2820   14.8950  -26.4160 C.ar      1 AMP500      0.0000 
     22 N3         33.5820   15.3030  -25.1640 N.ar      1 AMP500      0.0000 
     23 C4         32.6470   15.9710  -24.4430 C.ar      1 AMP500      0.0000 
     24 H          33.1203   14.6530  -18.7585 H         1 AMP500      0.0000 
     25 H          34.1151   15.8954  -17.9795 H         1 AMP500      0.0000 
     26 H          35.1194   15.1942  -20.0514 H         1 AMP500      0.0000 
     27 H          34.5459   17.8583  -19.5145 H         1 AMP500      0.0000 
     28 H          33.0585   18.1274  -21.2259 H         1 AMP500      0.0000 
     29 H          34.6540   16.1734  -22.7932 H         1 AMP500      0.0000 
     30 H          31.1243   17.5046  -22.1923 H         1 AMP500      0.0000 
     31 H          29.2061   16.4561  -26.4481 H         1 AMP500      0.0000 
     32 H          29.8009   15.6325  -27.9291 H         1 AMP500      0.0000 
     33 H          34.0322   14.3684  -26.9659 H         1 AMP500      0.0000 
     34 H          36.5342   18.0788  -20.4359 H         1 AMP500      0.0000 
     35 H          35.6757   18.3556  -22.3458 H         1 AMP500      0.0000 
@<TRIPOS>BOND
     1    2    1 ar   
     2    3    1 ar   
     3    4    1 ar   
     4    5    1 1    
     5    6    5 1    
     6    7    6 1    
     7   24    6 1    
     8   25    6 1    
     9    8    7 1    
    10    9    7 1    
    11   26    7 1    
    12   13    8 1    
    13   10    9 1    
    14   11    9 1    
    15   27    9 1    
    16   34   10 1    
    17   12   11 1    
    18   13   11 1    
    19   28   11 1    
    20   35   12 1    
    21   14   13 1    
    22   29   13 1    
    23   15   14 1    
    24   23   14 1    
    25   16   15 2    
    26   30   15 1    
    27   17   16 1    
    28   18   17 ar   
    29   23   17 ar   
    30   19   18 1    
    31   20   18 ar   
    32   31   19 1    
    33   32   19 1    
    34   21   20 ar   
    35   22   21 ar   
    36   33   21 1    
    37   23   22 ar   
@<TRIPOS>SUBSTRUCTURE
     1 AMP500      1 GROUP   
@<TRIPOS>SET

