#    Name: 2xk2_ADP_1_INTS_M
#    Modification time : Tue Mar 25 06:07:39 2014

@<TRIPOS>MOLECULE
2xk2_ADP_1_INTS_M
   39     0    12     0     0
SMALL
NO_CHARGES


@<TRIPOS>ATOM
      1 Zn          0.9340   -1.1525    7.0270 Zn        3 ZIC7        0.0000 
      2 Zn          1.5390   -1.3250    6.1110 Zn       11 ZIL7        0.0000 
      3 Zn          0.3290   -0.9800    7.9430 Zn        7 ZIP7        0.0000 
      4 N           1.7000    2.9600    8.9505 N.am      2 SEC2        0.0000 
      5 N           2.3590    2.9820    7.6460 N.am     10 SEL2        0.0000 
      6 N           1.0410    2.9380   10.2550 N.am      6 SEP2        0.0000 
      7 Zn          0.9500   -0.1640    8.1800 Zn        3 ZIC7        0.0000 
      8 Zn          1.5710    0.6520    8.4170 Zn       11 ZIL7        0.0000 
      9 N           2.0595   -0.1265    9.4835 N.am      2 SEC2        0.0000 
     10 N           1.5710    0.6520    8.4170 N.am     10 SEL2        0.0000 
     11 N           2.5480   -0.9050   10.5500 N.am      6 SEP2        0.0000 
     12 CA          7.6710    1.1845    5.4650 C.3       4 GLC5        0.0000 
     13 CA          5.8560    0.5770    6.1210 C.3      12 GLL5        0.0000 
     14 CA          9.4860    1.7920    4.8090 C.3       8 GLP5        0.0000 
     15 CA          9.1435   -0.8365    7.9355 C.3       4 GLC5        0.0000 
     16 CA          7.3400   -0.8820    7.2340 C.3      12 GLL5        0.0000 
     17 CA         10.9470   -0.7910    8.6370 C.3       8 GLP5        0.0000 
     18 CA          8.4130    0.4550    6.0215 C.3       4 GLC5        0.0000 
     19 CA          7.4030   -5.9770   10.0425 C.3       4 GLC5        0.0000 
     20 CA          7.4250   -4.0580   10.9550 C.3      12 GLL5        0.0000 
     21 CA          7.3810   -7.8960    9.1300 C.3       8 GLP5        0.0000 
     22 CA          8.8560   -4.3335   12.2500 C.3       4 GLC5        0.0000 
     23 CA         10.2870   -4.6090   13.5450 C.3       8 GLP5        0.0000 
     24 O           7.0645   -5.6425   12.9585 O.2       1 ALC1        0.0000 
     25 O           6.9390   -4.3810   12.2030 O.2       9 ALL1        0.0000 
     26 O           7.1900   -6.9040   13.7140 O.2       5 ALP1        0.0000 
     27 CA          8.0900   -6.2345    9.1540 C.3       4 GLC5        0.0000 
     28 CA          8.7990   -4.5730    9.1780 C.3      12 GLL5        0.0000 
     29 CA          9.6050   -6.2785    7.9715 C.3       4 GLC5        0.0000 
     30 CA         10.4110   -7.9840    6.7650 C.3       8 GLP5        0.0000 
     31 CA         10.3280   -3.4290    8.7165 C.3       4 GLC5        0.0000 
     32 CA         11.8570   -2.2850    8.2550 C.3       8 GLP5        0.0000 
     33 CA          6.3410    2.1057    7.7820 C.3       4 GLC5        0.0000 
     34 CA          7.3840    3.1430    9.2710 C.3       8 GLP5        0.0000 
     35 CA          5.1570   -3.3762   10.6665 C.3       4 GLC5        0.0000 
     36 CA          7.0370   -2.8950   10.2630 C.3      12 GLL5        0.0000 
     37 CA          3.0830   -3.2760   10.7240 C.3       8 GLP5        0.0000 
     38 CA          8.9977   -2.1071   10.1130 C.3       4 GLC5        0.0000 
     39 CA         10.5740   -1.1260   10.4130 C.3       8 GLP5        0.0000 
@<TRIPOS>BOND
@<TRIPOS>SUBSTRUCTURE
     1 ALC1       24 GROUP        1 X    ALC  0     ROOT ALC X 1
     2 SEC2        4 GROUP        1 X    SEC  0     **** SEC X 2
     3 ZIC7        1 GROUP        1 X    ZIC  0     **** ZIC X 5
     4 GLC5       12 GROUP        1 X    GLC  0     **** GLC X 6
     5 ALP1       26 GROUP        1 Y    ALP  0     ROOT ALP Y 8
     6 SEP2        6 GROUP        1 Y    SEP  0     **** SEP Y 9
     7 ZIP7        3 GROUP        1 Y    ZIP  0     **** ZIP Y 12
     8 GLP5       14 GROUP        1 Y    GLP  0     **** GLP Y 13
     9 ALL1       25 GROUP        1 Z    ALL  0     ROOT ALL Z 15
    10 SEL2        5 GROUP        1 Z    SEL  0     **** SEL Z 16
    11 ZIL7        2 GROUP        1 Z    ZIL  0     **** ZIL Z 19
    12 GLL5       13 GROUP        1 Z    GLL  0     **** GLL Z 20
@<TRIPOS>SET

