#    Name: 2xk2_ADP_1_ligand
#    Modification time : Tue Mar 25 06:07:39 2014

@<TRIPOS>MOLECULE
2xk2_ADP_1_ligand
   39    41     1     0     0
SMALL
NO_CHARGES


@<TRIPOS>ATOM
      1 PB          1.4510   -0.1750    5.1640 P.3       1 ADP1226     0.0000 
      2 O1B         1.5390   -1.3250    6.1110 O.co2     1 ADP1226     0.0000 
      3 O2B         0.0570   -0.0180    4.5200 O.co2     1 ADP1226     0.0000 
      4 O3B         2.5100   -0.2360    4.0270 O.co2     1 ADP1226     0.0000 
      5 PA          2.3170    1.4890    7.4440 P.3       1 ADP1226     0.0000 
      6 O1A         2.3590    2.9820    7.6460 O.co2     1 ADP1226     0.0000 
      7 O2A         1.5710    0.6520    8.4170 O.co2     1 ADP1226     0.0000 
      8 O3A         1.7590    1.1730    5.9540 O.3       1 ADP1226     0.0000 
      9 O5'         3.7810    0.9350    7.3190 O.3       1 ADP1226     0.0000 
     10 C5'         4.7400    1.5600    6.4650 C.3       1 ADP1226     0.0000 
     11 C4'         5.8560    0.5770    6.1210 C.3       1 ADP1226     0.0000 
     12 O4'         6.7420    0.4330    7.2460 O.3       1 ADP1226     0.0000 
     13 C3'         5.4080   -0.8530    5.8060 C.3       1 ADP1226     0.0000 
     14 O3'         4.9350   -0.9740    4.4720 O.3       1 ADP1226     0.0000 
     15 C2'         6.7240   -1.6350    6.0390 C.3       1 ADP1226     0.0000 
     16 O2'         7.5840   -1.6070    4.9140 O.3       1 ADP1226     0.0000 
     17 C1'         7.3400   -0.8820    7.2340 C.3       1 ADP1226     0.0000 
     18 N9          7.0640   -1.5250    8.5180 N.pl3     1 ADP1226     0.0000 
     19 C8          6.2090   -1.0740    9.4790 C.2       1 ADP1226     0.0000 
     20 N7          6.2020   -1.8950   10.5540 N.2       1 ADP1226     0.0000 
     21 C5          7.0370   -2.8950   10.2630 C.ar      1 ADP1226     0.0000 
     22 C6          7.4250   -4.0580   10.9550 C.ar      1 ADP1226     0.0000 
     23 N6          6.9390   -4.3810   12.2030 N.pl3     1 ADP1226     0.0000 
     24 N1          8.3350   -4.8820   10.3970 N.ar      1 ADP1226     0.0000 
     25 C2          8.7990   -4.5730    9.1780 C.ar      1 ADP1226     0.0000 
     26 N3          8.4880   -3.5110    8.4350 N.ar      1 ADP1226     0.0000 
     27 C4          7.6120   -2.7000    9.0170 C.ar      1 ADP1226     0.0000 
     28 H           5.2000    2.4348    6.9427 H         1 ADP1226     0.0000 
     29 H           4.2872    1.8954    5.5229 H         1 ADP1226     0.0000 
     30 H           6.4157    0.9460    5.2723 H         1 ADP1226     0.0000 
     31 H           4.7237   -1.1511    6.5545 H         1 ADP1226     0.0000 
     32 H           6.4627   -2.6073    6.3769 H         1 ADP1226     0.0000 
     33 H           8.3969   -0.7991    7.0640 H         1 ADP1226     0.0000 
     34 H           5.6706   -0.2584    9.3962 H         1 ADP1226     0.0000 
     35 H           7.2641   -5.2429   12.5922 H         1 ADP1226     0.0000 
     36 H           6.3035   -3.7255   12.6110 H         1 ADP1226     0.0000 
     37 H           9.5192   -5.2789    8.7432 H         1 ADP1226     0.0000 
     38 H           4.0056   -0.6055    4.4927 H         1 ADP1226     0.0000 
     39 H           7.0807   -1.0971    4.2163 H         1 ADP1226     0.0000 
@<TRIPOS>BOND
     1    2    1 ar   
     2    3    1 ar   
     3    4    1 ar   
     4    8    1 1    
     5    6    5 ar   
     6    7    5 ar   
     7    8    5 1    
     8    9    5 1    
     9   10    9 1    
    10   11   10 1    
    11   28   10 1    
    12   29   10 1    
    13   12   11 1    
    14   13   11 1    
    15   30   11 1    
    16   17   12 1    
    17   14   13 1    
    18   15   13 1    
    19   31   13 1    
    20   38   14 1    
    21   16   15 1    
    22   17   15 1    
    23   32   15 1    
    24   39   16 1    
    25   18   17 1    
    26   33   17 1    
    27   19   18 1    
    28   27   18 1    
    29   20   19 2    
    30   34   19 1    
    31   21   20 1    
    32   22   21 ar   
    33   27   21 ar   
    34   23   22 1    
    35   24   22 ar   
    36   35   23 1    
    37   36   23 1    
    38   25   24 ar   
    39   26   25 ar   
    40   37   25 1    
    41   27   26 ar   
@<TRIPOS>SUBSTRUCTURE
     1 ADP1226     1 GROUP   
@<TRIPOS>SET

