#    Name: 4L50_1_CAVITY_N1_6.mol2
#    Modification time : Tue Mar 11 12:52:12 2014

@<TRIPOS>MOLECULE
4L50_1_CAVITY_N1_6.mol2
   88     0     7     0     0
SMALL
NO_CHARGES


@<TRIPOS>ATOM
      1 N         -44.8857  -17.3328   10.6408 N.2       2 ALA2        0.0000 
      2 N         -45.1452  -16.1120    9.8088 N.2       2 ALA2        0.0000 
      3 CA        -34.4529   -9.7430   10.4101 C.3       6 GLY6        0.0000 
      4 CA        -35.8947  -10.1367   10.2821 C.3       6 GLY6        0.0000 
      5 CZ        -37.3364  -10.5304   10.1542 C.ar      5 PHE5        0.0000 
      6 OG        -44.0260  -14.9407   11.1783 O.2       1 SER1        0.0000 
      7 O         -45.2082  -16.5552   11.8823 O.2       2 ALA2        0.0000 
      8 CA        -45.4678  -15.3344   11.0503 C.3       6 GLY6        0.0000 
      9 O         -46.3904  -18.1698   12.5864 O.2       2 ALA2        0.0000 
     10 DU        -46.6499  -16.9490   11.7543 H         7 CUB7        0.0000 
     11 DU        -46.9095  -15.7282   10.9223 H         7 CUB7        0.0000 
     12 CA        -34.5160  -10.1863   12.4836 C.3       6 GLY6        0.0000 
     13 CA        -34.7755   -8.9654   11.6516 C.3       6 GLY6        0.0000 
     14 CA        -35.0350   -7.7446   10.8196 C.3       6 GLY6        0.0000 
     15 CA        -35.9577  -10.5800   12.3557 C.3       6 GLY6        0.0000 
     16 CZ        -36.2172   -9.3592   11.5237 C.ar      5 PHE5        0.0000 
     17 CZ        -36.4768   -8.1383   10.6916 C.ar      5 PHE5        0.0000 
     18 NZ        -37.1399  -12.1945   13.0597 N.2       4 LYS4        0.0000 
     19 CA        -37.3994  -10.9737   12.2277 C.3       6 GLY6        0.0000 
     20 CZ        -37.6590   -9.7529   11.3957 C.ar      5 PHE5        0.0000 
     21 NZ        -38.5816  -12.5882   12.9317 N.2       4 LYS4        0.0000 
     22 CA        -38.8412  -11.3674   12.0997 C.3       6 GLY6        0.0000 
     23 CZ        -39.1007  -10.1466   11.2677 C.ar      5 PHE5        0.0000 
     24 CA        -40.0234  -12.9820   12.8037 C.3       6 GLY6        0.0000 
     25 OG        -41.4651  -13.3757   12.6758 O.2       1 SER1        0.0000 
     26 OD1       -42.6473  -14.9902   13.3798 O.3       3 ASP3        0.0000 
     27 OG        -42.9068  -13.7694   12.5478 O.2       1 SER1        0.0000 
     28 OD1       -44.0890  -15.3840   13.2518 O.3       3 ASP3        0.0000 
     29 OG        -44.3486  -14.1632   12.4198 O.2       1 SER1        0.0000 
     30 CA        -45.2712  -16.9985   13.9559 C.3       6 GLY6        0.0000 
     31 OD1       -45.5308  -15.7777   13.1239 O.3       3 ASP3        0.0000 
     32 CA        -45.7903  -14.5569   12.2918 C.3       6 GLY6        0.0000 
     33 N         -46.7130  -17.3922   13.8279 N.2       2 ALA2        0.0000 
     34 DU        -46.9725  -16.1714   12.9959 H         7 CUB7        0.0000 
     35 DU        -47.2320  -14.9506   12.1639 H         7 CUB7        0.0000 
     36 CA        -47.4916  -13.7298   11.3319 C.3       6 GLY6        0.0000 
     37 O         -35.0980   -8.1879   12.8932 O.2       2 ALA2        0.0000 
     38 CA        -35.3576   -6.9671   12.0611 C.3       6 GLY6        0.0000 
     39 NZ        -36.2802   -9.8024   13.5972 N.2       4 LYS4        0.0000 
     40 CZ        -36.5398   -8.5816   12.7652 C.ar      5 PHE5        0.0000 
     41 NZ        -37.7220  -10.1962   13.4692 N.2       4 LYS4        0.0000 
     42 CZ        -37.9815   -8.9753   12.6372 C.ar      5 PHE5        0.0000 
     43 O         -38.9042  -11.8107   14.1732 O.2       2 ALA2        0.0000 
     44 N         -39.1637  -10.5899   13.3412 N.2       2 ALA2        0.0000 
     45 CZ        -39.4232   -9.3691   12.5092 C.ar      5 PHE5        0.0000 
     46 CA        -40.3459  -12.2044   14.0453 C.3       6 GLY6        0.0000 
     47 N         -40.6054  -10.9836   13.2133 N.2       2 ALA2        0.0000 
     48 CA        -40.8650   -9.7628   12.3813 C.3       6 GLY6        0.0000 
     49 N         -41.5281  -13.8190   14.7493 N.2       2 ALA2        0.0000 
     50 OD1       -41.7876  -12.5982   13.9173 O.3       3 ASP3        0.0000 
     51 OG        -42.0472  -11.3773   13.0853 O.2       1 SER1        0.0000 
     52 OD1       -43.2294  -12.9919   13.7893 O.3       3 ASP3        0.0000 
     53 O         -43.4889  -11.7711   12.9573 O.2       2 ALA2        0.0000 
     54 OD1       -44.6711  -13.3856   13.6613 O.3       3 ASP3        0.0000 
     55 CA        -44.9306  -12.1648   12.8293 C.3       6 GLY6        0.0000 
     56 OD1       -45.8533  -15.0001   14.3654 O.3       3 ASP3        0.0000 
     57 OD1       -46.1128  -13.7793   13.5334 O.3       3 ASP3        0.0000 
     58 CA        -46.3724  -12.5585   12.7014 C.3       6 GLY6        0.0000 
     59 N         -47.2950  -15.3939   14.2374 N.2       2 ALA2        0.0000 
     60 DU        -47.5546  -14.1731   13.4054 H         7 CUB7        0.0000 
     61 CA        -47.8141  -12.9522   12.5734 C.3       6 GLY6        0.0000 
     62 CA        -48.9963  -14.5668   13.2774 C.3       6 GLY6        0.0000 
     63 CA        -49.2559  -13.3460   12.4454 C.3       6 GLY6        0.0000 
     64 O         -36.6028   -9.0249   14.8387 O.2       2 ALA2        0.0000 
     65 CA        -36.8623   -7.8041   14.0067 C.3       6 GLY6        0.0000 
     66 NZ        -37.7850  -10.6394   15.5427 N.2       4 LYS4        0.0000 
     67 NZ        -38.0445   -9.4186   14.7107 N.2       4 LYS4        0.0000 
     68 N         -38.3041   -8.1978   13.8787 N.2       2 ALA2        0.0000 
     69 O         -39.2267  -11.0332   15.4148 O.2       2 ALA2        0.0000 
     70 N         -39.4863   -9.8123   14.5828 N.2       2 ALA2        0.0000 
     71 O         -40.6684  -11.4269   15.2868 O.2       2 ALA2        0.0000 
     72 N         -40.9280  -10.2061   14.4548 N.2       2 ALA2        0.0000 
     73 O         -42.1102  -11.8206   15.1588 O.2       2 ALA2        0.0000 
     74 CA        -42.3697  -10.5998   14.3268 C.3       6 GLY6        0.0000 
     75 CA        -42.6293   -9.3790   13.4948 C.3       6 GLY6        0.0000 
     76 OD1       -43.5519  -12.2143   15.0308 O.3       3 ASP3        0.0000 
     77 O         -43.8115  -10.9935   14.1988 O.2       2 ALA2        0.0000 
     78 OD1       -44.9937  -12.6081   14.9029 O.3       3 ASP3        0.0000 
     79 OD1       -46.1758  -14.2226   15.6069 O.3       3 ASP3        0.0000 
     80 CA        -46.4354  -13.0018   14.7749 C.3       6 GLY6        0.0000 
     81 N         -47.6176  -14.6163   15.4789 N.2       2 ALA2        0.0000 
     82 CA        -47.8771  -13.3955   14.6469 C.3       6 GLY6        0.0000 
     83 CA        -48.1367  -12.1747   13.8149 C.3       6 GLY6        0.0000 
     84 CA        -49.3189  -13.7892   14.5189 C.3       6 GLY6        0.0000 
     85 CA        -49.5784  -12.5684   13.6869 C.3       6 GLY6        0.0000 
     86 O         -38.3671   -8.6411   15.9523 O.2       2 ALA2        0.0000 
     87 N         -38.6266   -7.4202   15.1203 N.2       2 ALA2        0.0000 
     88 N         -39.8088   -9.0348   15.8243 N.2       2 ALA2        0.0000 
@<TRIPOS>BOND
@<TRIPOS>SUBSTRUCTURE
     1 SER1        6 GROUP   
     2 ALA2        1 GROUP   
     3 ASP3       26 GROUP   
     4 LYS4       18 GROUP   
     5 PHE5        5 GROUP   
     6 GLY6        3 GROUP   
     7 CUB7       10 GROUP   
@<TRIPOS>SET

