#    Name: 4l50_D8X_1_INTS_M
#    Modification time : Tue Mar 25 09:50:12 2014

@<TRIPOS>MOLECULE
4l50_D8X_1_INTS_M
   56     0    12     0     0
SMALL
NO_CHARGES


@<TRIPOS>ATOM
      1 N         -43.5160  -10.3670   11.6915 N.am      2 SEC2        0.0000 
      2 N         -42.5900  -11.4290   12.1430 N.am     10 SEL2        0.0000 
      3 N         -44.4420   -9.3050   11.2400 N.am      6 SEP2        0.0000 
      4 N         -42.3500  -12.2190   11.1735 N.am      2 SEC2        0.0000 
      5 N         -42.1100  -13.0090   10.2040 N.am      6 SEP2        0.0000 
      6 NZ        -43.9905  -12.9800   14.8295 N.4       3 LYC4        0.0000 
      7 NZ        -44.2800  -11.2740   13.8920 N.4      11 LYL4        0.0000 
      8 NZ        -43.7010  -14.6860   15.7670 N.4       7 LYP4        0.0000 
      9 N         -45.3830  -10.3540   13.5615 N.am      2 SEC2        0.0000 
     10 N         -44.2800  -11.2740   13.8920 N.am     10 SEL2        0.0000 
     11 N         -46.4860   -9.4340   13.2310 N.am      6 SEP2        0.0000 
     12 NZ        -43.3265  -14.0460   14.6895 N.4       3 LYC4        0.0000 
     13 NZ        -42.9520  -13.4060   13.6120 N.4      11 LYL4        0.0000 
     14 N         -43.3265  -14.0460   14.6895 N.am      2 SEC2        0.0000 
     15 N         -42.9520  -13.4060   13.6120 N.am     10 SEL2        0.0000 
     16 N         -43.7010  -14.6860   15.7670 N.am      6 SEP2        0.0000 
     17 CA        -41.4520  -10.4390   16.1055 C.3       4 GLC5        0.0000 
     18 CA        -40.5120  -11.6960   14.5510 C.3      12 GLL5        0.0000 
     19 CA        -42.3920   -9.1820   17.6600 C.3       8 GLP5        0.0000 
     20 CA        -40.5065  -12.0105   16.5935 C.3       4 GLC5        0.0000 
     21 CA        -40.5010  -12.3250   18.6360 C.3       8 GLP5        0.0000 
     22 CA        -39.7565  -13.2310   15.3420 C.3       4 GLC5        0.0000 
     23 CA        -39.0010  -14.7660   16.1330 C.3       8 GLP5        0.0000 
     24 CA        -38.5705  -12.8120   15.1405 C.3       4 GLC5        0.0000 
     25 CA        -38.1400  -10.8580   14.1480 C.3      12 GLL5        0.0000 
     26 O         -36.5295  -11.7835   14.7495 O.2       1 ALC1        0.0000 
     27 O         -37.6490  -12.0990   13.7770 O.2       9 ALL1        0.0000 
     28 O         -35.4100  -11.4680   15.7220 O.2       5 ALP1        0.0000 
     29 O         -36.8175  -12.8450   14.5655 O.2       1 ALC1        0.0000 
     30 O         -35.9860  -13.5910   15.3540 O.2       5 ALP1        0.0000 
     31 O         -36.6875  -11.0985   15.6355 O.2       1 ALC1        0.0000 
     32 O         -37.9650  -10.7290   15.5490 O.2       9 ALL1        0.0000 
     33 O         -36.9755  -12.1600   15.4515 O.2       1 ALC1        0.0000 
     34 CA        -34.8560  -11.3440   11.9040 C.3       4 GLC5        0.0000 
     35 CA        -36.3060  -10.0750   12.4640 C.3      12 GLL5        0.0000 
     36 CA        -33.4060  -12.6130   11.3440 C.3       8 GLP5        0.0000 
     37 CA        -34.4000   -9.8915   13.5075 C.3       4 GLC5        0.0000 
     38 CA        -32.4940   -9.7080   14.5510 C.3       8 GLP5        0.0000 
     39 CA        -33.8645   -7.7025   10.0965 C.3       4 GLC5        0.0000 
     40 CA        -35.1010   -9.1150   10.5130 C.3      12 GLL5        0.0000 
     41 CA        -32.6280   -6.2900    9.6800 C.3       8 GLP5        0.0000 
     42 CA        -34.6870  -10.8930   10.3050 C.3       4 GLC5        0.0000 
     43 CA        -34.2730  -12.6710   10.0970 C.3       8 GLP5        0.0000 
     44 CA        -35.0485   -8.8710    8.6260 C.3       4 GLC5        0.0000 
     45 CA        -34.9960   -8.6270    6.7390 C.3       8 GLP5        0.0000 
     46 CA        -37.0000   -6.7100   12.3705 C.3       4 GLC5        0.0000 
     47 CA        -35.3480   -7.6880   12.5540 C.3      12 GLL5        0.0000 
     48 CA        -38.6520   -5.7320   12.1870 C.3       8 GLP5        0.0000 
     49 CA        -35.1240   -7.4265   14.3555 C.3       4 GLC5        0.0000 
     50 CA        -34.9000   -7.1650   16.1570 C.3       8 GLP5        0.0000 
     51 CA        -33.9210   -8.6980   13.5525 C.3       4 GLC5        0.0000 
     52 CA        -35.2615   -6.6822   10.8257 C.3       4 GLC5        0.0000 
     53 CA        -36.0220   -8.7830   11.6810 C.3      12 GLL5        0.0000 
     54 CA        -34.8380   -5.1290    9.5340 C.3       8 GLP5        0.0000 
     55 CA        -37.2913   -8.4580   10.9529 C.3       4 GLC5        0.0000 
     56 CA        -38.9500   -7.6440   10.6130 C.3       8 GLP5        0.0000 
@<TRIPOS>BOND
@<TRIPOS>SUBSTRUCTURE
     1 ALC1       26 GROUP        1 X    ALC  0     ROOT ALC X 1
     2 SEC2        1 GROUP        1 X    SEC  0     **** SEC X 2
     3 LYC4        6 GROUP        1 X    LYC  0     **** LYC X 4
     4 GLC5       17 GROUP        1 X    GLC  0     **** GLC X 6
     5 ALP1       28 GROUP        1 Y    ALP  0     ROOT ALP Y 8
     6 SEP2        3 GROUP        1 Y    SEP  0     **** SEP Y 9
     7 LYP4        8 GROUP        1 Y    LYP  0     **** LYP Y 11
     8 GLP5       19 GROUP        1 Y    GLP  0     **** GLP Y 13
     9 ALL1       27 GROUP        1 Z    ALL  0     ROOT ALL Z 15
    10 SEL2        2 GROUP        1 Z    SEL  0     **** SEL Z 16
    11 LYL4        7 GROUP        1 Z    LYL  0     **** LYL Z 18
    12 GLL5       18 GROUP        1 Z    GLL  0     **** GLL Z 20
@<TRIPOS>SET

