#    Name: 4l50_D8X_1_ligand
#    Modification time : Tue Mar 25 09:50:12 2014

@<TRIPOS>MOLECULE
4l50_D8X_1_ligand
   32    31     1     0     0
SMALL
NO_CHARGES


@<TRIPOS>ATOM
      1 O3P       -42.5900  -11.4290   12.1430 O.co2     1 D8X501      0.0000 
      2 P         -42.9490  -11.8310   13.5230 P.3       1 D8X501      0.0000 
      3 O1P       -44.2800  -11.2740   13.8920 O.co2     1 D8X501      0.0000 
      4 O2P       -42.9520  -13.4060   13.6120 O.co2     1 D8X501      0.0000 
      5 O5        -41.8280  -11.2070   14.5410 O.3       1 D8X501      0.0000 
      6 C5        -40.5120  -11.6960   14.5510 C.3       1 D8X501      0.0000 
      7 C4        -39.6420  -10.6840   13.8590 C.3       1 D8X501      0.0000 
      8 O4        -39.8580  -10.8450   12.4790 O.3       1 D8X501      0.0000 
      9 C3        -38.1400  -10.8580   14.1480 C.3       1 D8X501      0.0000 
     10 O3        -37.6490  -12.0990   13.7770 O.3       1 D8X501      0.0000 
     11 O3'       -37.9650  -10.7290   15.5490 O.3       1 D8X501      0.0000 
     12 C2        -37.2990   -9.7250   13.5200 C.2       1 D8X501      0.0000 
     13 O2        -37.3420   -8.5840   13.9950 O.2       1 D8X501      0.0000 
     14 C1        -36.3060  -10.0750   12.4640 C.3       1 D8X501      0.0000 
     15 C1'       -36.0220   -8.7830   11.6810 C.3       1 D8X501      0.0000 
     16 C2'       -35.1010   -9.1150   10.5130 C.3       1 D8X501      0.0000 
     17 C22       -35.3480   -7.6880   12.5540 C.3       1 D8X501      0.0000 
     18 H         -40.4201  -12.6461   14.0174 H         1 D8X501      0.0000 
     19 H         -40.1307  -11.8356   15.5664 H         1 D8X501      0.0000 
     20 H         -39.9360   -9.6944   14.1771 H         1 D8X501      0.0000 
     21 H         -36.7112  -10.8071   11.7895 H         1 D8X501      0.0000 
     22 H         -35.3893  -10.4217   12.9049 H         1 D8X501      0.0000 
     23 H         -36.9430   -8.3955   11.2906 H         1 D8X501      0.0000 
     24 H         -34.2307   -9.4973   10.8234 H         1 D8X501      0.0000 
     25 H         -35.5118   -9.7853    9.8950 H         1 D8X501      0.0000 
     26 H         -34.8872   -8.3051    9.9668 H         1 D8X501      0.0000 
     27 H         -34.4697   -7.9942   12.9212 H         1 D8X501      0.0000 
     28 H         -35.1726   -6.8530   12.0324 H         1 D8X501      0.0000 
     29 H         -35.9186   -7.4317   13.3343 H         1 D8X501      0.0000 
     30 H         -40.8308  -11.0601   12.3928 H         1 D8X501      0.0000 
     31 H         -37.0917  -12.3987   14.5513 H         1 D8X501      0.0000 
     32 H         -37.0094  -10.9733   15.7139 H         1 D8X501      0.0000 
@<TRIPOS>BOND
     1    2    1 ar   
     2    3    2 ar   
     3    4    2 ar   
     4    5    2 1    
     5    6    5 1    
     6    7    6 1    
     7   18    6 1    
     8   19    6 1    
     9    8    7 1    
    10    9    7 1    
    11   20    7 1    
    12   30    8 1    
    13   10    9 1    
    14   11    9 1    
    15   12    9 1    
    16   31   10 1    
    17   32   11 1    
    18   13   12 2    
    19   14   12 1    
    20   15   14 1    
    21   21   14 1    
    22   22   14 1    
    23   16   15 1    
    24   17   15 1    
    25   23   15 1    
    26   24   16 1    
    27   25   16 1    
    28   26   16 1    
    29   27   17 1    
    30   28   17 1    
    31   29   17 1    
@<TRIPOS>SUBSTRUCTURE
     1 D8X501      1 GROUP   
@<TRIPOS>SET

