#    Name: 1adc_PAD_1_INTS_M
#    Modification time : Mon Mar 24 18:15:03 2014

@<TRIPOS>MOLECULE
1adc_PAD_1_INTS_M
  101     0    12     0     0
SMALL
NO_CHARGES


@<TRIPOS>ATOM
      1 NZ          5.4290  -11.8260  -26.1935 N.4       3 LYC4        0.0000 
      2 NZ          4.5740  -12.6830  -27.0340 N.4      11 LYL4        0.0000 
      3 NZ          6.0580   -9.6670  -25.1730 N.4       7 LYP4        0.0000 
      4 N           5.4290  -11.8260  -26.1935 N.am      2 SEC2        0.0000 
      5 N           4.5740  -12.6830  -27.0340 N.am     10 SEL2        0.0000 
      6 N           6.2840  -10.9690  -25.3530 N.am      6 SEP2        0.0000 
      7 CA          4.4325  -14.5040  -32.3120 C.3       4 GLC5        0.0000 
      8 CA          5.0350  -13.8280  -30.7300 C.3      12 GLL5        0.0000 
      9 CA          3.8300  -15.1800  -33.8940 C.3       8 GLP5        0.0000 
     10 CA          4.6350  -12.6300  -32.5825 C.3       4 GLC5        0.0000 
     11 CA          4.2350  -11.4320  -34.4350 C.3       8 GLP5        0.0000 
     12 N           5.1130  -16.5755  -31.3280 N.am      2 SEC2        0.0000 
     13 N           6.0830  -15.9770  -30.1130 N.am     10 SEL2        0.0000 
     14 N           4.1430  -17.1740  -32.5430 N.am      6 SEP2        0.0000 
     15 O           6.4425  -16.4640  -31.2280 O.2       1 ALC1        0.0000 
     16 O           6.0830  -15.9770  -30.1130 O.2       9 ALL1        0.0000 
     17 O           6.8020  -16.9510  -32.3430 O.2       5 ALP1        0.0000 
     18 O           8.6075  -15.5725  -31.4520 O.2       1 ALC1        0.0000 
     19 O           8.3970  -14.9630  -30.3050 O.2       9 ALL1        0.0000 
     20 O           8.8180  -16.1820  -32.5990 O.2       5 ALP1        0.0000 
     21 CA          5.4220  -14.3515  -32.8710 C.3       4 GLC5        0.0000 
     22 CA          7.0140  -13.5230  -31.8480 C.3      12 GLL5        0.0000 
     23 CA          5.6245  -12.4775  -33.1415 C.3       4 GLC5        0.0000 
     24 CA          8.0530   -9.9820  -36.9385 C.3       4 GLC5        0.0000 
     25 CA          9.1600  -10.8950  -35.2870 C.3      12 GLL5        0.0000 
     26 CA          6.9460   -9.0690  -38.5900 C.3       8 GLP5        0.0000 
     27 CA          8.4410  -14.9600  -35.7225 C.3       4 GLC5        0.0000 
     28 CA          8.3180  -12.9210  -36.0470 C.3      12 GLL5        0.0000 
     29 CA          8.5640  -16.9990  -35.3980 C.3       8 GLP5        0.0000 
     30 CA         10.2820  -13.2250  -35.8990 C.3       4 GLC5        0.0000 
     31 CA         12.2460  -13.5290  -35.7510 C.3       8 GLP5        0.0000 
     32 CA          6.7960  -12.2260  -35.7485 C.3       4 GLC5        0.0000 
     33 CA          5.2740  -11.5310  -35.4500 C.3       8 GLP5        0.0000 
     34 CA          9.9910  -13.0240  -33.5465 C.3       4 GLC5        0.0000 
     35 CA          8.1300  -12.5050  -33.8080 C.3      12 GLL5        0.0000 
     36 CA         11.8520  -13.5430  -33.2850 C.3       8 GLP5        0.0000 
     37 NZ         -0.5585  -13.8935  -25.0680 N.4       3 LYC4        0.0000 
     38 NZ         -0.3510  -12.7980  -26.3350 N.4      11 LYL4        0.0000 
     39 NZ         -2.0740  -15.0460  -23.5630 N.4       7 LYP4        0.0000 
     40 N          -0.3420  -11.7140  -25.0985 N.am      2 SEC2        0.0000 
     41 N          -0.3510  -12.7980  -26.3350 N.am     10 SEL2        0.0000 
     42 N          -0.3330  -10.6300  -23.8620 N.am      6 SEP2        0.0000 
     43 N          -0.5585  -13.8935  -25.0680 N.am      2 SEC2        0.0000 
     44 N          -0.7660  -14.9890  -23.8010 N.am      6 SEP2        0.0000 
     45 N          -0.7220  -15.2610  -28.3665 N.am      2 SEC2        0.0000 
     46 N           0.3690  -14.0970  -28.3200 N.am     10 SEL2        0.0000 
     47 N          -1.8130  -16.4250  -28.4130 N.am      6 SEP2        0.0000 
     48 CA          0.6675  -10.5725  -27.6400 C.3       4 GLC5        0.0000 
     49 CA          0.1020  -11.2560  -29.6810 C.3      12 GLL5        0.0000 
     50 CA          1.2330   -9.8890  -25.5990 C.3       8 GLP5        0.0000 
     51 CA         -1.4050  -12.5755  -28.9720 C.3       4 GLC5        0.0000 
     52 CA         -2.9120  -13.8950  -28.2630 C.3       8 GLP5        0.0000 
     53 CA         -0.9415   -8.9855  -31.5905 C.3       4 GLC5        0.0000 
     54 CA         -0.4240   -9.8840  -30.0010 C.3      12 GLL5        0.0000 
     55 CA         -1.4590   -8.0870  -33.1800 C.3       8 GLP5        0.0000 
     56 N           0.9705   -6.6820  -28.6780 N.am      2 SEC2        0.0000 
     57 N           0.5560   -7.8260  -29.5570 N.am     10 SEL2        0.0000 
     58 N           1.3850   -5.5380  -27.7990 N.am      6 SEP2        0.0000 
     59 O           1.6470   -7.9805  -30.5185 O.2       1 ALC1        0.0000 
     60 O           0.5560   -7.8260  -29.5570 O.2       9 ALL1        0.0000 
     61 O           2.7380   -8.1350  -31.4800 O.2       5 ALP1        0.0000 
     62 CA         -0.4630   -6.6805  -27.6430 C.3       4 GLC5        0.0000 
     63 CA         -1.4530   -8.5690  -28.2570 C.3      12 GLL5        0.0000 
     64 CA          0.5270   -4.7920  -27.0290 C.3       8 GLP5        0.0000 
     65 O          -2.3870   -7.3075  -26.6900 O.2       1 ALC1        0.0000 
     66 O          -1.4070   -7.1770  -27.8610 O.2       9 ALL1        0.0000 
     67 O          -3.3670   -7.4380  -25.5190 O.2       5 ALP1        0.0000 
     68 CA         -1.9295   -8.4420  -31.2990 C.3       4 GLC5        0.0000 
     69 CA         -2.4000   -8.7970  -29.4180 C.3      12 GLL5        0.0000 
     70 N          -9.6735   -9.0980  -30.0505 N.am      2 SEC2        0.0000 
     71 N          -8.3870   -8.5620  -29.7340 N.am     10 SEL2        0.0000 
     72 N         -10.9600   -9.6340  -30.3670 N.am      6 SEP2        0.0000 
     73 O          -5.4745   -8.3105  -32.0720 O.2       1 ALC1        0.0000 
     74 O          -6.8320   -8.0970  -31.3360 O.2       9 ALL1        0.0000 
     75 O          -4.1170   -8.5240  -32.8080 O.2       5 ALP1        0.0000 
     76 O          -7.7290   -8.0880  -32.5160 O.2       1 ALC1        0.0000 
     77 O          -8.6260   -8.0790  -33.6960 O.2       5 ALP1        0.0000 
     78 CA         10.6388  -11.6045  -33.8803 C.3       4 GLC5        0.0000 
     79 CA          8.7430  -11.3050  -34.0460 C.3      12 GLL5        0.0000 
     80 CA         12.3260  -12.1090  -33.0940 C.3       8 GLP5        0.0000 
     81 CA          8.4522   -9.2010  -34.6737 C.3       4 GLC5        0.0000 
     82 CA          7.9530   -7.3020  -34.6810 C.3       8 GLP5        0.0000 
     83 CA          6.9074  -11.6668  -34.8436 C.3       4 GLC5        0.0000 
     84 CA         -0.8285  -11.9965  -31.1895 C.3       4 GLC5        0.0000 
     85 CA         -1.4960  -13.4230  -32.5380 C.3       8 GLP5        0.0000 
     86 CA          1.3080  -10.2780  -31.4290 C.3       4 GLC5        0.0000 
     87 CA          2.7770   -9.9860  -33.0170 C.3       8 GLP5        0.0000 
     88 CA          0.2248   -9.3140  -27.0907 C.3       4 GLC5        0.0000 
     89 CA         -0.1140   -8.9090  -28.9080 C.3      12 GLL5        0.0000 
     90 CA         -3.4952   -7.1030  -29.6695 C.3       4 GLC5        0.0000 
     91 CA         -3.9300   -5.1450  -30.0890 C.3       8 GLP5        0.0000 
     92 CA         -6.4367  -10.9570  -26.4642 C.3       4 GLC5        0.0000 
     93 CA         -6.2690  -10.3570  -28.5660 C.3      12 GLL5        0.0000 
     94 CA         -7.1780  -11.2650  -24.6600 C.3       8 GLP5        0.0000 
     95 CA         -7.3093  -11.7135  -28.3407 C.3       4 GLC5        0.0000 
     96 CA         -5.1220  -10.9410  -27.9710 C.3      12 GLL5        0.0000 
     97 CA         -8.9230  -12.7780  -28.4130 C.3       8 GLP5        0.0000 
     98 CA         -3.9720  -10.5572  -26.1565 C.3       4 GLC5        0.0000 
     99 CA         -3.4530  -10.4380  -24.2120 C.3       8 GLP5        0.0000 
    100 CA         -3.7015  -12.2858  -28.1820 C.3       4 GLC5        0.0000 
    101 CA         -3.8600  -10.4120  -28.2310 C.3      12 GLL5        0.0000 
@<TRIPOS>BOND
@<TRIPOS>SUBSTRUCTURE
     1 ALC1       15 GROUP        1 X    ALC  0     ROOT ALC X 1
     2 SEC2        4 GROUP        1 X    SEC  0     **** SEC X 2
     3 LYC4        1 GROUP        1 X    LYC  0     **** LYC X 4
     4 GLC5        7 GROUP        1 X    GLC  0     **** GLC X 6
     5 ALP1       17 GROUP        1 Y    ALP  0     ROOT ALP Y 8
     6 SEP2        6 GROUP        1 Y    SEP  0     **** SEP Y 9
     7 LYP4        3 GROUP        1 Y    LYP  0     **** LYP Y 11
     8 GLP5        9 GROUP        1 Y    GLP  0     **** GLP Y 13
     9 ALL1       16 GROUP        1 Z    ALL  0     ROOT ALL Z 15
    10 SEL2        5 GROUP        1 Z    SEL  0     **** SEL Z 16
    11 LYL4        2 GROUP        1 Z    LYL  0     **** LYL Z 18
    12 GLL5        8 GROUP        1 Z    GLL  0     **** GLL Z 20
@<TRIPOS>SET

