#    Name: 1adc_PAD_1_ligand
#    Modification time : Mon Mar 24 18:15:04 2014

@<TRIPOS>MOLECULE
1adc_PAD_1_ligand
   69    73     1     0     0
SMALL
NO_CHARGES


@<TRIPOS>ATOM
      1 PA          3.2370  -13.2910  -27.2820 P.3       1 PAD377      0.0000 
      2 O1A         4.5740  -12.6830  -27.0340 O.co2     1 PAD377      0.0000 
      3 O2A         2.9010  -14.5610  -26.5810 O.co2     1 PAD377      0.0000 
      4 O5B         3.2860  -13.7040  -28.8640 O.3       1 PAD377      0.0000 
      5 C5B         4.1800  -12.9890  -29.7990 C.3       1 PAD377      0.0000 
      6 C4B         5.0350  -13.8280  -30.7300 C.3       1 PAD377      0.0000 
      7 O4B         5.7180  -12.9600  -31.6560 O.3       1 PAD377      0.0000 
      8 C3B         6.1010  -14.5540  -29.9220 C.3       1 PAD377      0.0000 
      9 O3B         6.0830  -15.9770  -30.1130 O.3       1 PAD377      0.0000 
     10 C2B         7.4050  -13.9580  -30.4370 C.3       1 PAD377      0.0000 
     11 O2B         8.3970  -14.9630  -30.3050 O.3       1 PAD377      0.0000 
     12 C1B         7.0140  -13.5230  -31.8480 C.3       1 PAD377      0.0000 
     13 N9A         7.8640  -12.5110  -32.5070 N.pl3     1 PAD377      0.0000 
     14 C8A         8.2880  -11.3230  -32.0330 C.2       1 PAD377      0.0000 
     15 N7A         8.8870  -10.5610  -32.9640 N.2       1 PAD377      0.0000 
     16 C5A         8.7430  -11.3050  -34.0460 C.ar      1 PAD377      0.0000 
     17 C6A         9.1600  -10.8950  -35.2870 C.ar      1 PAD377      0.0000 
     18 N6A         9.9050   -9.7910  -35.4430 N.pl3     1 PAD377      0.0000 
     19 N1A         8.9070  -11.7590  -36.2810 N.ar      1 PAD377      0.0000 
     20 C2A         8.3180  -12.9210  -36.0470 C.ar      1 PAD377      0.0000 
     21 N3A         7.9400  -13.3210  -34.8490 N.ar      1 PAD377      0.0000 
     22 C4A         8.1300  -12.5050  -33.8080 C.ar      1 PAD377      0.0000 
     23 O3          1.9610  -12.3230  -27.2790 O.3       1 PAD377      0.0000 
     24 PN          0.4680  -12.8300  -27.5420 P.3       1 PAD377      0.0000 
     25 O1N        -0.3510  -12.7980  -26.3350 O.co2     1 PAD377      0.0000 
     26 O2N         0.3690  -14.0970  -28.3200 O.co2     1 PAD377      0.0000 
     27 O5D        -0.2800  -11.6450  -28.3430 O.3       1 PAD377      0.0000 
     28 C5D         0.1020  -11.2560  -29.6810 C.3       1 PAD377      0.0000 
     29 C4D        -0.4240   -9.8840  -30.0010 C.3       1 PAD377      0.0000 
     30 O4D        -1.8510   -9.8810  -30.1590 O.3       1 PAD377      0.0000 
     31 C3D        -0.1140   -8.9090  -28.9080 C.3       1 PAD377      0.0000 
     32 O3D         0.5560   -7.8260  -29.5570 O.3       1 PAD377      0.0000 
     33 C2D        -1.4530   -8.5690  -28.2570 C.3       1 PAD377      0.0000 
     34 O2D        -1.4070   -7.1770  -27.8610 O.3       1 PAD377      0.0000 
     35 C1D        -2.4000   -8.7970  -29.4180 C.3       1 PAD377      0.0000 
     36 C1N        -3.7210   -9.3250  -29.0820 C.ar      1 PAD377      0.0000 
     37 N2N        -4.8260   -8.7930  -29.7100 N.ar      1 PAD377      0.0000 
     38 C3N        -6.0880   -9.2960  -29.4430 C.ar      1 PAD377      0.0000 
     39 C7N        -7.2340   -8.6170  -30.1760 C.2       1 PAD377      0.0000 
     40 O7N        -8.3870   -8.5620  -29.7340 O.2       1 PAD377      0.0000 
     41 N7N        -6.8320   -8.0970  -31.3360 N.am      1 PAD377      0.0000 
     42 C4N        -6.2690  -10.3570  -28.5660 C.ar      1 PAD377      0.0000 
     43 C5N        -5.1220  -10.9410  -27.9710 C.ar      1 PAD377      0.0000 
     44 C6N        -3.8600  -10.4120  -28.2310 C.ar      1 PAD377      0.0000 
     45 H           4.8647  -12.3121  -29.2173 H         1 PAD377      0.0000 
     46 H           3.5730  -12.2828  -30.4300 H         1 PAD377      0.0000 
     47 H           4.4319  -14.5394  -31.2293 H         1 PAD377      0.0000 
     48 H           5.9977  -14.2650  -28.8976 H         1 PAD377      0.0000 
     49 H           7.5863  -13.0858  -29.8468 H         1 PAD377      0.0000 
     50 H           6.9205  -14.4096  -32.4564 H         1 PAD377      0.0000 
     51 H           8.1680  -11.0385  -31.0830 H         1 PAD377      0.0000 
     52 H          10.1247   -9.2868  -34.6078 H         1 PAD377      0.0000 
     53 H          10.1742   -9.5707  -36.3805 H         1 PAD377      0.0000 
     54 H           8.1385  -13.5745  -36.8831 H         1 PAD377      0.0000 
     55 H          -0.2938  -11.9639  -30.4234 H         1 PAD377      0.0000 
     56 H           1.1962  -11.2447  -29.7889 H         1 PAD377      0.0000 
     57 H           0.0494   -9.5260  -30.9111 H         1 PAD377      0.0000 
     58 H           0.5088   -9.4085  -28.1982 H         1 PAD377      0.0000 
     59 H          -1.6392   -9.2381  -27.4980 H         1 PAD377      0.0000 
     60 H          -2.4666   -7.9411  -30.0260 H         1 PAD377      0.0000 
     61 H          -5.8568   -8.1804  -31.5412 H         1 PAD377      0.0000 
     62 H          -7.5418   -7.6703  -31.8965 H         1 PAD377      0.0000 
     63 H          -7.1906  -10.7146  -28.3480 H         1 PAD377      0.0000 
     64 H          -5.2329  -11.7487  -27.3539 H         1 PAD377      0.0000 
     65 H          -3.0294  -10.8305  -27.7892 H         1 PAD377      0.0000 
     66 H           6.7883  -16.1548  -30.7992 H         1 PAD377      0.0000 
     67 H           8.8084  -15.0412  -31.2131 H         1 PAD377      0.0000 
     68 H           1.4910   -8.1498  -29.7018 H         1 PAD377      0.0000 
     69 H          -2.0083   -7.1147  -27.0644 H         1 PAD377      0.0000 
@<TRIPOS>BOND
     1    2    1 ar   
     2    3    1 ar   
     3    4    1 1    
     4   23    1 1    
     5    5    4 1    
     6    6    5 1    
     7   45    5 1    
     8   46    5 1    
     9    7    6 1    
    10    8    6 1    
    11   47    6 1    
    12   12    7 1    
    13    9    8 1    
    14   10    8 1    
    15   48    8 1    
    16   66    9 1    
    17   11   10 1    
    18   12   10 1    
    19   49   10 1    
    20   67   11 1    
    21   13   12 1    
    22   50   12 1    
    23   14   13 1    
    24   22   13 1    
    25   15   14 2    
    26   51   14 1    
    27   16   15 1    
    28   17   16 ar   
    29   22   16 ar   
    30   18   17 1    
    31   19   17 ar   
    32   52   18 1    
    33   53   18 1    
    34   20   19 ar   
    35   21   20 ar   
    36   54   20 1    
    37   22   21 ar   
    38   24   23 1    
    39   25   24 ar   
    40   26   24 ar   
    41   27   24 1    
    42   28   27 1    
    43   29   28 1    
    44   55   28 1    
    45   56   28 1    
    46   30   29 1    
    47   31   29 1    
    48   57   29 1    
    49   35   30 1    
    50   32   31 1    
    51   33   31 1    
    52   58   31 1    
    53   68   32 1    
    54   34   33 1    
    55   35   33 1    
    56   59   33 1    
    57   69   34 1    
    58   36   35 1    
    59   60   35 1    
    60   37   36 ar   
    61   44   36 ar   
    62   38   37 ar   
    63   39   38 1    
    64   42   38 ar   
    65   40   39 2    
    66   41   39 am   
    67   61   41 1    
    68   62   41 1    
    69   43   42 ar   
    70   63   42 1    
    71   44   43 ar   
    72   64   43 1    
    73   65   44 1    
@<TRIPOS>SUBSTRUCTURE
     1 PAD377      1 GROUP   
@<TRIPOS>SET

