#    Name: 1ype_UIP_1_INTS_M
#    Modification time : Tue Mar 25 11:13:02 2014

@<TRIPOS>MOLECULE
1ype_UIP_1_INTS_M
   76     0     9     0     0
SMALL
NO_CHARGES


@<TRIPOS>ATOM
      1 O           9.4090  -10.7020   24.7515 O.2       1 ALC1        0.0000 
      2 O          10.4780  -11.8790   24.1020 O.2       7 ALL1        0.0000 
      3 O           8.3400   -9.5250   25.4010 O.2       4 ALP1        0.0000 
      4 O           9.2465  -11.7860   24.7985 O.2       1 ALC1        0.0000 
      5 O           8.0150  -11.6930   25.4950 O.2       4 ALP1        0.0000 
      6 O          10.4790  -13.3025   23.8870 O.2       1 ALC1        0.0000 
      7 O          10.4800  -14.7260   23.6720 O.2       4 ALP1        0.0000 
      8 O           9.5780   -9.5825   24.8600 O.2       1 ALC1        0.0000 
      9 O          10.8160   -9.6400   24.3190 O.2       7 ALL1        0.0000 
     10 CA         10.7055  -13.1545   21.5940 C.3       3 GLC5        0.0000 
     11 CA         12.5950  -12.1660   22.2840 C.3       9 GLL5        0.0000 
     12 CA          8.8160  -14.1430   20.9040 C.3       6 GLP5        0.0000 
     13 CA         13.5320  -11.1405   24.1145 C.3       3 GLC5        0.0000 
     14 CA         13.0340   -9.7900   22.4220 C.3       9 GLL5        0.0000 
     15 CA         14.0300  -12.4910   25.8070 C.3       6 GLP5        0.0000 
     16 CA         12.7685  -12.1385   17.3140 C.3       3 GLC5        0.0000 
     17 CA         14.3780  -12.4050   18.0400 C.3       9 GLL5        0.0000 
     18 CA         11.1590  -11.8720   16.5880 C.3       6 GLP5        0.0000 
     19 CA         13.6650  -12.8600   15.7045 C.3       3 GLC5        0.0000 
     20 CA         15.1810  -12.4830   16.7170 C.3       9 GLL5        0.0000 
     21 CA         12.1490  -13.2370   14.6920 C.3       6 GLP5        0.0000 
     22 CA         17.8780  -10.3610   17.6340 C.3       3 GLC5        0.0000 
     23 CA         16.5850  -12.0440   17.0900 C.3       9 GLL5        0.0000 
     24 CA         19.1710   -8.6780   18.1780 C.3       6 GLP5        0.0000 
     25 CA         18.0660  -13.5865   16.7155 C.3       3 GLC5        0.0000 
     26 CA         19.5470  -15.1290   16.3410 C.3       6 GLP5        0.0000 
     27 CA         18.0035  -14.3400   17.9425 C.3       3 GLC5        0.0000 
     28 CA         16.7410  -12.7050   18.4770 C.3       9 GLL5        0.0000 
     29 CA         19.2660  -15.9750   17.4080 C.3       6 GLP5        0.0000 
     30 CA         19.0705  -14.3900   18.6415 C.3       3 GLC5        0.0000 
     31 CA         18.8750  -12.8050   19.8750 C.3       9 GLL5        0.0000 
     32 N          15.7615  -12.2740   23.7675 N.am      2 SEC2        0.0000 
     33 N          16.6000  -12.7760   22.6030 N.am      8 SEL2        0.0000 
     34 N          14.9230  -11.7720   24.9320 N.am      5 SEP2        0.0000 
     35 CA         20.9170  -14.4585   27.2025 C.3       3 GLC5        0.0000 
     36 CA         20.3820  -13.3700   25.3500 C.3       9 GLL5        0.0000 
     37 CA         21.4520  -15.5470   29.0550 C.3       6 GLP5        0.0000 
     38 CA         23.1205  -12.4315   26.4290 C.3       3 GLC5        0.0000 
     39 CA         21.7340  -13.4580   25.0110 C.3       9 GLL5        0.0000 
     40 CA         24.5070  -11.4050   27.8470 C.3       6 GLP5        0.0000 
     41 CA         25.8070  -13.5360   26.1570 C.3       3 GLC5        0.0000 
     42 CA         23.9540  -13.7110   25.0730 C.3       9 GLL5        0.0000 
     43 CA         27.6600  -13.3610   27.2410 C.3       6 GLP5        0.0000 
     44 CA         24.2305  -12.5580   26.4600 C.3       3 GLC5        0.0000 
     45 CA         23.1615  -11.8845   24.4025 C.3       3 GLC5        0.0000 
     46 CA         22.3690  -10.0580   23.7320 C.3       6 GLP5        0.0000 
     47 CA         21.1100  -12.0570   22.9435 C.3       3 GLC5        0.0000 
     48 CA         21.2620  -14.2250   22.7050 C.3       9 GLL5        0.0000 
     49 CA         20.9580   -9.8890   23.1820 C.3       6 GLP5        0.0000 
     50 CA         22.1595  -13.2005   19.8630 C.3       3 GLC5        0.0000 
     51 CA         20.2760  -12.1470   19.9730 C.3       9 GLL5        0.0000 
     52 CA         24.0430  -14.2540   19.7530 C.3       6 GLP5        0.0000 
     53 CA         20.6170  -11.0180   21.5775 C.3       3 GLC5        0.0000 
     54 CA         22.3650  -12.8950   17.9990 C.3       3 GLC5        0.0000 
     55 CA         20.9020  -12.0300   18.5770 C.3       9 GLL5        0.0000 
     56 CA         23.8280  -13.7600   17.4210 C.3       6 GLP5        0.0000 
     57 CA         20.2245  -13.5795   17.4590 C.3       3 GLC5        0.0000 
     58 CA         14.4555  -10.1292   23.4058 C.3       3 GLC5        0.0000 
     59 CA         16.2560   -9.9100   24.1930 C.3       6 GLP5        0.0000 
     60 CA         13.5384  -12.2059   23.8846 C.3       3 GLC5        0.0000 
     61 CA         12.2760  -10.9070   22.8150 C.3       9 GLL5        0.0000 
     62 CA         15.2460  -10.2383   22.7195 C.3       3 GLC5        0.0000 
     63 CA         14.4080  -11.1940   20.9800 C.3       9 GLL5        0.0000 
     64 CA         13.1205   -7.9733   21.7405 C.3       3 GLC5        0.0000 
     65 CA         14.0640   -9.9390   21.5120 C.3       9 GLL5        0.0000 
     66 CA         12.6920   -6.0820   21.5140 C.3       6 GLP5        0.0000 
     67 CA         16.2545  -10.6408   22.2362 C.3       3 GLC5        0.0000 
     68 CA         15.5400  -11.3240   19.9990 C.3       9 GLL5        0.0000 
     69 CA         18.4079  -10.2769   19.1256 C.3       3 GLC5        0.0000 
     70 CA         17.7720  -11.8600   19.2980 C.3       9 GLL5        0.0000 
     71 CA         18.7605  -12.0280   24.7305 C.3       3 GLC5        0.0000 
     72 CA         19.4920  -13.6940   24.3040 C.3       9 GLL5        0.0000 
     73 CA         17.5840  -10.5240   24.6340 C.3       6 GLP5        0.0000 
     74 CA         20.4973  -11.7645   23.8411 C.3       3 GLC5        0.0000 
     75 CA         22.1595  -11.8657   24.0537 C.3       3 GLC5        0.0000 
     76 CA         19.8800  -10.3833   18.7265 C.3       3 GLC5        0.0000 
@<TRIPOS>BOND
@<TRIPOS>SUBSTRUCTURE
     1 ALC1        1 GROUP        1 X    ALC  0     ROOT ALC X 1
     2 SEC2       32 GROUP        1 X    SEC  0     **** SEC X 2
     3 GLC5       10 GROUP        1 X    GLC  0     **** GLC X 6
     4 ALP1        3 GROUP        1 Y    ALP  0     ROOT ALP Y 8
     5 SEP2       34 GROUP        1 Y    SEP  0     **** SEP Y 9
     6 GLP5       12 GROUP        1 Y    GLP  0     **** GLP Y 13
     7 ALL1        2 GROUP        1 Z    ALL  0     ROOT ALL Z 15
     8 SEL2       33 GROUP        1 Z    SEL  0     **** SEL Z 16
     9 GLL5       11 GROUP        1 Z    GLL  0     **** GLL Z 20
@<TRIPOS>SET

