#    Name: 1ype_UIP_1_ligand
#    Modification time : Tue Mar 25 11:13:02 2014

@<TRIPOS>MOLECULE
1ype_UIP_1_ligand
   65    70     1     0     0
SMALL
NO_CHARGES


@<TRIPOS>ATOM
      1 N1         10.4780  -11.8790   24.1020 N.pl3     1 UIP5555     0.0000 
      2 C3         11.2010  -10.8070   23.7380 C.ar      1 UIP5555     0.0000 
      3 N2         10.8160   -9.6400   24.3190 N.pl3     1 UIP5555     0.0000 
      4 C4         12.2760  -10.9070   22.8150 C.ar      1 UIP5555     0.0000 
      5 C9         12.5950  -12.1660   22.2840 C.ar      1 UIP5555     0.0000 
      6 C8         13.6580  -12.3050   21.3750 C.ar      1 UIP5555     0.0000 
      7 C7         14.4080  -11.1940   20.9800 C.ar      1 UIP5555     0.0000 
      8 C6         14.0640   -9.9390   21.5120 C.ar      1 UIP5555     0.0000 
      9 C5         13.0340   -9.7900   22.4220 C.ar      1 UIP5555     0.0000 
     10 C10        15.5400  -11.3240   19.9990 C.3       1 UIP5555     0.0000 
     11 N11        15.3840  -12.5390   19.1310 N.4       1 UIP5555     0.0000 
     12 C12        14.3780  -12.4050   18.0400 C.3       1 UIP5555     0.0000 
     13 C13        15.1810  -12.4830   16.7170 C.3       1 UIP5555     0.0000 
     14 C14        16.5850  -12.0440   17.0900 C.3       1 UIP5555     0.0000 
     15 C15        16.7410  -12.7050   18.4770 C.3       1 UIP5555     0.0000 
     16 C16        17.7720  -11.8600   19.2980 C.3       1 UIP5555     0.0000 
     17 C17        18.8750  -12.8050   19.8750 C.3       1 UIP5555     0.0000 
     18 N19        18.3590  -13.2410   21.1420 N.am      1 UIP5555     0.0000 
     19 C20        17.1700  -12.6420   21.4890 C.2       1 UIP5555     0.0000 
     20 O21        16.6000  -12.7760   22.6030 O.2       1 UIP5555     0.0000 
     21 C22        16.9660  -11.4190   20.5600 C.3       1 UIP5555     0.0000 
     22 C23        18.8590  -14.4250   21.9280 C.3       1 UIP5555     0.0000 
     23 C24        19.8900  -14.1260   22.9970 C.ar      1 UIP5555     0.0000 
     24 C32        19.4920  -13.6940   24.3040 C.ar      1 UIP5555     0.0000 
     25 C31        20.3820  -13.3700   25.3500 C.ar      1 UIP5555     0.0000 
     26 C30        21.7340  -13.4580   25.0110 C.ar      1 UIP5555     0.0000 
     27 O29        22.8270  -13.0620   25.7580 O.3       1 UIP5555     0.0000 
     28 C28        23.9540  -13.7110   25.0730 C.3       1 UIP5555     0.0000 
     29 O27        23.5520  -14.1020   23.7340 O.3       1 UIP5555     0.0000 
     30 C26        22.1660  -13.8890   23.7400 C.ar      1 UIP5555     0.0000 
     31 C25        21.2620  -14.2250   22.7050 C.ar      1 UIP5555     0.0000 
     32 C18        20.2760  -12.1470   19.9730 C.3       1 UIP5555     0.0000 
     33 C42        20.9020  -12.0300   18.5770 C.3       1 UIP5555     0.0000 
     34 H          10.7570  -12.7534   23.7050 H         1 UIP5555     0.0000 
     35 H           9.7253  -11.7069   24.7375 H         1 UIP5555     0.0000 
     36 H          11.3615   -8.8337   24.0903 H         1 UIP5555     0.0000 
     37 H          10.0213   -9.6908   24.9238 H         1 UIP5555     0.0000 
     38 H          12.0499  -12.9905   22.5601 H         1 UIP5555     0.0000 
     39 H          13.8835  -13.2361   20.9984 H         1 UIP5555     0.0000 
     40 H          14.6056   -9.1053   21.2061 H         1 UIP5555     0.0000 
     41 H          12.8143   -8.8677   22.8170 H         1 UIP5555     0.0000 
     42 H          15.5299  -10.4550   19.3101 H         1 UIP5555     0.0000 
     43 H          15.2033  -13.3975   19.7274 H         1 UIP5555     0.0000 
     44 H          13.8880  -11.4550   18.0853 H         1 UIP5555     0.0000 
     45 H          13.6789  -13.2145   18.0621 H         1 UIP5555     0.0000 
     46 H          14.7573  -11.8080   16.0138 H         1 UIP5555     0.0000 
     47 H          15.1872  -13.4889   16.3738 H         1 UIP5555     0.0000 
     48 H          16.6274  -11.0011   17.1950 H         1 UIP5555     0.0000 
     49 H          17.2863  -12.4561   16.4275 H         1 UIP5555     0.0000 
     50 H          17.0215  -13.6732   18.4005 H         1 UIP5555     0.0000 
     51 H          18.1321  -11.0863   18.8025 H         1 UIP5555     0.0000 
     52 H          18.9344  -13.6537   19.1897 H         1 UIP5555     0.0000 
     53 H          17.3296  -10.5725   20.9187 H         1 UIP5555     0.0000 
     54 H          19.2865  -15.1742   21.2210 H         1 UIP5555     0.0000 
     55 H          17.9898  -14.9359   22.4050 H         1 UIP5555     0.0000 
     56 H          18.4590  -13.6154   24.4887 H         1 UIP5555     0.0000 
     57 H          20.0674  -13.1037   26.2459 H         1 UIP5555     0.0000 
     58 H          24.2753  -14.5914   25.6467 H         1 UIP5555     0.0000 
     59 H          24.8055  -13.0178   25.0280 H         1 UIP5555     0.0000 
     60 H          21.5886  -14.5197   21.8060 H         1 UIP5555     0.0000 
     61 H          20.9076  -12.7600   20.6028 H         1 UIP5555     0.0000 
     62 H          20.1703  -11.1608   20.4062 H         1 UIP5555     0.0000 
     63 H          21.8090  -11.6102   18.6107 H         1 UIP5555     0.0000 
     64 H          21.0088  -12.9240   18.1417 H         1 UIP5555     0.0000 
     65 H          20.3428  -11.4709   17.9649 H         1 UIP5555     0.0000 
@<TRIPOS>BOND
     1    2    1 ar   
     2   34    1 1    
     3   35    1 1    
     4    3    2 ar   
     5    4    2 1    
     6   36    3 1    
     7   37    3 1    
     8    5    4 ar   
     9    9    4 ar   
    10    6    5 ar   
    11   38    5 1    
    12    7    6 ar   
    13   39    6 1    
    14    8    7 ar   
    15   10    7 1    
    16    9    8 ar   
    17   40    8 1    
    18   41    9 1    
    19   11   10 1    
    20   21   10 1    
    21   42   10 1    
    22   12   11 1    
    23   15   11 1    
    24   43   11 1    
    25   13   12 1    
    26   44   12 1    
    27   45   12 1    
    28   14   13 1    
    29   46   13 1    
    30   47   13 1    
    31   15   14 1    
    32   48   14 1    
    33   49   14 1    
    34   16   15 1    
    35   50   15 1    
    36   17   16 1    
    37   21   16 1    
    38   51   16 1    
    39   18   17 1    
    40   32   17 1    
    41   52   17 1    
    42   19   18 am   
    43   22   18 1    
    44   20   19 2    
    45   21   19 1    
    46   53   21 1    
    47   23   22 1    
    48   54   22 1    
    49   55   22 1    
    50   24   23 ar   
    51   31   23 ar   
    52   25   24 ar   
    53   56   24 1    
    54   26   25 ar   
    55   57   25 1    
    56   27   26 1    
    57   30   26 ar   
    58   28   27 1    
    59   29   28 1    
    60   58   28 1    
    61   59   28 1    
    62   30   29 1    
    63   31   30 ar   
    64   60   31 1    
    65   33   32 1    
    66   61   32 1    
    67   62   32 1    
    68   63   33 1    
    69   64   33 1    
    70   65   33 1    
@<TRIPOS>SUBSTRUCTURE
     1 UIP5555     1 GROUP   
@<TRIPOS>SET

