#    Name: 3s00_Z60_1_INTS_M
#    Modification time : Tue Mar 25 12:06:09 2014

@<TRIPOS>MOLECULE
3s00_Z60_1_INTS_M
   50     0     9     0     0
SMALL
NO_CHARGES


@<TRIPOS>ATOM
      1 CA        -82.8950   98.6255  -55.9990 C.3       3 GLC5        0.0000 
      2 CA        -81.2810   99.2500  -57.3380 C.3       9 GLL5        0.0000 
      3 CA        -84.5090   98.0010  -54.6600 C.3       6 GLP5        0.0000 
      4 CA        -79.4210   98.3605  -56.8575 C.3       3 GLC5        0.0000 
      5 CA        -77.5610   97.4710  -56.3770 C.3       6 GLP5        0.0000 
      6 N         -77.1305  105.3155  -64.8000 N.am      2 SEC2        0.0000 
      7 N         -78.0420  104.1110  -64.1900 N.am      8 SEL2        0.0000 
      8 N         -76.2190  106.5200  -65.4100 N.am      5 SEP2        0.0000 
      9 O         -79.4660  106.7355  -63.7985 O.2       1 ALC1        0.0000 
     10 O         -79.3860  105.4660  -63.0490 O.2       7 ALL1        0.0000 
     11 O         -79.5460  108.0050  -64.5480 O.2       4 ALP1        0.0000 
     12 N         -82.0970  103.6150  -60.5665 N.am      2 SEC2        0.0000 
     13 N         -80.9120  103.9510  -61.0510 N.am      8 SEL2        0.0000 
     14 N         -83.2820  103.2790  -60.0820 N.am      5 SEP2        0.0000 
     15 CA        -78.5970  100.0865  -64.2320 C.3       3 GLC5        0.0000 
     16 CA        -78.4250  101.7790  -63.1500 C.3       9 GLL5        0.0000 
     17 CA        -78.7690   98.3940  -65.3140 C.3       6 GLP5        0.0000 
     18 CA        -77.1130  102.6390  -62.2440 C.3       3 GLC5        0.0000 
     19 CA        -75.8010  103.4990  -61.3380 C.3       6 GLP5        0.0000 
     20 O         -75.8115  103.4190  -65.4755 O.2       1 ALC1        0.0000 
     21 O         -76.7250  102.4730  -65.1990 O.2       7 ALL1        0.0000 
     22 O         -74.8980  104.3650  -65.7520 O.2       4 ALP1        0.0000 
     23 CA        -77.5415   99.7420  -65.3645 C.3       3 GLC5        0.0000 
     24 CA        -76.3140  101.0900  -65.4150 C.3       9 GLL5        0.0000 
     25 CA        -76.8140  102.0075  -66.9230 C.3       3 GLC5        0.0000 
     26 CA        -77.3140  102.9250  -68.4310 C.3       6 GLP5        0.0000 
     27 CA        -73.6150  102.5640  -66.2065 C.3       3 GLC5        0.0000 
     28 CA        -74.9710  101.0270  -66.1490 C.3       9 GLL5        0.0000 
     29 CA        -72.2590  104.1010  -66.2640 C.3       6 GLP5        0.0000 
     30 CA        -80.2275  101.9720  -57.2090 C.3       3 GLC5        0.0000 
     31 CA        -80.8510  101.7080  -58.9800 C.3       9 GLL5        0.0000 
     32 CA        -79.6040  102.2360  -55.4380 C.3       6 GLP5        0.0000 
     33 CA        -80.6160  103.7780  -58.4640 C.3       3 GLC5        0.0000 
     34 CA        -80.3810  105.8480  -57.9480 C.3       6 GLP5        0.0000 
     35 CA        -80.3473  100.9347  -56.7680 C.3       3 GLC5        0.0000 
     36 CA        -80.9000  100.0170  -58.8580 C.3       9 GLL5        0.0000 
     37 CA        -80.3770  104.0772  -64.1678 C.3       3 GLC5        0.0000 
     38 CA        -79.3220  103.0690  -62.4950 C.3       9 GLL5        0.0000 
     39 CA        -81.6090  104.5210  -65.4950 C.3       6 GLP5        0.0000 
     40 CA        -78.2965  104.3912  -61.6477 C.3       3 GLC5        0.0000 
     41 CA        -78.9680  104.1980  -63.1860 C.3       9 GLL5        0.0000 
     42 CA        -77.4480  105.1490  -60.4550 C.3       6 GLP5        0.0000 
     43 CA        -82.2357  102.4940  -60.6430 C.3       3 GLC5        0.0000 
     44 CA        -80.4500  101.6540  -60.6680 C.3       9 GLL5        0.0000 
     45 CA        -83.8210  103.3070  -61.4620 C.3       6 GLP5        0.0000 
     46 CA        -75.3730  101.6385  -67.5632 C.3       3 GLC5        0.0000 
     47 CA        -75.9920  102.9680  -68.8610 C.3       6 GLP5        0.0000 
     48 CA        -82.1010   99.3803  -61.5858 C.3       3 GLC5        0.0000 
     49 CA        -80.3600  100.3290  -61.0940 C.3       9 GLL5        0.0000 
     50 CA        -83.7110   98.9020  -62.6050 C.3       6 GLP5        0.0000 
@<TRIPOS>BOND
@<TRIPOS>SUBSTRUCTURE
     1 ALC1        9 GROUP        1 X    ALC  0     ROOT ALC X 1
     2 SEC2        6 GROUP        1 X    SEC  0     **** SEC X 2
     3 GLC5        1 GROUP        1 X    GLC  0     **** GLC X 6
     4 ALP1       11 GROUP        1 Y    ALP  0     ROOT ALP Y 8
     5 SEP2        8 GROUP        1 Y    SEP  0     **** SEP Y 9
     6 GLP5        3 GROUP        1 Y    GLP  0     **** GLP Y 13
     7 ALL1       10 GROUP        1 Z    ALL  0     ROOT ALL Z 15
     8 SEL2        7 GROUP        1 Z    SEL  0     **** SEL Z 16
     9 GLL5        2 GROUP        1 Z    GLL  0     **** GLL Z 20
@<TRIPOS>SET

