#    Name: 3s00_Z60_1_ligand
#    Modification time : Tue Mar 25 12:06:09 2014

@<TRIPOS>MOLECULE
3s00_Z60_1_ligand
   26    27     1     0     0
SMALL
NO_CHARGES


@<TRIPOS>ATOM
      1 CL        -81.2810   99.2500  -57.3380 Cl        1 Z60461      0.0000 
      2 N1        -78.0420  104.1110  -64.1900 N.2       1 Z60461      0.0000 
      3 C2        -78.9680  104.1980  -63.1860 C.2       1 Z60461      0.0000 
      4 N3        -79.3860  105.4660  -63.0490 N.pl3     1 Z60461      0.0000 
      5 C4        -79.3220  103.0690  -62.4950 C.2       1 Z60461      0.0000 
      6 C5        -80.2710  102.9450  -61.3960 C.2       1 Z60461      0.0000 
      7 C6        -80.4500  101.6540  -60.6680 C.2       1 Z60461      0.0000 
      8 O7        -80.9120  103.9510  -61.0510 O.2       1 Z60461      0.0000 
      9 S8        -78.4250  101.7790  -63.1500 S.3       1 Z60461      0.0000 
     10 C9        -77.6550  102.8530  -64.2830 C.2       1 Z60461      0.0000 
     11 N10       -76.7250  102.4730  -65.1990 N.pl3     1 Z60461      0.0000 
     12 C11       -76.3140  101.0900  -65.4150 C.3       1 Z60461      0.0000 
     13 C12       -74.9710  101.0270  -66.1490 C.2       1 Z60461      0.0000 
     14 C13       -74.5370   99.5910  -66.3820 C.2       1 Z60461      0.0000 
     15 S14       -80.8510  101.7080  -58.9800 S.3       1 Z60461      0.0000 
     16 C15       -80.9000  100.0170  -58.8580 C.2       1 Z60461      0.0000 
     17 C16       -80.6220   99.3880  -60.0390 C.2       1 Z60461      0.0000 
     18 C17       -80.3600  100.3290  -61.0940 C.2       1 Z60461      0.0000 
     19 H         -79.4226  106.0102  -63.8872 H         1 Z60461      0.0000 
     20 H         -79.6235  105.7532  -62.1210 H         1 Z60461      0.0000 
     21 H         -76.2511  103.1873  -65.8068 H         1 Z60461      0.0000 
     22 H         -77.0553  100.5496  -66.0160 H         1 Z60461      0.0000 
     23 H         -76.2051  100.5594  -64.4613 H         1 Z60461      0.0000 
     24 H         -74.4950  101.7669  -66.4114 H         1 Z60461      0.0000 
     25 H         -80.5954   98.4319  -60.1860 H         1 Z60461      0.0000 
     26 H         -80.1459  100.0500  -61.9967 H         1 Z60461      0.0000 
@<TRIPOS>BOND
     1   16    1 1    
     2    3    2 1    
     3   10    2 2    
     4    4    3 1    
     5    5    3 2    
     6   19    4 1    
     7   20    4 1    
     8    6    5 1    
     9    9    5 1    
    10    7    6 1    
    11    8    6 2    
    12   15    7 1    
    13   18    7 2    
    14   10    9 1    
    15   11   10 1    
    16   12   11 1    
    17   21   11 1    
    18   13   12 1    
    19   22   12 1    
    20   23   12 1    
    21   14   13 2    
    22   24   13 1    
    23   16   15 1    
    24   17   16 2    
    25   18   17 1    
    26   25   17 1    
    27   26   18 1    
@<TRIPOS>SUBSTRUCTURE
     1 Z60461      1 GROUP   
@<TRIPOS>SET

