#    Name: 4b1b_FAD_2_INTS_M
#    Modification time : Tue Mar 25 06:32:40 2014

@<TRIPOS>MOLECULE
4b1b_FAD_2_INTS_M
  124     0     9     0     0
SMALL
NO_CHARGES


@<TRIPOS>ATOM
      1 N          -3.6765   53.6970  -19.3785 N.am      2 SEC2        0.0000 
      2 N          -3.0070   54.1170  -20.5290 N.am      8 SEL2        0.0000 
      3 N          -4.3460   53.2770  -18.2280 N.am      5 SEP2        0.0000 
      4 N          -2.0965   51.7035  -19.8105 N.am      2 SEC2        0.0000 
      5 N          -2.2610   51.8830  -21.3350 N.am      8 SEL2        0.0000 
      6 N          -1.9320   51.5240  -18.2860 N.am      5 SEP2        0.0000 
      7 CA         -0.5900   56.9295  -22.4620 C.3       3 GLC5        0.0000 
      8 CA         -0.4350   55.2770  -21.3900 C.3       9 GLL5        0.0000 
      9 CA         -0.7450   58.5820  -23.5340 C.3       6 GLP5        0.0000 
     10 CA         -2.2810   56.0670  -22.3245 C.3       3 GLC5        0.0000 
     11 CA         -4.1270   56.8570  -23.2590 C.3       6 GLP5        0.0000 
     12 CA          2.0940   56.1545  -21.9750 C.3       3 GLC5        0.0000 
     13 CA          0.7750   55.3790  -20.4700 C.3       9 GLL5        0.0000 
     14 CA          3.4130   56.9300  -23.4800 C.3       6 GLP5        0.0000 
     15 N           2.7635   55.6845  -21.5925 N.am      2 SEC2        0.0000 
     16 N           1.5480   56.5130  -20.8140 N.am      8 SEL2        0.0000 
     17 N           3.9790   54.8560  -22.3710 N.am      5 SEP2        0.0000 
     18 CA          2.6465   57.1015  -21.5735 C.3       3 GLC5        0.0000 
     19 CA          1.8800   57.2730  -19.6670 C.3       9 GLL5        0.0000 
     20 CA          3.6035   61.6585  -22.6945 C.3       3 GLC5        0.0000 
     21 CA          3.2090   61.8800  -20.6590 C.3       9 GLL5        0.0000 
     22 CA          3.9980   61.4370  -24.7300 C.3       6 GLP5        0.0000 
     23 CA          4.9775   62.4515  -19.6595 C.3       3 GLC5        0.0000 
     24 CA          6.7460   63.0230  -18.6600 C.3       6 GLP5        0.0000 
     25 O           3.7860   64.1735  -21.6915 O.2       1 ALC1        0.0000 
     26 O           2.7260   63.0110  -21.1650 O.2       7 ALL1        0.0000 
     27 O           4.8460   65.3360  -22.2180 O.2       4 ALP1        0.0000 
     28 N           5.6230   62.6595  -20.8400 N.am      2 SEC2        0.0000 
     29 N           4.5690   61.6510  -20.6860 N.am      8 SEL2        0.0000 
     30 N           6.6770   63.6680  -20.9940 N.am      5 SEP2        0.0000 
     31 CA          6.7575   59.9315  -21.6555 C.3       3 GLC5        0.0000 
     32 CA          5.0600   60.3810  -20.4600 C.3       9 GLL5        0.0000 
     33 CA          8.4550   59.4820  -22.8510 C.3       6 GLP5        0.0000 
     34 CA          5.7940   58.5650  -20.1305 C.3       3 GLC5        0.0000 
     35 CA          6.5280   56.7490  -19.8010 C.3       6 GLP5        0.0000 
     36 CA          5.6535   60.1790  -18.4880 C.3       3 GLC5        0.0000 
     37 CA          6.2470   59.9770  -16.5160 C.3       6 GLP5        0.0000 
     38 CA          5.9030   61.7020  -19.5600 C.3       3 GLC5        0.0000 
     39 N           4.9330   58.7025  -19.0805 N.am      2 SEC2        0.0000 
     40 N           4.1940   59.3370  -20.2050 N.am      8 SEL2        0.0000 
     41 N           5.6720   58.0680  -17.9560 N.am      5 SEP2        0.0000 
     42 CA          3.1345   58.2415  -21.8275 C.3       3 GLC5        0.0000 
     43 CA          2.8560   59.5530  -20.1750 C.3       9 GLL5        0.0000 
     44 N          -7.7440   46.5130  -23.3940 N.am      2 SEC2        0.0000 
     45 N          -8.7300   46.3230  -22.1140 N.am      8 SEL2        0.0000 
     46 N          -6.7580   46.7030  -24.6740 N.am      5 SEP2        0.0000 
     47 N          -7.6330   45.7380  -24.2090 N.am      2 SEC2        0.0000 
     48 N          -8.5080   44.7730  -23.7440 N.am      8 SEL2        0.0000 
     49 N         -10.8725   45.2105  -17.8875 N.am      2 SEC2        0.0000 
     50 N          -9.8430   45.8800  -18.6570 N.am      8 SEL2        0.0000 
     51 N         -11.9020   44.5410  -17.1180 N.am      5 SEP2        0.0000 
     52 CA        -10.5255   45.2615  -17.3315 C.3       3 GLC5        0.0000 
     53 CA         -9.7600   47.1770  -18.1910 C.3       9 GLL5        0.0000 
     54 CA        -11.2910   43.3460  -16.4720 C.3       6 GLP5        0.0000 
     55 CA        -10.0010   45.9960  -15.4285 C.3       3 GLC5        0.0000 
     56 CA        -10.1050   47.4650  -16.8750 C.3       9 GLL5        0.0000 
     57 CA         -9.8970   44.5270  -13.9820 C.3       6 GLP5        0.0000 
     58 CA        -10.4625   50.6500  -13.5830 C.3       3 GLC5        0.0000 
     59 CA        -10.3940   49.0820  -14.9850 C.3       9 GLL5        0.0000 
     60 CA        -10.5310   52.2180  -12.1810 C.3       6 GLP5        0.0000 
     61 CA         -9.5185   48.6570  -13.1465 C.3       3 GLC5        0.0000 
     62 CA         -8.6430   48.2320  -11.3080 C.3       6 GLP5        0.0000 
     63 CA        -10.0460   53.2020  -17.1305 C.3       3 GLC5        0.0000 
     64 CA         -9.5030   51.1960  -16.7420 C.3       9 GLL5        0.0000 
     65 CA        -10.5890   55.2080  -17.5190 C.3       6 GLP5        0.0000 
     66 CA         -7.7835   46.7180  -19.4170 C.3       3 GLC5        0.0000 
     67 CA         -9.3320   48.1940  -19.0360 C.3       9 GLL5        0.0000 
     68 CA         -6.2350   45.2420  -19.7980 C.3       6 GLP5        0.0000 
     69 CA         -5.4065   47.9630  -20.7355 C.3       3 GLC5        0.0000 
     70 CA         -7.0260   48.9130  -21.4890 C.3       9 GLL5        0.0000 
     71 CA         -3.7870   47.0130  -19.9820 C.3       6 GLP5        0.0000 
     72 CA         -6.6305   47.0775  -20.6435 C.3       3 GLC5        0.0000 
     73 O          -7.4150   51.3815  -24.3775 O.2       1 ALC1        0.0000 
     74 O          -7.4010   50.1910  -23.4820 O.2       7 ALL1        0.0000 
     75 O          -7.4290   52.5720  -25.2730 O.2       4 ALP1        0.0000 
     76 O          -7.2620   51.5570  -23.3050 O.2       1 ALC1        0.0000 
     77 O          -7.1230   52.9230  -23.1280 O.2       4 ALP1        0.0000 
     78 CA         -3.2550   49.0510  -22.9265 C.3       3 GLC5        0.0000 
     79 CA         -5.1170   49.8410  -22.8500 C.3       9 GLL5        0.0000 
     80 CA         -1.3930   48.2610  -23.0030 C.3       6 GLP5        0.0000 
     81 CA         -4.4520   48.4270  -21.4160 C.3       3 GLC5        0.0000 
     82 N          -3.9340   49.4595  -20.1790 N.am      2 SEC2        0.0000 
     83 N          -4.2410   49.8700  -21.7460 N.am      8 SEL2        0.0000 
     84 N          -3.6270   49.0490  -18.6120 N.am      5 SEP2        0.0000 
     85 CA         -2.7450   50.2570  -23.2655 C.3       3 GLC5        0.0000 
     86 CA         -4.7070   50.9170  -23.8480 C.3       9 GLL5        0.0000 
     87 CA         -0.7830   49.5970  -22.6830 C.3       6 GLP5        0.0000 
     88 CA         -4.4035   50.3235  -25.6975 C.3       3 GLC5        0.0000 
     89 CA         -4.1000   49.7300  -27.5470 C.3       6 GLP5        0.0000 
     90 N          -0.6845   51.2830  -25.4835 N.am      2 SEC2        0.0000 
     91 N          -1.3400   52.4230  -24.6530 N.am      8 SEL2        0.0000 
     92 N          -0.0290   50.1430  -26.3140 N.am      5 SEP2        0.0000 
     93 N          -4.7235   53.8565  -26.0560 N.am      2 SEC2        0.0000 
     94 N          -3.6050   53.1200  -25.4150 N.am      8 SEL2        0.0000 
     95 N          -5.8420   54.5930  -26.6970 N.am      5 SEP2        0.0000 
     96 CA          0.6820   53.5120  -21.7205 C.3       3 GLC5        0.0000 
     97 CA          1.1940   51.6960  -22.5110 C.3       6 GLP5        0.0000 
     98 CA          0.5145   53.5995  -19.1043 C.3       3 GLC5        0.0000 
     99 CA          0.4660   51.7430  -18.4650 C.3       6 GLP5        0.0000 
    100 CA          1.7668   62.4027  -18.9860 C.3       3 GLC5        0.0000 
    101 CA          2.3440   60.8230  -20.4010 C.3       9 GLL5        0.0000 
    102 CA          0.7570   63.4540  -17.4420 C.3       6 GLP5        0.0000 
    103 CA          1.6841   60.5931  -22.0123 C.3       3 GLC5        0.0000 
    104 CA          0.5520   60.7340  -23.6720 C.3       6 GLP5        0.0000 
    105 CA         -8.3588   47.5465  -16.6470 C.3       3 GLC5        0.0000 
    106 CA         -6.7850   47.7720  -15.7610 C.3       6 GLP5        0.0000 
    107 CA         -8.5117   45.8160  -17.4100 C.3       3 GLC5        0.0000 
    108 CA         -7.0910   44.3110  -17.2870 C.3       6 GLP5        0.0000 
    109 CA         -8.4962   48.3492  -15.7278 C.3       3 GLC5        0.0000 
    110 CA        -10.0210   48.7710  -16.4040 C.3       9 GLL5        0.0000 
    111 CA        -11.9703   49.5708  -16.1298 C.3       3 GLC5        0.0000 
    112 CA        -13.7330   50.2150  -16.5650 C.3       6 GLP5        0.0000 
    113 CA         -8.1665   49.1320  -16.3783 C.3       3 GLC5        0.0000 
    114 CA        -11.6405   50.3535  -16.7803 C.3       3 GLC5        0.0000 
    115 CA         -9.5930   49.7880  -17.2490 C.3       9 GLL5        0.0000 
    116 CA         -7.5508   50.6623  -17.8021 C.3       3 GLC5        0.0000 
    117 CA         -5.7030   51.3290  -17.8240 C.3       6 GLP5        0.0000 
    118 CA         -8.0377   48.3093  -17.2807 C.3       3 GLC5        0.0000 
    119 CA         -9.2490   49.4990  -18.5650 C.3       9 GLL5        0.0000 
    120 CA         -8.0164   48.5892  -23.6184 C.3       3 GLC5        0.0000 
    121 CA         -6.5460   50.0640  -22.3680 C.3       9 GLL5        0.0000 
    122 CA         -8.8710   47.6660  -25.3670 C.3       6 GLP5        0.0000 
    123 CA         -5.6357   48.0689  -23.5571 C.3       3 GLC5        0.0000 
    124 CA         -5.3200   46.4730  -24.7250 C.3       6 GLP5        0.0000 
@<TRIPOS>BOND
@<TRIPOS>SUBSTRUCTURE
     1 ALC1       25 GROUP        1 X    ALC  0     ROOT ALC X 1
     2 SEC2        1 GROUP        1 X    SEC  0     **** SEC X 2
     3 GLC5        7 GROUP        1 X    GLC  0     **** GLC X 6
     4 ALP1       27 GROUP        1 Y    ALP  0     ROOT ALP Y 8
     5 SEP2        3 GROUP        1 Y    SEP  0     **** SEP Y 9
     6 GLP5        9 GROUP        1 Y    GLP  0     **** GLP Y 13
     7 ALL1       26 GROUP        1 Z    ALL  0     ROOT ALL Z 15
     8 SEL2        2 GROUP        1 Z    SEL  0     **** SEL Z 16
     9 GLL5        8 GROUP        1 Z    GLL  0     **** GLL Z 20
@<TRIPOS>SET

