#    Name: 4b1b_FAD_2_ligand
#    Modification time : Tue Mar 25 06:32:40 2014

@<TRIPOS>MOLECULE
4b1b_FAD_2_ligand
   84    89     1     0     0
SMALL
NO_CHARGES


@<TRIPOS>ATOM
      1 PA         -2.2320   53.3720  -21.5880 P.3       1 FAD1506     0.0000 
      2 O1A        -3.0070   54.1170  -20.5290 O.co2     1 FAD1506     0.0000 
      3 O2A        -2.2610   51.8830  -21.3350 O.co2     1 FAD1506     0.0000 
      4 O5B        -0.7190   53.9190  -21.6400 O.3       1 FAD1506     0.0000 
      5 C5B        -0.4350   55.2770  -21.3900 C.3       1 FAD1506     0.0000 
      6 C4B         0.7750   55.3790  -20.4700 C.3       1 FAD1506     0.0000 
      7 O4B         1.5480   56.5130  -20.8140 O.3       1 FAD1506     0.0000 
      8 C3B         0.3510   55.5330  -19.0170 C.3       1 FAD1506     0.0000 
      9 O3B         0.9060   54.4960  -18.2430 O.3       1 FAD1506     0.0000 
     10 C2B         0.9060   56.8720  -18.5720 C.3       1 FAD1506     0.0000 
     11 O2B         1.5810   56.7400  -17.3440 O.3       1 FAD1506     0.0000 
     12 C1B         1.8800   57.2730  -19.6670 C.3       1 FAD1506     0.0000 
     13 N9A         1.7910   58.7180  -19.9510 N.pl3     1 FAD1506     0.0000 
     14 C8A         0.6480   59.4700  -20.0390 C.2       1 FAD1506     0.0000 
     15 N7A         0.9970   60.7480  -20.3130 N.2       1 FAD1506     0.0000 
     16 C5A         2.3440   60.8230  -20.4010 C.ar      1 FAD1506     0.0000 
     17 C6A         3.2090   61.8800  -20.6590 C.ar      1 FAD1506     0.0000 
     18 N6A         2.7260   63.0110  -21.1650 N.pl3     1 FAD1506     0.0000 
     19 N1A         4.5690   61.6510  -20.6860 N.ar      1 FAD1506     0.0000 
     20 C2A         5.0600   60.3810  -20.4600 C.ar      1 FAD1506     0.0000 
     21 N3A         4.1940   59.3370  -20.2050 N.ar      1 FAD1506     0.0000 
     22 C4A         2.8560   59.5530  -20.1750 C.ar      1 FAD1506     0.0000 
     23 N1         -8.7300   46.3230  -22.1140 N.2       1 FAD1506     0.0000 
     24 C2         -8.8130   45.0270  -22.5800 C.2       1 FAD1506     0.0000 
     25 O2         -8.5080   44.7730  -23.7440 O.2       1 FAD1506     0.0000 
     26 N3         -9.2380   44.0140  -21.7440 N.am      1 FAD1506     0.0000 
     27 C4         -9.5820   44.2920  -20.4380 C.2       1 FAD1506     0.0000 
     28 O4         -9.9600   43.3880  -19.6960 O.2       1 FAD1506     0.0000 
     29 C4X        -9.5000   45.5960  -19.9640 C.2       1 FAD1506     0.0000 
     30 N5         -9.8430   45.8800  -18.6570 N.2       1 FAD1506     0.0000 
     31 C5X        -9.7600   47.1770  -18.1910 C.ar      1 FAD1506     0.0000 
     32 C6        -10.1050   47.4650  -16.8750 C.ar      1 FAD1506     0.0000 
     33 C7        -10.0210   48.7710  -16.4040 C.ar      1 FAD1506     0.0000 
     34 C7M       -10.3940   49.0820  -14.9850 C.3       1 FAD1506     0.0000 
     35 C8         -9.5930   49.7880  -17.2490 C.ar      1 FAD1506     0.0000 
     36 C8M        -9.5030   51.1960  -16.7420 C.3       1 FAD1506     0.0000 
     37 C9         -9.2490   49.4990  -18.5650 C.ar      1 FAD1506     0.0000 
     38 C9A        -9.3320   48.1940  -19.0360 C.ar      1 FAD1506     0.0000 
     39 N10        -8.9870   47.9090  -20.3420 N.pl3     1 FAD1506     0.0000 
     40 C10        -9.0720   46.6130  -20.8090 C.2       1 FAD1506     0.0000 
     41 C1'        -8.5290   49.0090  -21.2540 C.3       1 FAD1506     0.0000 
     42 C2'        -7.0260   48.9130  -21.4890 C.3       1 FAD1506     0.0000 
     43 O2'        -6.3570   48.9540  -20.2490 O.3       1 FAD1506     0.0000 
     44 C3'        -6.5460   50.0640  -22.3680 C.3       1 FAD1506     0.0000 
     45 O3'        -7.4010   50.1910  -23.4820 O.3       1 FAD1506     0.0000 
     46 C4'        -5.1170   49.8410  -22.8500 C.3       1 FAD1506     0.0000 
     47 O4'        -4.2410   49.8700  -21.7460 O.3       1 FAD1506     0.0000 
     48 C5'        -4.7070   50.9170  -23.8480 C.3       1 FAD1506     0.0000 
     49 O5'        -3.3760   51.3080  -23.5960 O.3       1 FAD1506     0.0000 
     50 P          -2.7740   52.6570  -24.2420 P.3       1 FAD1506     0.0000 
     51 O1P        -1.3400   52.4230  -24.6530 O.co2     1 FAD1506     0.0000 
     52 O2P        -3.6050   53.1200  -25.4150 O.co2     1 FAD1506     0.0000 
     53 O3P        -2.8280   53.7280  -23.0410 O.3       1 FAD1506     0.0000 
     54 H          -1.2702   55.7915  -20.8980 H         1 FAD1506     0.0000 
     55 H          -0.1998   55.8275  -22.3097 H         1 FAD1506     0.0000 
     56 H           1.3520   54.4728  -20.5570 H         1 FAD1506     0.0000 
     57 H          -0.7086   55.5740  -18.9785 H         1 FAD1506     0.0000 
     58 H           0.1133   57.5771  -18.5533 H         1 FAD1506     0.0000 
     59 H           2.8755   57.0275  -19.3211 H         1 FAD1506     0.0000 
     60 H          -0.2455   59.1357  -19.9238 H         1 FAD1506     0.0000 
     61 H           1.7483   63.0169  -21.3750 H         1 FAD1506     0.0000 
     62 H           3.3841   63.7536  -21.2898 H         1 FAD1506     0.0000 
     63 H           6.0789   60.2113  -20.4818 H         1 FAD1506     0.0000 
     64 H          -9.2982   43.0455  -22.0984 H         1 FAD1506     0.0000 
     65 H         -10.4222   46.7126  -16.2501 H         1 FAD1506     0.0000 
     66 H          -8.9327   50.2522  -19.1905 H         1 FAD1506     0.0000 
     67 H          -8.7568   49.9784  -20.8099 H         1 FAD1506     0.0000 
     68 H          -9.0428   48.9344  -22.2128 H         1 FAD1506     0.0000 
     69 H          -6.8287   47.9872  -22.0133 H         1 FAD1506     0.0000 
     70 H          -6.5569   50.9690  -21.7659 H         1 FAD1506     0.0000 
     71 H          -5.0801   48.8842  -23.3555 H         1 FAD1506     0.0000 
     72 H          -5.4113   51.7523  -23.7432 H         1 FAD1506     0.0000 
     73 H          -4.8328   50.5001  -24.8556 H         1 FAD1506     0.0000 
     74 H          -9.8227   48.5834  -14.3330 H         1 FAD1506     0.0000 
     75 H         -10.2926   50.0553  -14.7791 H         1 FAD1506     0.0000 
     76 H         -11.3438   48.8383  -14.7887 H         1 FAD1506     0.0000 
     77 H          -8.8696   51.2737  -15.9721 H         1 FAD1506     0.0000 
     78 H          -9.1828   51.8258  -17.4497 H         1 FAD1506     0.0000 
     79 H         -10.3897   51.5348  -16.4274 H         1 FAD1506     0.0000 
     80 H           1.5760   54.9448  -17.6517 H         1 FAD1506     0.0000 
     81 H           1.2225   57.4772  -16.7712 H         1 FAD1506     0.0000 
     82 H          -5.4296   49.2593  -20.4654 H         1 FAD1506     0.0000 
     83 H          -7.4812   51.1759  -23.6356 H         1 FAD1506     0.0000 
     84 H          -3.6901   50.6946  -21.8745 H         1 FAD1506     0.0000 
@<TRIPOS>BOND
     1    2    1 ar   
     2    3    1 ar   
     3    4    1 1    
     4   53    1 1    
     5    5    4 1    
     6    6    5 1    
     7   54    5 1    
     8   55    5 1    
     9    7    6 1    
    10    8    6 1    
    11   56    6 1    
    12   12    7 1    
    13    9    8 1    
    14   10    8 1    
    15   57    8 1    
    16   80    9 1    
    17   11   10 1    
    18   12   10 1    
    19   58   10 1    
    20   81   11 1    
    21   13   12 1    
    22   59   12 1    
    23   14   13 1    
    24   22   13 1    
    25   15   14 2    
    26   60   14 1    
    27   16   15 1    
    28   17   16 ar   
    29   22   16 ar   
    30   18   17 1    
    31   19   17 ar   
    32   61   18 1    
    33   62   18 1    
    34   20   19 ar   
    35   21   20 ar   
    36   63   20 1    
    37   22   21 ar   
    38   24   23 1    
    39   40   23 2    
    40   25   24 2    
    41   26   24 am   
    42   27   26 am   
    43   64   26 1    
    44   28   27 2    
    45   29   27 1    
    46   30   29 2    
    47   40   29 1    
    48   31   30 1    
    49   32   31 ar   
    50   38   31 ar   
    51   33   32 ar   
    52   65   32 1    
    53   34   33 1    
    54   35   33 ar   
    55   74   34 1    
    56   75   34 1    
    57   76   34 1    
    58   36   35 1    
    59   37   35 ar   
    60   77   36 1    
    61   78   36 1    
    62   79   36 1    
    63   38   37 ar   
    64   66   37 1    
    65   39   38 1    
    66   40   39 1    
    67   41   39 1    
    68   42   41 1    
    69   67   41 1    
    70   68   41 1    
    71   43   42 1    
    72   44   42 1    
    73   69   42 1    
    74   82   43 1    
    75   45   44 1    
    76   46   44 1    
    77   70   44 1    
    78   83   45 1    
    79   47   46 1    
    80   48   46 1    
    81   71   46 1    
    82   84   47 1    
    83   49   48 1    
    84   72   48 1    
    85   73   48 1    
    86   50   49 1    
    87   51   50 ar   
    88   52   50 ar   
    89   53   50 1    
@<TRIPOS>SUBSTRUCTURE
     1 FAD1506     1 GROUP   
@<TRIPOS>SET

