#    Name: 3hyo_ADP_1_INTS_M
#    Modification time : Tue Mar 25 15:22:05 2014

@<TRIPOS>MOLECULE
3hyo_ADP_1_INTS_M
   68     0    12     0     0
SMALL
NO_CHARGES


@<TRIPOS>ATOM
      1 Zn         19.2675   27.1835   18.5630 Zn        3 ZIC7        0.0000 
      2 Zn         18.6290   26.7670   19.2660 Zn       11 ZIL7        0.0000 
      3 Zn         19.9060   27.6000   17.8600 Zn        7 ZIP7        0.0000 
      4 N          19.1360   25.3700   21.8345 N.am      2 SEC2        0.0000 
      5 N          18.1750   26.3040   21.6820 N.am     10 SEL2        0.0000 
      6 N          20.0970   24.4360   21.9870 N.am      6 SEP2        0.0000 
      7 N          18.9785   24.3260   16.0355 N.am      2 SEC2        0.0000 
      8 N          18.4440   24.0780   17.4580 N.am     10 SEL2        0.0000 
      9 N          19.5130   24.5740   14.6130 N.am      6 SEP2        0.0000 
     10 N          17.5925   24.0810   21.2670 N.am      2 SEC2        0.0000 
     11 N          17.9010   24.7240   19.8630 N.am     10 SEL2        0.0000 
     12 N          17.2840   23.4380   22.6710 N.am      6 SEP2        0.0000 
     13 CA         18.4610   22.1490   21.2120 C.3       4 GLC5        0.0000 
     14 CA         18.8520   21.9240   19.2020 C.3      12 GLL5        0.0000 
     15 CA         18.0700   22.3740   23.2220 C.3       8 GLP5        0.0000 
     16 CA         19.9085   23.3810   20.0440 C.3       4 GLC5        0.0000 
     17 CA         20.9650   24.8380   20.8860 C.3       8 GLP5        0.0000 
     18 CA         19.5655   20.5125   20.6810 C.3       4 GLC5        0.0000 
     19 CA         20.2790   19.1010   22.1600 C.3       8 GLP5        0.0000 
     20 CA         19.7285   19.3410   20.1020 C.3       4 GLC5        0.0000 
     21 CA         18.5900   20.4400   19.1530 C.3      12 GLL5        0.0000 
     22 CA         20.8670   18.2420   21.0510 C.3       8 GLP5        0.0000 
     23 CA         15.3370   20.0910   17.9090 C.3       4 GLC5        0.0000 
     24 CA         17.4830   20.0230   18.1840 C.3      12 GLL5        0.0000 
     25 CA         13.1910   20.1590   17.6340 C.3       8 GLP5        0.0000 
     26 O          17.9595   20.6040   15.9565 O.2       1 ALC1        0.0000 
     27 O          18.0820   19.8430   16.9690 O.2       9 ALL1        0.0000 
     28 O          17.8370   21.3650   14.9440 O.2       5 ALP1        0.0000 
     29 CA         15.3540   17.9195   18.2270 C.3       4 GLC5        0.0000 
     30 CA         17.1610   18.6910   18.7340 C.3      12 GLL5        0.0000 
     31 CA         13.5470   17.1480   17.7200 C.3       8 GLP5        0.0000 
     32 CA         18.7290   17.7575   19.9195 C.3       4 GLC5        0.0000 
     33 CA         20.2970   16.8240   21.1050 C.3       8 GLP5        0.0000 
     34 O          17.8260   16.7225   17.8185 O.2       1 ALC1        0.0000 
     35 O          18.2870   17.9000   18.4430 O.2       9 ALL1        0.0000 
     36 O          17.3650   15.5450   17.1940 O.2       5 ALP1        0.0000 
     37 CA         18.7575   19.0230   21.1940 C.3       4 GLC5        0.0000 
     38 CA         17.2360   18.9450   20.2280 C.3      12 GLL5        0.0000 
     39 CA         13.5245   19.6340   19.6195 C.3       4 GLC5        0.0000 
     40 CA         13.8580   19.1090   21.6050 C.3      12 GLL5        0.0000 
     41 CA         11.2055   17.8465   20.6495 C.3       4 GLC5        0.0000 
     42 CA         12.6580   18.3650   22.0460 C.3      12 GLL5        0.0000 
     43 CA          9.7530   17.3280   19.2530 C.3       8 GLP5        0.0000 
     44 CA         11.2985   16.7310   22.6090 C.3       4 GLC5        0.0000 
     45 CA          9.9390   15.0970   23.1720 C.3       8 GLP5        0.0000 
     46 CA         13.3160   17.7185   23.9230 C.3       4 GLC5        0.0000 
     47 CA         13.9740   17.0720   25.8000 C.3       8 GLP5        0.0000 
     48 O          10.4630   18.2090   22.8140 O.2       1 ALC1        0.0000 
     49 O          11.5680   18.9940   22.5270 O.2       9 ALL1        0.0000 
     50 O           9.3580   17.4240   23.1010 O.2       5 ALP1        0.0000 
     51 O          10.0370   19.3490   22.2500 O.2       1 ALC1        0.0000 
     52 O           8.5060   19.7040   21.9730 O.2       5 ALP1        0.0000 
     53 N          11.6360   16.1680   21.8740 N.am      2 SEC2        0.0000 
     54 N          12.7510   17.0500   21.9090 N.am     10 SEL2        0.0000 
     55 N          10.5210   15.2860   21.8390 N.am      6 SEP2        0.0000 
     56 CA         13.6870   16.7860   19.5850 C.3       4 GLC5        0.0000 
     57 CA         13.8270   16.4240   21.4500 C.3      12 GLL5        0.0000 
     58 CA         12.2770   15.7105   20.4325 C.3       4 GLC5        0.0000 
     59 CA         10.7270   14.9970   19.4150 C.3       8 GLP5        0.0000 
     60 CA         12.9270   15.0595   22.6225 C.3       4 GLC5        0.0000 
     61 CA         12.0270   13.6950   23.7950 C.3       8 GLP5        0.0000 
     62 CA         13.9005   16.7480   23.6250 C.3       4 GLC5        0.0000 
     63 CA         14.2745   17.7490   19.4135 C.3       4 GLC5        0.0000 
     64 CA         15.0020   18.3500   21.1070 C.3      12 GLL5        0.0000 
     65 CA         20.3335   21.2155   18.1932 C.3       4 GLC5        0.0000 
     66 CA         21.9460   21.2490   17.2090 C.3       8 GLP5        0.0000 
     67 CA         15.2965   18.4172   23.1775 C.3       4 GLC5        0.0000 
     68 CA         16.1630   18.1050   24.9990 C.3       8 GLP5        0.0000 
@<TRIPOS>BOND
@<TRIPOS>SUBSTRUCTURE
     1 ALC1       26 GROUP        1 X    ALC  0     ROOT ALC X 1
     2 SEC2        4 GROUP        1 X    SEC  0     **** SEC X 2
     3 ZIC7        1 GROUP        1 X    ZIC  0     **** ZIC X 5
     4 GLC5       13 GROUP        1 X    GLC  0     **** GLC X 6
     5 ALP1       28 GROUP        1 Y    ALP  0     ROOT ALP Y 8
     6 SEP2        6 GROUP        1 Y    SEP  0     **** SEP Y 9
     7 ZIP7        3 GROUP        1 Y    ZIP  0     **** ZIP Y 12
     8 GLP5       15 GROUP        1 Y    GLP  0     **** GLP Y 13
     9 ALL1       27 GROUP        1 Z    ALL  0     ROOT ALL Z 15
    10 SEL2        5 GROUP        1 Z    SEL  0     **** SEL Z 16
    11 ZIL7        2 GROUP        1 Z    ZIL  0     **** ZIL Z 19
    12 GLL5       14 GROUP        1 Z    GLL  0     **** GLL Z 20
@<TRIPOS>SET

