#    Name: 3hyo_ADP_1_ligand
#    Modification time : Tue Mar 25 15:22:05 2014

@<TRIPOS>MOLECULE
3hyo_ADP_1_ligand
   39    41     1     0     0
SMALL
NO_CHARGES


@<TRIPOS>ATOM
      1 PB         17.7570   26.2300   20.3010 P.3       1 ADP281      0.0000 
      2 O1B        16.3760   26.6870   20.2280 O.co2     1 ADP281      0.0000 
      3 O2B        18.6290   26.7670   19.2660 O.co2     1 ADP281      0.0000 
      4 O3B        18.1750   26.3040   21.6820 O.co2     1 ADP281      0.0000 
      5 PA         17.4530   23.9210   18.5360 P.3       1 ADP281      0.0000 
      6 O1A        18.4440   24.0780   17.4580 O.co2     1 ADP281      0.0000 
      7 O2A        16.0320   24.1780   18.3150 O.co2     1 ADP281      0.0000 
      8 O3A        17.9010   24.7240   19.8630 O.3       1 ADP281      0.0000 
      9 O5'        17.6130   22.5120   19.2400 O.3       1 ADP281      0.0000 
     10 C5'        18.8520   21.9240   19.2020 C.3       1 ADP281      0.0000 
     11 C4'        18.5900   20.4400   19.1530 C.3       1 ADP281      0.0000 
     12 O4'        18.2070   19.9690   20.4020 O.3       1 ADP281      0.0000 
     13 C3'        17.4830   20.0230   18.1840 C.3       1 ADP281      0.0000 
     14 O3'        18.0820   19.8430   16.9690 O.3       1 ADP281      0.0000 
     15 C2'        17.1610   18.6910   18.7340 C.3       1 ADP281      0.0000 
     16 O2'        18.2870   17.9000   18.4430 O.3       1 ADP281      0.0000 
     17 C1'        17.2360   18.9450   20.2280 C.3       1 ADP281      0.0000 
     18 N9         15.8940   19.2420   20.7850 N.pl3     1 ADP281      0.0000 
     19 C8         15.4000   20.4300   21.0330 C.2       1 ADP281      0.0000 
     20 N7         14.1850   20.3670   21.5390 N.2       1 ADP281      0.0000 
     21 C5         13.8580   19.1090   21.6050 C.ar      1 ADP281      0.0000 
     22 C6         12.6580   18.3650   22.0460 C.ar      1 ADP281      0.0000 
     23 N6         11.5680   18.9940   22.5270 N.pl3     1 ADP281      0.0000 
     24 N1         12.7510   17.0500   21.9090 N.ar      1 ADP281      0.0000 
     25 C2         13.8270   16.4240   21.4500 C.ar      1 ADP281      0.0000 
     26 N3         14.9420   17.0130   21.0420 N.ar      1 ADP281      0.0000 
     27 C4         15.0020   18.3500   21.1070 C.ar      1 ADP281      0.0000 
     28 H          19.4519   22.1256   20.0875 H         1 ADP281      0.0000 
     29 H          19.4274   22.1884   18.3168 H         1 ADP281      0.0000 
     30 H          19.5055   19.9340   18.8248 H         1 ADP281      0.0000 
     31 H          16.7068   20.6618   18.2542 H         1 ADP281      0.0000 
     32 H          16.2749   18.3487   18.4563 H         1 ADP281      0.0000 
     33 H          17.6083   18.0048   20.6707 H         1 ADP281      0.0000 
     34 H          15.8867   21.2895   20.8594 H         1 ADP281      0.0000 
     35 H          11.7334   19.8541   23.0095 H         1 ADP281      0.0000 
     36 H          10.6906   18.5447   22.3586 H         1 ADP281      0.0000 
     37 H          13.7906   15.3393   21.4051 H         1 ADP281      0.0000 
     38 H          17.7920   20.6262   16.4191 H         1 ADP281      0.0000 
     39 H          17.9175   17.0607   18.0442 H         1 ADP281      0.0000 
@<TRIPOS>BOND
     1    2    1 ar   
     2    3    1 ar   
     3    4    1 ar   
     4    8    1 1    
     5    6    5 ar   
     6    7    5 ar   
     7    8    5 1    
     8    9    5 1    
     9   10    9 1    
    10   11   10 1    
    11   28   10 1    
    12   29   10 1    
    13   12   11 1    
    14   13   11 1    
    15   30   11 1    
    16   17   12 1    
    17   14   13 1    
    18   15   13 1    
    19   31   13 1    
    20   38   14 1    
    21   16   15 1    
    22   17   15 1    
    23   32   15 1    
    24   39   16 1    
    25   18   17 1    
    26   33   17 1    
    27   19   18 1    
    28   27   18 1    
    29   20   19 2    
    30   34   19 1    
    31   21   20 1    
    32   22   21 ar   
    33   27   21 ar   
    34   23   22 1    
    35   24   22 ar   
    36   35   23 1    
    37   36   23 1    
    38   25   24 ar   
    39   26   25 ar   
    40   37   25 1    
    41   27   26 ar   
@<TRIPOS>SUBSTRUCTURE
     1 ADP281      1 GROUP   
@<TRIPOS>SET

