#    Name: 1yet_GDM_1_INTS_M
#    Modification time : Mon Apr  7 15:44:02 2014

@<TRIPOS>MOLECULE
1yet_GDM_1_INTS_M
   58     0     9     0     0
SMALL
NO_CHARGES


@<TRIPOS>ATOM
      1 N          37.0570  -50.9645   68.1645 N.am      2 SEC2        0.0000 
      2 N          38.4350  -50.9890   68.1470 N.am      8 SEL2        0.0000 
      3 N          35.6790  -50.9400   68.1820 N.am      5 SEP2        0.0000 
      4 N          44.8160  -42.7600   65.6280 N.am      2 SEC2        0.0000 
      5 N          44.9430  -43.4780   64.4210 N.am      8 SEL2        0.0000 
      6 N          44.6890  -42.0420   66.8350 N.am      5 SEP2        0.0000 
      7 N          43.0160  -50.5625   68.5735 N.am      2 SEC2        0.0000 
      8 N          42.1120  -49.4480   68.1200 N.am      8 SEL2        0.0000 
      9 N          43.9200  -51.6770   69.0270 N.am      5 SEP2        0.0000 
     10 O          36.0775  -42.1270   61.6285 O.2       1 ALC1        0.0000 
     11 O          36.7290  -43.1860   62.2470 O.2       7 ALL1        0.0000 
     12 O          35.4260  -41.0680   61.0100 O.2       4 ALP1        0.0000 
     13 CA         40.7880  -47.4700   61.7830 C.3       3 GLC5        0.0000 
     14 CA         39.8560  -47.9390   63.4440 C.3       9 GLL5        0.0000 
     15 CA         41.7200  -47.0010   60.1220 C.3       6 GLP5        0.0000 
     16 CA         41.5630  -45.7165   61.8570 C.3       3 GLC5        0.0000 
     17 CA         41.4060  -44.4320   63.5920 C.3       9 GLL5        0.0000 
     18 CA         40.1170  -51.6260   64.2470 C.3       3 GLC5        0.0000 
     19 CA         40.6640  -51.2890   66.1240 C.3       9 GLL5        0.0000 
     20 CA         39.5700  -51.9630   62.3700 C.3       6 GLP5        0.0000 
     21 CA         41.7890  -52.0025   67.7695 C.3       3 GLC5        0.0000 
     22 CA         42.9140  -52.7160   69.4150 C.3       6 GLP5        0.0000 
     23 CA         38.9745  -47.6465   60.6265 C.3       3 GLC5        0.0000 
     24 CA         37.8540  -48.5360   61.7580 C.3       9 GLL5        0.0000 
     25 CA         40.0950  -46.7570   59.4950 C.3       6 GLP5        0.0000 
     26 CA         38.4645  -50.0460   60.8555 C.3       3 GLC5        0.0000 
     27 CA         39.0750  -51.5560   59.9530 C.3       6 GLP5        0.0000 
     28 CA         36.5375  -49.6335   62.6355 C.3       3 GLC5        0.0000 
     29 CA         35.2210  -50.7310   63.5130 C.3       6 GLP5        0.0000 
     30 CA         37.3150  -48.4795   59.7520 C.3       3 GLC5        0.0000 
     31 CA         36.7760  -48.4230   57.7460 C.3       6 GLP5        0.0000 
     32 CA         38.0360  -44.7200   65.9000 C.3       3 GLC5        0.0000 
     33 CA         39.9400  -44.8150   65.6040 C.3       9 GLL5        0.0000 
     34 CA         36.1320  -44.6250   66.1960 C.3       6 GLP5        0.0000 
     35 CA         41.3180  -40.7495   63.9755 C.3       3 GLC5        0.0000 
     36 CA         42.4790  -42.2760   63.9780 C.3       9 GLL5        0.0000 
     37 CA         40.1570  -39.2230   63.9730 C.3       6 GLP5        0.0000 
     38 CA         43.5330  -41.0565   64.7845 C.3       3 GLC5        0.0000 
     39 CA         44.5870  -39.8370   65.5910 C.3       6 GLP5        0.0000 
     40 CA         42.8125  -40.9860   62.7010 C.3       3 GLC5        0.0000 
     41 CA         43.1460  -39.6960   61.4240 C.3       6 GLP5        0.0000 
     42 CA         43.9905  -46.0060   60.8940 C.3       3 GLC5        0.0000 
     43 CA         45.4000  -46.4540   62.3080 C.3       9 GLL5        0.0000 
     44 CA         42.5810  -45.5580   59.4800 C.3       6 GLP5        0.0000 
     45 CA         45.7945  -46.8805   60.5305 C.3       3 GLC5        0.0000 
     46 CA         46.1890  -47.3070   58.7530 C.3       6 GLP5        0.0000 
     47 CA         45.2965  -48.4710   62.7765 C.3       3 GLC5        0.0000 
     48 CA         45.1930  -50.4880   63.2450 C.3       6 GLP5        0.0000 
     49 CA         39.7498  -50.1886   63.3086 C.3       3 GLC5        0.0000 
     50 CA         39.7130  -48.9800   65.7140 C.3       9 GLL5        0.0000 
     51 CA         37.5210  -45.4365   64.7670 C.3       3 GLC5        0.0000 
     52 CA         38.7090  -46.9950   63.5290 C.3       9 GLL5        0.0000 
     53 CA         39.5025  -46.5025   61.4165 C.3       3 GLC5        0.0000 
     54 CA         39.1110  -45.5010   63.1470 C.3       9 GLL5        0.0000 
     55 CA         44.5502  -49.1875   64.5710 C.3       3 GLC5        0.0000 
     56 CA         43.4520  -48.3420   65.5110 C.3       9 GLL5        0.0000 
     57 CA         38.2779  -50.6749   65.9468 C.3       3 GLC5        0.0000 
     58 CA         36.3260  -50.9420   65.7770 C.3       6 GLP5        0.0000 
@<TRIPOS>BOND
@<TRIPOS>SUBSTRUCTURE
     1 ALC1       10 GROUP        1 X    ALC  0     ROOT ALC X 1
     2 SEC2        1 GROUP        1 X    SEC  0     **** SEC X 2
     3 GLC5       13 GROUP        1 X    GLC  0     **** GLC X 6
     4 ALP1       12 GROUP        1 Y    ALP  0     ROOT ALP Y 8
     5 SEP2        3 GROUP        1 Y    SEP  0     **** SEP Y 9
     6 GLP5       15 GROUP        1 Y    GLP  0     **** GLP Y 13
     7 ALL1       11 GROUP        1 Z    ALL  0     ROOT ALL Z 15
     8 SEL2        2 GROUP        1 Z    SEL  0     **** SEL Z 16
     9 GLL5       14 GROUP        1 Z    GLL  0     **** GLL Z 20
@<TRIPOS>SET

