#    Name: 1yet_GDM_1_ligand
#    Modification time : Mon Apr  7 15:44:02 2014

@<TRIPOS>MOLECULE
1yet_GDM_1_ligand
   80    81     1     0     0
SMALL
NO_CHARGES


@<TRIPOS>ATOM
      1 O1         38.4350  -50.9890   68.1470 O.2       1 GDM275      0.0000 
      2 O2         37.5890  -47.3870   62.6380 O.3       1 GDM275      0.0000 
      3 O3         37.9680  -44.7170   63.2480 O.3       1 GDM275      0.0000 
      4 O4         38.9370  -43.2560   61.7630 O.2       1 GDM275      0.0000 
      5 O5         44.9430  -43.4780   64.4210 O.3       1 GDM275      0.0000 
      6 O6         45.4050  -46.2650   63.7580 O.3       1 GDM275      0.0000 
      7 O7         43.2450  -44.8190   68.5200 O.3       1 GDM275      0.0000 
      8 O8         40.6420  -44.5160   69.2530 O.2       1 GDM275      0.0000 
      9 O9         42.1120  -49.4480   68.1200 O.2       1 GDM275      0.0000 
     10 N1         39.5890  -49.1610   68.8170 N.am      1 GDM275      0.0000 
     11 N2         36.7290  -43.1860   62.2470 N.am      1 GDM275      0.0000 
     12 C1         39.2170  -50.1180   67.8480 C.2       1 GDM275      0.0000 
     13 C2         39.8780  -50.0730   66.5040 C.2       1 GDM275      0.0000 
     14 C3         39.7130  -48.9800   65.7140 C.2       1 GDM275      0.0000 
     15 C4         40.2930  -48.7990   64.3870 C.2       1 GDM275      0.0000 
     16 C5         39.8560  -47.9390   63.4440 C.2       1 GDM275      0.0000 
     17 C6         38.7090  -46.9950   63.5290 C.3       1 GDM275      0.0000 
     18 C7         39.1110  -45.5010   63.1470 C.3       1 GDM275      0.0000 
     19 C8         40.2740  -44.8800   64.1120 C.2       1 GDM275      0.0000 
     20 C9         41.4060  -44.4320   63.5920 C.2       1 GDM275      0.0000 
     21 C10        42.5670  -43.7870   64.2880 C.3       1 GDM275      0.0000 
     22 C11        43.9320  -44.3370   63.8430 C.3       1 GDM275      0.0000 
     23 C12        44.1430  -45.7890   64.2740 C.3       1 GDM275      0.0000 
     24 C13        44.1980  -45.9760   65.7870 C.3       1 GDM275      0.0000 
     25 C14        44.3630  -47.4320   66.2830 C.3       1 GDM275      0.0000 
     26 C15        44.1620  -47.5820   67.8310 C.3       1 GDM275      0.0000 
     27 C16        42.7820  -47.1900   68.2720 C.2       1 GDM275      0.0000 
     28 C17        42.3590  -45.9580   68.5760 C.2       1 GDM275      0.0000 
     29 C18        40.9730  -45.6670   68.9870 C.2       1 GDM275      0.0000 
     30 C19        40.0010  -46.7620   69.0660 C.2       1 GDM275      0.0000 
     31 C20        40.3710  -48.0090   68.7820 C.2       1 GDM275      0.0000 
     32 C21        41.7830  -48.2910   68.3730 C.2       1 GDM275      0.0000 
     33 C22        40.6640  -51.2890   66.1240 C.3       1 GDM275      0.0000 
     34 C23        37.8540  -48.5360   61.7580 C.3       1 GDM275      0.0000 
     35 C24        37.9700  -43.6720   62.3560 C.2       1 GDM275      0.0000 
     36 C25        39.9400  -44.8150   65.6040 C.3       1 GDM275      0.0000 
     37 C26        42.4790  -42.2760   63.9780 C.3       1 GDM275      0.0000 
     38 C27        45.4000  -46.4540   62.3080 C.3       1 GDM275      0.0000 
     39 C28        43.4520  -48.3420   65.5110 C.3       1 GDM275      0.0000 
     40 C29        44.6220  -44.8250   68.9240 C.3       1 GDM275      0.0000 
     41 H          39.1589  -49.3812   69.8325 H         1 GDM275      0.0000 
     42 H          36.0334  -43.6239   62.8165 H         1 GDM275      0.0000 
     43 H          36.6079  -42.4283   61.6058 H         1 GDM275      0.0000 
     44 H          39.1191  -48.1681   66.0554 H         1 GDM275      0.0000 
     45 H          41.1357  -49.4216   64.1858 H         1 GDM275      0.0000 
     46 H          40.3662  -47.8918   62.4955 H         1 GDM275      0.0000 
     47 H          38.3380  -46.9448   64.5545 H         1 GDM275      0.0000 
     48 H          39.5155  -45.5203   62.1518 H         1 GDM275      0.0000 
     49 H          41.5770  -44.5140   62.5217 H         1 GDM275      0.0000 
     50 H          42.4622  -43.9028   65.3522 H         1 GDM275      0.0000 
     51 H          43.9719  -44.2820   62.7636 H         1 GDM275      0.0000 
     52 H          43.3382  -46.3930   63.8854 H         1 GDM275      0.0000 
     53 H          43.2735  -45.5594   66.2370 H         1 GDM275      0.0000 
     54 H          45.0352  -45.3738   66.1959 H         1 GDM275      0.0000 
     55 H          45.4046  -47.7299   66.0656 H         1 GDM275      0.0000 
     56 H          44.9122  -46.9569   68.3262 H         1 GDM275      0.0000 
     57 H          44.3638  -48.6257   68.0933 H         1 GDM275      0.0000 
     58 H          39.0453  -46.5044   69.3473 H         1 GDM275      0.0000 
     59 H          41.0774  -51.1959   65.2182 H         1 GDM275      0.0000 
     60 H          41.4075  -51.4671   66.7686 H         1 GDM275      0.0000 
     61 H          40.0921  -52.1091   66.1024 H         1 GDM275      0.0000 
     62 H          38.6248  -48.3640   61.1446 H         1 GDM275      0.0000 
     63 H          38.0729  -49.3606   62.2796 H         1 GDM275      0.0000 
     64 H          37.0650  -48.7535   61.1834 H         1 GDM275      0.0000 
     65 H          40.6902  -44.4221   66.1358 H         1 GDM275      0.0000 
     66 H          39.1311  -44.2538   65.7794 H         1 GDM275      0.0000 
     67 H          39.7555  -45.7218   65.9831 H         1 GDM275      0.0000 
     68 H          43.2225  -41.7646   64.4089 H         1 GDM275      0.0000 
     69 H          42.5293  -42.0948   62.9958 H         1 GDM275      0.0000 
     70 H          41.6217  -41.8789   64.3057 H         1 GDM275      0.0000 
     71 H          46.2832  -46.7826   61.9732 H         1 GDM275      0.0000 
     72 H          44.7118  -47.1211   62.0228 H         1 GDM275      0.0000 
     73 H          45.2012  -45.6023   61.8231 H         1 GDM275      0.0000 
     74 H          43.6494  -48.3209   64.5309 H         1 GDM275      0.0000 
     75 H          43.5391  -49.2932   65.8071 H         1 GDM275      0.0000 
     76 H          42.4914  -48.0873   65.6220 H         1 GDM275      0.0000 
     77 H          45.1603  -45.4838   68.3985 H         1 GDM275      0.0000 
     78 H          45.0499  -43.9300   68.7980 H         1 GDM275      0.0000 
     79 H          44.7248  -45.0658   69.8891 H         1 GDM275      0.0000 
     80 H          45.7897  -44.0082   64.3757 H         1 GDM275      0.0000 
@<TRIPOS>BOND
     1   12    1 2    
     2   17    2 1    
     3   34    2 1    
     4   18    3 1    
     5   35    3 1    
     6   35    4 2    
     7   22    5 1    
     8   80    5 1    
     9   23    6 1    
    10   38    6 1    
    11   28    7 1    
    12   40    7 1    
    13   29    8 2    
    14   32    9 2    
    15   12   10 am   
    16   31   10 1    
    17   41   10 1    
    18   35   11 am   
    19   42   11 1    
    20   43   11 1    
    21   13   12 1    
    22   14   13 2    
    23   33   13 1    
    24   15   14 1    
    25   44   14 1    
    26   16   15 2    
    27   45   15 1    
    28   17   16 1    
    29   46   16 1    
    30   18   17 1    
    31   47   17 1    
    32   19   18 1    
    33   48   18 1    
    34   20   19 2    
    35   36   19 1    
    36   21   20 1    
    37   49   20 1    
    38   22   21 1    
    39   37   21 1    
    40   50   21 1    
    41   23   22 1    
    42   51   22 1    
    43   24   23 1    
    44   52   23 1    
    45   25   24 1    
    46   53   24 1    
    47   54   24 1    
    48   26   25 1    
    49   39   25 1    
    50   55   25 1    
    51   27   26 1    
    52   56   26 1    
    53   57   26 1    
    54   28   27 2    
    55   32   27 1    
    56   29   28 1    
    57   30   29 1    
    58   31   30 2    
    59   58   30 1    
    60   32   31 1    
    61   59   33 1    
    62   60   33 1    
    63   61   33 1    
    64   62   34 1    
    65   63   34 1    
    66   64   34 1    
    67   65   36 1    
    68   66   36 1    
    69   67   36 1    
    70   68   37 1    
    71   69   37 1    
    72   70   37 1    
    73   71   38 1    
    74   72   38 1    
    75   73   38 1    
    76   74   39 1    
    77   75   39 1    
    78   76   39 1    
    79   77   40 1    
    80   78   40 1    
    81   79   40 1    
@<TRIPOS>SUBSTRUCTURE
     1 GDM275      1 GROUP   
@<TRIPOS>SET

