#    Name: 1SM8_2_CAVITY_N1_ALL.mol2
#    Modification time : Tue Mar 11 08:31:07 2014

@<TRIPOS>MOLECULE
1SM8_2_CAVITY_N1_ALL.mol2
   64     0     6     0     0
SMALL
NO_CHARGES


@<TRIPOS>ATOM
      1 CA         21.8723  -15.9434   -7.8553 C.3       5 GLY6        0.0000 
      2 CZ         25.1334   -7.7641   -8.9575 C.ar      4 PHE5        0.0000 
      3 DU         22.8672  -14.0649   -5.2608 H         6 CUB7        0.0000 
      4 DU         23.1147  -12.9133   -6.1896 H         6 CUB7        0.0000 
      5 DU         23.3621  -11.7616   -7.1183 H         6 CUB7        0.0000 
      6 CZ         23.6096  -10.6100   -8.0470 C.ar      4 PHE5        0.0000 
      7 CZ         23.8570   -9.4584   -8.9757 C.ar      4 PHE5        0.0000 
      8 CA         21.5908  -15.7591   -5.2791 C.3       5 GLY6        0.0000 
      9 CA         21.8383  -14.6075   -6.2078 C.3       5 GLY6        0.0000 
     10 DU         22.0857  -13.4559   -7.1366 H         6 CUB7        0.0000 
     11 OG         22.3332  -12.3043   -8.0653 O.2       1 SER1        0.0000 
     12 CZ         22.5806  -11.1526   -8.9940 C.ar      4 PHE5        0.0000 
     13 CA         20.8093  -15.1501   -7.1548 C.3       5 GLY6        0.0000 
     14 CA         21.0568  -13.9985   -8.0836 C.3       5 GLY6        0.0000 
     15 OG         21.3042  -12.8469   -9.0123 O.2       1 SER1        0.0000 
     16 OG         23.3280  -10.4257   -5.4708 O.2       1 SER1        0.0000 
     17 OG         23.5755   -9.2741   -6.3995 O.2       1 SER1        0.0000 
     18 DU         23.8229   -8.1225   -7.3283 H         6 CUB7        0.0000 
     19 NZ         24.0704   -6.9708   -8.2570 N.2       3 LYS4        0.0000 
     20 OG         21.8042  -13.2716   -4.5604 O.2       1 SER1        0.0000 
     21 OG         22.0517  -12.1200   -5.4891 O.2       1 SER1        0.0000 
     22 OG         22.2991  -10.9683   -6.4178 O.2       1 SER1        0.0000 
     23 OG         22.5465   -9.8167   -7.3465 O.2       1 SER1        0.0000 
     24 CZ         22.7940   -8.6651   -8.2753 C.ar      4 PHE5        0.0000 
     25 CZ         23.0414   -7.5135   -9.2040 C.ar      4 PHE5        0.0000 
     26 CA         20.5278  -14.9658   -4.5786 C.3       5 GLY6        0.0000 
     27 CA         20.7753  -13.8142   -5.5074 C.3       5 GLY6        0.0000 
     28 OG         21.0227  -12.6626   -6.4361 O.2       1 SER1        0.0000 
     29 OG         21.2701  -11.5110   -7.3648 O.2       1 SER1        0.0000 
     30 CZ         21.5176  -10.3593   -8.2935 C.ar      4 PHE5        0.0000 
     31 CZ         21.7650   -9.2077   -9.2223 C.ar      4 PHE5        0.0000 
     32 CA         19.7463  -14.3568   -6.4544 C.3       5 GLY6        0.0000 
     33 CA         19.9937  -13.2052   -7.3831 C.3       5 GLY6        0.0000 
     34 OG         20.2412  -12.0536   -8.3118 O.2       1 SER1        0.0000 
     35 CZ         20.4886  -10.9020   -9.2405 C.ar      4 PHE5        0.0000 
     36 OG         22.5125   -8.4808   -5.6991 O.2       1 SER1        0.0000 
     37 N          22.7599   -7.3292   -6.6278 N.2       2 ALA2        0.0000 
     38 OG         21.4835   -9.0234   -6.6461 O.2       1 SER1        0.0000 
     39 N          21.7309   -7.8718   -7.5748 N.2       2 ALA2        0.0000 
     40 N          21.9784   -6.7202   -8.5035 N.2       2 ALA2        0.0000 
     41 CA         19.7122  -13.0209   -4.8069 C.3       5 GLY6        0.0000 
     42 OG         19.9597  -11.8693   -5.7356 O.2       1 SER1        0.0000 
     43 OG         20.2071  -10.7177   -6.6643 O.2       1 SER1        0.0000 
     44 DU         20.4546   -9.5660   -7.5931 H         6 CUB7        0.0000 
     45 N          20.7020   -8.4144   -8.5218 N.2       2 ALA2        0.0000 
     46 CA         18.6833  -13.5635   -5.7539 C.3       5 GLY6        0.0000 
     47 N          18.9307  -12.4119   -6.6826 N.2       2 ALA2        0.0000 
     48 N          19.1782  -11.2603   -7.6113 N.2       2 ALA2        0.0000 
     49 CA         19.4256  -10.1087   -8.5401 C.3       5 GLY6        0.0000 
     50 CA         19.6730   -8.9570   -9.4688 C.3       5 GLY6        0.0000 
     51 O          18.3966  -10.6513   -9.4871 O.2       2 ALA2        0.0000 
     52 N          20.4205   -8.2301   -5.9456 N.2       2 ALA2        0.0000 
     53 CA         18.6492  -12.2276   -4.1064 C.3       5 GLY6        0.0000 
     54 CA         18.8966  -11.0760   -5.0351 C.3       5 GLY6        0.0000 
     55 CA         19.1441   -9.9244   -5.9639 C.3       5 GLY6        0.0000 
     56 N          19.3915   -8.7727   -6.8926 N.2       2 ALA2        0.0000 
     57 N          17.6202  -12.7702   -5.0534 N.2       2 ALA2        0.0000 
     58 N          17.8677  -11.6186   -5.9821 N.2       2 ALA2        0.0000 
     59 N          18.1151  -10.4670   -6.9109 N.2       2 ALA2        0.0000 
     60 CA         18.3626   -9.3154   -7.8396 C.3       5 GLY6        0.0000 
     61 CA         17.3336   -9.8580   -8.7866 C.3       5 GLY6        0.0000 
     62 O          16.8047  -10.8253   -5.2817 O.2       2 ALA2        0.0000 
     63 O          17.0521   -9.6737   -6.2104 O.2       2 ALA2        0.0000 
     64 CA         17.2995   -8.5221   -7.1391 C.3       5 GLY6        0.0000 
@<TRIPOS>BOND
@<TRIPOS>SUBSTRUCTURE
     1 SER1       11 GROUP   
     2 ALA2       37 GROUP   
     3 LYS4       19 GROUP   
     4 PHE5        2 GROUP   
     5 GLY6        1 GROUP   
     6 CUB7        3 GROUP   
@<TRIPOS>SET

