#    Name: 1sm8_DUT_2_INTS_M
#    Modification time : Tue Mar 25 02:31:00 2014

@<TRIPOS>MOLECULE
1sm8_DUT_2_INTS_M
   57     0    12     0     0
SMALL
NO_CHARGES


@<TRIPOS>ATOM
      1 O          16.9580  -11.5220   -7.8530 O.2       1 ALC1        0.0000 
      2 O          17.9060  -10.5290   -7.8410 O.2       9 ALL1        0.0000 
      3 O          16.0100  -12.5150   -7.8650 O.2       5 ALP1        0.0000 
      4 CA         17.0955   -7.8210   -5.3885 C.3       4 GLC5        0.0000 
      5 CA         18.6520   -9.1130   -6.0130 C.3      12 GLL5        0.0000 
      6 CA         15.5390   -6.5290   -4.7640 C.3       8 GLP5        0.0000 
      7 N          18.1565  -12.2050   -9.9220 N.am      2 SEC2        0.0000 
      8 N          19.3010  -11.1060   -9.5040 N.am     10 SEL2        0.0000 
      9 N          17.0120  -13.3040  -10.3400 N.am      6 SEP2        0.0000 
     10 N          16.7605   -9.5810   -4.6075 N.am      2 SEC2        0.0000 
     11 N          16.2600  -10.0060   -6.1350 N.am     10 SEL2        0.0000 
     12 N          17.2610   -9.1560   -3.0800 N.am      6 SEP2        0.0000 
     13 CA         22.0840  -10.3715   -9.9390 C.3       4 GLC5        0.0000 
     14 CA         21.5550   -9.5570   -8.3020 C.3      12 GLL5        0.0000 
     15 CA         22.6130  -11.1860  -11.5760 C.3       8 GLP5        0.0000 
     16 CA         19.6110   -7.9060   -9.6100 C.3       4 GLC5        0.0000 
     17 CA         21.5390   -8.3730   -9.1700 C.3      12 GLL5        0.0000 
     18 CA         17.6830   -7.4390  -10.0500 C.3       8 GLP5        0.0000 
     19 CA         21.7245   -8.6990  -10.7845 C.3       4 GLC5        0.0000 
     20 CA         21.9100   -9.0250  -12.3990 C.3       8 GLP5        0.0000 
     21 CA         20.9215   -6.0630   -9.1365 C.3       4 GLC5        0.0000 
     22 CA         22.4180   -7.3160   -8.5440 C.3      12 GLL5        0.0000 
     23 CA         19.4250   -4.8100   -9.7290 C.3       8 GLP5        0.0000 
     24 CA         22.7990   -7.9050  -10.3520 C.3       4 GLC5        0.0000 
     25 CA         23.1800   -8.4940  -12.1600 C.3       8 GLP5        0.0000 
     26 CA         23.7805   -8.7130   -9.6720 C.3       4 GLC5        0.0000 
     27 CA         23.4070   -8.0940   -7.7180 C.3      12 GLL5        0.0000 
     28 CA         24.1540   -9.3320  -11.6260 C.3       8 GLP5        0.0000 
     29 N          22.1350   -4.8850   -9.2475 N.am      2 SEC2        0.0000 
     30 N          22.6020   -5.9080   -8.4780 N.am     10 SEL2        0.0000 
     31 N          21.6680   -3.8620  -10.0170 N.am      6 SEP2        0.0000 
     32 O          21.4145   -5.7055   -7.8175 O.2       1 ALC1        0.0000 
     33 O          22.6020   -5.9080   -8.4780 O.2       9 ALL1        0.0000 
     34 O          20.2270   -5.5030   -7.1570 O.2       5 ALP1        0.0000 
     35 N          22.6970   -5.1695   -2.8530 N.am      2 SEC2        0.0000 
     36 N          23.7430   -5.9330   -3.9020 N.am     10 SEL2        0.0000 
     37 N          21.6510   -4.4060   -1.8040 N.am      6 SEP2        0.0000 
     38 N          21.3035   -8.1220   -2.0385 N.am      2 SEC2        0.0000 
     39 N          21.6360   -7.1170   -3.1370 N.am     10 SEL2        0.0000 
     40 N          20.9710   -9.1270   -0.9400 N.am      6 SEP2        0.0000 
     41 N          21.6435   -5.7615   -2.4705 N.am      2 SEC2        0.0000 
     42 N          22.2005   -8.7630   -1.9585 N.am      2 SEC2        0.0000 
     43 N          23.4300   -8.3990   -2.9770 N.am     10 SEL2        0.0000 
     44 N          22.4155   -9.2050   -3.3205 N.am      2 SEC2        0.0000 
     45 N          21.4010  -10.0110   -3.6640 N.am      6 SEP2        0.0000 
     46 NZ         25.8190   -7.5020   -0.1035 N.4       3 LYC4        0.0000 
     47 NZ         24.8880   -7.0970   -1.3920 N.4      11 LYL4        0.0000 
     48 NZ         26.7500   -7.9070    1.1850 N.4       7 LYP4        0.0000 
     49 NZ         25.7150   -8.7195   -0.0005 N.4       3 LYC4        0.0000 
     50 NZ         24.6800   -9.5320   -1.1860 N.4      11 LYL4        0.0000 
     51 N          23.5650  -10.5545   -1.0930 N.am      2 SEC2        0.0000 
     52 N          24.6800   -9.5320   -1.1860 N.am     10 SEL2        0.0000 
     53 N          22.4500  -11.5770   -1.0000 N.am      6 SEP2        0.0000 
     54 CA         18.4720   -8.2652   -8.1805 C.3       4 GLC5        0.0000 
     55 CA         19.8700   -9.0700   -6.6090 C.3      12 GLL5        0.0000 
     56 CA         19.7200   -9.6703   -4.6465 C.3       4 GLC5        0.0000 
     57 CA         20.1790  -10.2490   -2.9820 C.3       8 GLP5        0.0000 
@<TRIPOS>BOND
@<TRIPOS>SUBSTRUCTURE
     1 ALC1        1 GROUP        1 X    ALC  0     ROOT ALC X 1
     2 SEC2        7 GROUP        1 X    SEC  0     **** SEC X 2
     3 LYC4       46 GROUP        1 X    LYC  0     **** LYC X 4
     4 GLC5        4 GROUP        1 X    GLC  0     **** GLC X 6
     5 ALP1        3 GROUP        1 Y    ALP  0     ROOT ALP Y 8
     6 SEP2        9 GROUP        1 Y    SEP  0     **** SEP Y 9
     7 LYP4       48 GROUP        1 Y    LYP  0     **** LYP Y 11
     8 GLP5        6 GROUP        1 Y    GLP  0     **** GLP Y 13
     9 ALL1        2 GROUP        1 Z    ALL  0     ROOT ALL Z 15
    10 SEL2        8 GROUP        1 Z    SEL  0     **** SEL Z 16
    11 LYL4       47 GROUP        1 Z    LYL  0     **** LYL Z 18
    12 GLL5        5 GROUP        1 Z    GLL  0     **** GLL Z 20
@<TRIPOS>SET

