#    Name: 1sm8_DUT_2_ligand
#    Modification time : Tue Mar 25 02:31:00 2014

@<TRIPOS>MOLECULE
1sm8_DUT_2_ligand
   39    40     1     0     0
SMALL
NO_CHARGES


@<TRIPOS>ATOM
      1 N1         20.1280   -9.8080   -7.9100 N.am      1 DUT1170     0.0000 
      2 C2         19.1320  -10.5130   -8.4850 C.2       1 DUT1170     0.0000 
      3 N3         17.9060  -10.5290   -7.8410 N.am      1 DUT1170     0.0000 
      4 C4         17.5980   -9.8700   -6.6440 C.2       1 DUT1170     0.0000 
      5 C5         18.6520   -9.1130   -6.0130 C.2       1 DUT1170     0.0000 
      6 C6         19.8700   -9.0700   -6.6090 C.2       1 DUT1170     0.0000 
      7 O2         19.3010  -11.1060   -9.5040 O.2       1 DUT1170     0.0000 
      8 O4         16.2600  -10.0060   -6.1350 O.2       1 DUT1170     0.0000 
      9 C1'        21.5550   -9.5570   -8.3020 C.3       1 DUT1170     0.0000 
     10 C2'        21.5390   -8.3730   -9.1700 C.3       1 DUT1170     0.0000 
     11 C3'        22.4180   -7.3160   -8.5440 C.3       1 DUT1170     0.0000 
     12 C4'        23.4070   -8.0940   -7.7180 C.3       1 DUT1170     0.0000 
     13 O4'        22.7110   -9.3220   -7.4250 O.3       1 DUT1170     0.0000 
     14 O3'        22.6020   -5.9080   -8.4780 O.3       1 DUT1170     0.0000 
     15 C5'        23.7600   -7.9530   -6.2130 C.3       1 DUT1170     0.0000 
     16 O5'        22.4590   -7.6680   -5.3890 O.3       1 DUT1170     0.0000 
     17 PA         22.9010   -7.1900   -3.9390 P.3       1 DUT1170     0.0000 
     18 O1A        23.7430   -5.9330   -3.9020 O.co2     1 DUT1170     0.0000 
     19 O2A        21.6360   -7.1170   -3.1370 O.co2     1 DUT1170     0.0000 
     20 O3A        23.4300   -8.3990   -2.9770 O.3       1 DUT1170     0.0000 
     21 PB         24.7980   -8.4060   -2.1200 P.3       1 DUT1170     0.0000 
     22 O1B        24.8880   -7.0970   -1.3920 O.co2     1 DUT1170     0.0000 
     23 O2B        24.6800   -9.5320   -1.1860 O.co2     1 DUT1170     0.0000 
     24 O3B        26.0550   -8.6050   -3.0570 O.3       1 DUT1170     0.0000 
     25 PG         26.9390   -7.9100   -4.2170 P.3       1 DUT1170     0.0000 
     26 O1G        28.1500   -8.0920   -3.3730 O.co2     1 DUT1170     0.0000 
     27 O2G        26.6140   -6.4530   -4.2980 O.co2     1 DUT1170     0.0000 
     28 O3G        27.2170   -8.5220   -5.5960 O.co2     1 DUT1170     0.0000 
     29 H          17.1189  -11.0942   -8.2940 H         1 DUT1170     0.0000 
     30 H          18.4462   -8.6351   -5.1394 H         1 DUT1170     0.0000 
     31 H          20.6681   -8.5544   -6.2330 H         1 DUT1170     0.0000 
     32 H          21.8510  -10.3884   -9.0352 H         1 DUT1170     0.0000 
     33 H          20.5299   -7.9814   -9.2667 H         1 DUT1170     0.0000 
     34 H          21.9253   -8.6149  -10.1565 H         1 DUT1170     0.0000 
     35 H          23.3660   -7.4664   -9.6287 H         1 DUT1170     0.0000 
     36 H          24.2820   -8.3856   -8.2411 H         1 DUT1170     0.0000 
     37 H          24.4422   -7.1297   -6.0814 H         1 DUT1170     0.0000 
     38 H          24.2000   -8.8713   -5.8614 H         1 DUT1170     0.0000 
     39 H          21.7893   -5.5626   -8.0087 H         1 DUT1170     0.0000 
@<TRIPOS>BOND
     1    2    1 1    
     2    6    1 1    
     3    9    1 1    
     4    3    2 1    
     5    7    2 2    
     6    4    3 1    
     7   29    3 1    
     8    5    4 1    
     9    8    4 2    
    10    6    5 2    
    11   30    5 1    
    12   31    6 1    
    13   10    9 1    
    14   13    9 1    
    15   32    9 1    
    16   11   10 1    
    17   33   10 1    
    18   34   10 1    
    19   12   11 1    
    20   14   11 1    
    21   35   11 1    
    22   13   12 1    
    23   15   12 1    
    24   36   12 1    
    25   39   14 1    
    26   16   15 1    
    27   37   15 1    
    28   38   15 1    
    29   17   16 1    
    30   18   17 ar   
    31   19   17 ar   
    32   20   17 1    
    33   21   20 1    
    34   22   21 ar   
    35   23   21 ar   
    36   24   21 1    
    37   25   24 1    
    38   26   25 ar   
    39   27   25 ar   
    40   28   25 ar   
@<TRIPOS>SUBSTRUCTURE
     1 DUT1170     1 GROUP   
@<TRIPOS>SET

