#    Name: 1zga_HMK_1_INTS_M
#    Modification time : Tue Mar 25 11:44:22 2014

@<TRIPOS>MOLECULE
1zga_HMK_1_INTS_M
   41     0     6     0     0
SMALL
NO_CHARGES


@<TRIPOS>ATOM
      1 CA        104.1650   72.8610   32.6575 C.3       2 GLC5        0.0000 
      2 CA        102.0730   73.2190   32.8720 C.3       6 GLL5        0.0000 
      3 CA        106.2570   72.5030   32.4430 C.3       4 GLP5        0.0000 
      4 CA        102.2295   71.6100   34.2105 C.3       2 GLC5        0.0000 
      5 CA        102.3860   70.0010   35.5490 C.3       4 GLP5        0.0000 
      6 CA        102.5605   71.6785   32.2440 C.3       2 GLC5        0.0000 
      7 CA        103.0480   70.1380   31.6160 C.3       4 GLP5        0.0000 
      8 CA        100.4380   72.1845   33.9160 C.3       2 GLC5        0.0000 
      9 CA         98.8030   71.1500   34.9600 C.3       4 GLP5        0.0000 
     10 CA        104.3985   78.2740   28.6870 C.3       2 GLC5        0.0000 
     11 CA        103.6490   76.7750   29.5090 C.3       6 GLL5        0.0000 
     12 CA        105.1480   79.7730   27.8650 C.3       4 GLP5        0.0000 
     13 O         104.6265   76.5185   27.4275 O.2       1 ALC1        0.0000 
     14 O         103.4400   75.5130   27.3970 O.2       5 ALL1        0.0000 
     15 O         105.8130   77.5240   27.4580 O.2       3 ALP1        0.0000 
     16 CA         97.6565   78.5005   32.7900 C.3       2 GLC5        0.0000 
     17 CA         99.1280   77.3660   33.9470 C.3       6 GLL5        0.0000 
     18 CA         96.1850   79.6350   31.6330 C.3       4 GLP5        0.0000 
     19 CA         96.4845   77.9755   35.5220 C.3       2 GLC5        0.0000 
     20 CA         97.9630   76.6900   34.4880 C.3       6 GLL5        0.0000 
     21 CA         95.0060   79.2610   36.5560 C.3       4 GLP5        0.0000 
     22 CA         96.6350   77.5525   32.9235 C.3       2 GLC5        0.0000 
     23 CA         95.3070   78.4150   31.3590 C.3       4 GLP5        0.0000 
     24 CA        100.3620   75.2925   36.3360 C.3       2 GLC5        0.0000 
     25 CA         99.1920   74.4420   34.6820 C.3       6 GLL5        0.0000 
     26 CA        101.5320   76.1430   37.9900 C.3       4 GLP5        0.0000 
     27 CA         95.3095   74.9345   34.2035 C.3       2 GLC5        0.0000 
     28 CA         95.9250   76.1270   35.2800 C.3       6 GLL5        0.0000 
     29 CA         94.6940   73.7420   33.1270 C.3       4 GLP5        0.0000 
     30 CA         95.4655   77.6940   35.9180 C.3       2 GLC5        0.0000 
     31 CA         96.3465   76.2500   33.2400 C.3       2 GLC5        0.0000 
     32 CA         96.7680   76.3730   31.2000 C.3       4 GLP5        0.0000 
     33 CA         99.4387   77.9222   35.3800 C.3       2 GLC5        0.0000 
     34 CA        100.3170   76.5490   33.7790 C.3       6 GLL5        0.0000 
     35 CA         99.1550   78.8870   36.8970 C.3       4 GLP5        0.0000 
     36 CA        101.1135   75.9164   35.9370 C.3       2 GLC5        0.0000 
     37 CA        100.0687   78.6333   32.8895 C.3       2 GLC5        0.0000 
     38 CA        100.4150   80.3090   31.9160 C.3       4 GLP5        0.0000 
     39 CA         98.5645   77.4340   35.7825 C.3       2 GLC5        0.0000 
     40 CA         97.9850   75.2720   34.8480 C.3       6 GLL5        0.0000 
     41 CA         98.8441   73.0884   34.7933 C.3       2 GLC5        0.0000 
@<TRIPOS>BOND
@<TRIPOS>SUBSTRUCTURE
     1 ALC1       13 GROUP        1 X    ALC  0     ROOT ALC X 1
     2 GLC5        1 GROUP        1 X    GLC  0     **** GLC X 6
     3 ALP1       15 GROUP        1 Y    ALP  0     ROOT ALP Y 8
     4 GLP5        3 GROUP        1 Y    GLP  0     **** GLP Y 13
     5 ALL1       14 GROUP        1 Z    ALL  0     ROOT ALL Z 15
     6 GLL5        2 GROUP        1 Z    GLL  0     **** GLL Z 20
@<TRIPOS>SET

