#    Name: 1zga_HMK_1_ligand
#    Modification time : Tue Mar 25 11:44:22 2014

@<TRIPOS>MOLECULE
1zga_HMK_1_ligand
   34    38     1     0     0
SMALL
NO_CHARGES


@<TRIPOS>ATOM
      1 C1        102.0730   73.2190   32.8720 C.3       1 HMK365      0.0000 
      2 O1        101.6120   73.5040   31.5910 O.3       1 HMK365      0.0000 
      3 C2        102.2810   74.5590   30.9070 C.ar      1 HMK365      0.0000 
      4 C3        102.7460   75.7800   31.6580 C.ar      1 HMK365      0.0000 
      5 C4        102.4880   75.8720   33.2270 C.3       1 HMK365      0.0000 
      6 C5        101.7670   74.5400   33.8500 C.3       1 HMK365      0.0000 
      7 C6        102.5340   74.5070   29.4610 C.ar      1 HMK365      0.0000 
      8 C7        103.2140   75.5920   28.7370 C.ar      1 HMK365      0.0000 
      9 C8        103.6490   76.7750   29.5090 C.ar      1 HMK365      0.0000 
     10 C9        103.4180   76.8710   30.9450 C.ar      1 HMK365      0.0000 
     11 O2        101.5610   76.9200   33.3130 O.3       1 HMK365      0.0000 
     12 O5        102.3610   73.9830   35.0340 O.3       1 HMK365      0.0000 
     13 O6        103.4400   75.5130   27.3970 O.3       1 HMK365      0.0000 
     14 C10       100.3170   76.5490   33.7790 C.ar      1 HMK365      0.0000 
     15 C11       100.3790   75.1210   34.1280 C.ar      1 HMK365      0.0000 
     16 C12        99.1280   77.3660   33.9470 C.ar      1 HMK365      0.0000 
     17 C13        97.9630   76.6900   34.4880 C.ar      1 HMK365      0.0000 
     18 C14        97.9850   75.2720   34.8480 C.ar      1 HMK365      0.0000 
     19 C15        99.1920   74.4420   34.6820 C.ar      1 HMK365      0.0000 
     20 O3         96.7170   77.2020   34.7500 O.3       1 HMK365      0.0000 
     21 C16        95.9250   76.1270   35.2800 C.3       1 HMK365      0.0000 
     22 O4         96.7390   74.9360   35.3310 O.3       1 HMK365      0.0000 
     23 H         103.1455   73.0806   32.9535 H         1 HMK365      0.0000 
     24 H         101.5625   72.4036   33.3726 H         1 HMK365      0.0000 
     25 H         103.3745   76.0473   33.7168 H         1 HMK365      0.0000 
     26 H         102.2263   73.6865   28.9374 H         1 HMK365      0.0000 
     27 H         104.1166   77.5300   29.0222 H         1 HMK365      0.0000 
     28 H         103.7189   77.6861   31.4516 H         1 HMK365      0.0000 
     29 H          99.1136   78.3154   33.7095 H         1 HMK365      0.0000 
     30 H          99.2056   73.5002   34.9238 H         1 HMK365      0.0000 
     31 H          95.0428   75.9541   34.6471 H         1 HMK365      0.0000 
     32 H          95.5626   76.3795   36.2868 H         1 HMK365      0.0000 
     33 H         101.5884   73.7236   35.6135 H         1 HMK365      0.0000 
     34 H         104.2291   76.1048   27.2324 H         1 HMK365      0.0000 
@<TRIPOS>BOND
     1    2    1 1    
     2    6    1 1    
     3   23    1 1    
     4   24    1 1    
     5    3    2 1    
     6    4    3 ar   
     7    7    3 ar   
     8    5    4 1    
     9   10    4 ar   
    10    6    5 1    
    11   11    5 1    
    12   25    5 1    
    13   12    6 1    
    14   15    6 1    
    15    8    7 ar   
    16   26    7 1    
    17    9    8 ar   
    18   13    8 1    
    19   10    9 ar   
    20   27    9 1    
    21   28   10 1    
    22   14   11 1    
    23   33   12 1    
    24   34   13 1    
    25   15   14 ar   
    26   16   14 ar   
    27   19   15 ar   
    28   17   16 ar   
    29   29   16 1    
    30   18   17 ar   
    31   20   17 1    
    32   19   18 ar   
    33   22   18 1    
    34   30   19 1    
    35   21   20 1    
    36   22   21 1    
    37   31   21 1    
    38   32   21 1    
@<TRIPOS>SUBSTRUCTURE
     1 HMK365      1 GROUP   
@<TRIPOS>SET

