#    Name: 1hzz_NAP_2_INTS_M
#    Modification time : Tue Mar 25 06:35:32 2014

@<TRIPOS>MOLECULE
1hzz_NAP_2_INTS_M
  114     0    12     0     0
SMALL
NO_CHARGES


@<TRIPOS>ATOM
      1 N         -27.5100  -37.5105    7.3345 N.am      2 SEC2        0.0000 
      2 N         -25.9070  -37.9570    7.8650 N.am     10 SEL2        0.0000 
      3 N         -29.1130  -37.0640    6.8040 N.am      6 SEP2        0.0000 
      4 N         -25.2815  -39.1820    8.3870 N.am      2 SEC2        0.0000 
      5 N         -24.6560  -40.4070    8.9090 N.am      6 SEP2        0.0000 
      6 NZ        -23.1830  -36.3685    9.8850 N.4       3 LYC4        0.0000 
      7 NZ        -24.1030  -36.2830    8.9410 N.4      11 LYL4        0.0000 
      8 NZ        -21.4870  -37.5060   11.0490 N.4       7 LYP4        0.0000 
      9 N         -23.1830  -36.3685    9.8850 N.am      2 SEC2        0.0000 
     10 N         -24.1030  -36.2830    8.9410 N.am     10 SEL2        0.0000 
     11 N         -22.2630  -36.4540   10.8290 N.am      6 SEP2        0.0000 
     12 CA        -22.7030  -34.8665    7.4320 C.3       4 GLC5        0.0000 
     13 CA        -23.5120  -36.0280    5.9050 C.3      12 GLL5        0.0000 
     14 CA        -21.8940  -33.7050    8.9590 C.3       8 GLP5        0.0000 
     15 CA        -22.2030  -33.7600    4.6950 C.3       4 GLC5        0.0000 
     16 CA        -23.4980  -35.3830    4.5310 C.3      12 GLL5        0.0000 
     17 CA        -20.9080  -32.1370    4.8590 C.3       8 GLP5        0.0000 
     18 CA        -23.7075  -33.2530    3.9115 C.3       4 GLC5        0.0000 
     19 CA        -23.9170  -31.1230    3.2920 C.3       8 GLP5        0.0000 
     20 CA        -21.2745  -33.8010    3.9495 C.3       4 GLC5        0.0000 
     21 CA        -21.6410  -35.4650    3.0400 C.3      12 GLL5        0.0000 
     22 CA        -22.5715  -35.5455    1.1200 C.3       4 GLC5        0.0000 
     23 CA        -23.5020  -35.6260   -0.8000 C.3       8 GLP5        0.0000 
     24 CA        -17.4545  -33.4995    3.9875 C.3       4 GLC5        0.0000 
     25 CA        -18.4700  -34.1360    2.1880 C.3      12 GLL5        0.0000 
     26 CA        -16.4390  -32.8630    5.7870 C.3       8 GLP5        0.0000 
     27 CA        -16.9280  -31.2455    1.7960 C.3       4 GLC5        0.0000 
     28 CA        -17.8110  -33.1450    1.4720 C.3      12 GLL5        0.0000 
     29 CA        -16.0450  -29.3460    2.1200 C.3       8 GLP5        0.0000 
     30 O         -15.6925  -32.1720    0.4940 O.2       1 ALC1        0.0000 
     31 O         -16.4960  -33.0370    1.5140 O.2       9 ALL1        0.0000 
     32 O         -14.8890  -31.3070   -0.5260 O.2       5 ALP1        0.0000 
     33 N         -18.4600  -31.1375   -0.3370 N.am      2 SEC2        0.0000 
     34 N         -18.5220  -32.2390    0.6990 N.am     10 SEL2        0.0000 
     35 N         -18.3980  -30.0360   -1.3730 N.am      6 SEP2        0.0000 
     36 CA        -20.3855  -32.2225    2.7340 C.3       4 GLC5        0.0000 
     37 CA        -19.8630  -32.3080    0.6090 C.3      12 GLL5        0.0000 
     38 CA        -21.3045  -31.4095   -0.8290 C.3       4 GLC5        0.0000 
     39 CA        -22.7460  -30.5110   -2.2670 C.3       8 GLP5        0.0000 
     40 CA        -21.2225  -33.4895   -0.4865 C.3       4 GLC5        0.0000 
     41 CA        -22.5820  -34.6710   -1.5820 C.3       8 GLP5        0.0000 
     42 CA        -18.8050  -33.9470   -0.3660 C.3       4 GLC5        0.0000 
     43 CA        -17.7470  -35.5860   -1.3410 C.3       8 GLP5        0.0000 
     44 CA        -18.5140  -31.9170   -1.1075 C.3       4 GLC5        0.0000 
     45 CA        -17.1650  -31.5260   -2.8240 C.3       8 GLP5        0.0000 
     46 CA        -19.7635  -30.6555    0.5105 C.3       4 GLC5        0.0000 
     47 CA        -19.6640  -29.0030    0.4120 C.3       8 GLP5        0.0000 
     48 CA        -18.7940  -34.8795    0.3790 C.3       4 GLC5        0.0000 
     49 CA        -19.8410  -34.1730    2.0990 C.3      12 GLL5        0.0000 
     50 N         -27.7900  -34.1100    6.5040 N.am      2 SEC2        0.0000 
     51 N         -27.3720  -33.7170    7.8400 N.am     10 SEL2        0.0000 
     52 N         -28.2080  -34.5030    5.1680 N.am      6 SEP2        0.0000 
     53 N         -24.1440  -32.6210    8.4925 N.am      2 SEC2        0.0000 
     54 N         -25.0640  -33.5230    8.6490 N.am     10 SEL2        0.0000 
     55 N         -23.2240  -31.7190    8.3360 N.am      6 SEP2        0.0000 
     56 CA        -26.3320  -32.9610   11.7530 C.3       4 GLC5        0.0000 
     57 CA        -25.9620  -34.9690   11.2010 C.3      12 GLL5        0.0000 
     58 CA        -26.7020  -30.9530   12.3050 C.3       8 GLP5        0.0000 
     59 CA        -24.4955  -33.3890   11.6030 C.3       4 GLC5        0.0000 
     60 CA        -23.0290  -31.8090   12.0050 C.3       8 GLP5        0.0000 
     61 CA        -25.4220  -38.2615   11.4365 C.3       4 GLC5        0.0000 
     62 CA        -26.2680  -36.4210   11.5310 C.3      12 GLL5        0.0000 
     63 CA        -24.5760  -40.1020   11.3420 C.3       8 GLP5        0.0000 
     64 N         -28.8570  -37.9985   15.5175 N.am      2 SEC2        0.0000 
     65 N         -28.1430  -38.1430   14.1520 N.am     10 SEL2        0.0000 
     66 N         -29.5710  -37.8540   16.8830 N.am      6 SEP2        0.0000 
     67 CA        -25.4450  -39.2580   13.6515 C.3       4 GLC5        0.0000 
     68 CA        -25.8920  -37.4340   13.6610 C.3      12 GLL5        0.0000 
     69 CA        -24.9980  -41.0820   13.6420 C.3       8 GLP5        0.0000 
     70 CA        -26.8905  -34.5995   15.5485 C.3       4 GLC5        0.0000 
     71 CA        -25.1320  -35.5940   15.1740 C.3      12 GLL5        0.0000 
     72 CA        -28.6490  -33.6050   15.9230 C.3       8 GLP5        0.0000 
     73 O         -25.9475  -33.0755   14.9520 O.2       1 ALC1        0.0000 
     74 O         -25.0180  -32.8840   16.0720 O.2       9 ALL1        0.0000 
     75 O         -26.8770  -33.2670   13.8320 O.2       5 ALP1        0.0000 
     76 NZ        -23.0990  -38.9575   -0.3925 N.4       3 LYC4        0.0000 
     77 NZ        -21.5490  -38.8370   -0.2780 N.4      11 LYL4        0.0000 
     78 NZ        -24.6490  -39.0780   -0.5070 N.4       7 LYP4        0.0000 
     79 N         -23.0990  -38.9575   -0.3925 N.am      2 SEC2        0.0000 
     80 N         -21.5490  -38.8370   -0.2780 N.am     10 SEL2        0.0000 
     81 N         -24.6490  -39.0780   -0.5070 N.am      6 SEP2        0.0000 
     82 N         -21.3255  -38.6025   -1.6570 N.am      2 SEC2        0.0000 
     83 N         -21.1020  -38.3680   -3.0360 N.am      6 SEP2        0.0000 
     84 N         -21.0985  -39.8745   -1.0150 N.am      2 SEC2        0.0000 
     85 N         -20.6480  -40.9120   -1.7520 N.am      6 SEP2        0.0000 
     86 N         -20.4940  -36.1945   -0.8980 N.am      2 SEC2        0.0000 
     87 N         -20.4700  -36.5920    0.3280 N.am     10 SEL2        0.0000 
     88 N         -20.5180  -35.7970   -2.1240 N.am      6 SEP2        0.0000 
     89 N         -18.7355  -36.7645    0.4575 N.am      2 SEC2        0.0000 
     90 N         -17.0010  -36.9370    0.5870 N.am      6 SEP2        0.0000 
     91 NZ        -18.2660  -38.5225    1.9835 N.4       3 LYC4        0.0000 
     92 NZ        -19.9000  -38.7180    1.5770 N.4      11 LYL4        0.0000 
     93 NZ        -16.1860  -37.4240    1.5220 N.4       7 LYP4        0.0000 
     94 N         -18.2660  -38.5225    1.9835 N.am      2 SEC2        0.0000 
     95 N         -19.9000  -38.7180    1.5770 N.am     10 SEL2        0.0000 
     96 N         -16.6320  -38.3270    2.3900 N.am      6 SEP2        0.0000 
     97 CA        -25.5153  -36.4351    4.4627 C.3       4 GLC5        0.0000 
     98 CA        -27.4790  -36.7610    4.5710 C.3       8 GLP5        0.0000 
     99 CA        -24.0255  -37.2965    1.7555 C.3       4 GLC5        0.0000 
    100 CA        -23.5980  -36.5130    3.4910 C.3      12 GLL5        0.0000 
    101 CA        -25.1700  -37.8860    0.2210 C.3       8 GLP5        0.0000 
    102 CA        -20.0318  -33.1457    3.5013 C.3       4 GLC5        0.0000 
    103 CA        -17.3732  -34.7933    0.7100 C.3       4 GLC5        0.0000 
    104 CA        -16.6060  -35.9460   -0.4100 C.3       8 GLP5        0.0000 
    105 CA        -28.0053  -37.4243   10.3958 C.3       4 GLC5        0.0000 
    106 CA        -29.0640  -38.2640    8.9280 C.3       8 GLP5        0.0000 
    107 CA        -28.6078  -35.4700   13.9617 C.3       4 GLC5        0.0000 
    108 CA        -27.6250  -36.7480   12.1960 C.3      12 GLL5        0.0000 
    109 CA        -29.7340  -34.0400   14.9820 C.3       8 GLP5        0.0000 
    110 CA        -22.6959  -34.8250   15.5110 C.3       4 GLC5        0.0000 
    111 CA        -21.2010  -33.8370   14.6540 C.3       8 GLP5        0.0000 
    112 CA        -22.4120  -37.2013   14.6598 C.3       4 GLC5        0.0000 
    113 CA        -23.5930  -37.6030   16.6200 C.3      12 GLL5        0.0000 
    114 CA        -20.8480  -36.6200   13.2630 C.3       8 GLP5        0.0000 
@<TRIPOS>BOND
@<TRIPOS>SUBSTRUCTURE
     1 ALC1       30 GROUP        1 X    ALC  0     ROOT ALC X 1
     2 SEC2        1 GROUP        1 X    SEC  0     **** SEC X 2
     3 LYC4        6 GROUP        1 X    LYC  0     **** LYC X 4
     4 GLC5       12 GROUP        1 X    GLC  0     **** GLC X 6
     5 ALP1       32 GROUP        1 Y    ALP  0     ROOT ALP Y 8
     6 SEP2        3 GROUP        1 Y    SEP  0     **** SEP Y 9
     7 LYP4        8 GROUP        1 Y    LYP  0     **** LYP Y 11
     8 GLP5       14 GROUP        1 Y    GLP  0     **** GLP Y 13
     9 ALL1       31 GROUP        1 Z    ALL  0     ROOT ALL Z 15
    10 SEL2        2 GROUP        1 Z    SEL  0     **** SEL Z 16
    11 LYL4        7 GROUP        1 Z    LYL  0     **** LYL Z 18
    12 GLL5       13 GROUP        1 Z    GLL  0     **** GLL Z 20
@<TRIPOS>SET

