#    Name: 1hzz_NAP_2_ligand
#    Modification time : Tue Mar 25 06:35:32 2014

@<TRIPOS>MOLECULE
1hzz_NAP_2_ligand
   73    77     1     0     0
SMALL
NO_CHARGES


@<TRIPOS>ATOM
      1 PA        -24.9070  -36.8670    7.8470 P.3       1 NAP300      0.0000 
      2 O1A       -25.9070  -37.9570    7.8650 O.co2     1 NAP300      0.0000 
      3 O2A       -24.1030  -36.2830    8.9410 O.co2     1 NAP300      0.0000 
      4 O5B       -24.8260  -36.1280    6.4460 O.3       1 NAP300      0.0000 
      5 C5B       -23.5120  -36.0280    5.9050 C.3       1 NAP300      0.0000 
      6 C4B       -23.4980  -35.3830    4.5310 C.3       1 NAP300      0.0000 
      7 O4B       -22.2240  -34.8490    4.1970 O.3       1 NAP300      0.0000 
      8 C3B       -23.5980  -36.5130    3.4910 C.3       1 NAP300      0.0000 
      9 O3B       -24.3840  -35.9500    2.4250 O.3       1 NAP300      0.0000 
     10 C2B       -22.1640  -36.9010    3.0890 C.3       1 NAP300      0.0000 
     11 O2B       -22.1790  -37.6740    1.8510 O.3       1 NAP300      0.0000 
     12 C1B       -21.6410  -35.4650    3.0400 C.3       1 NAP300      0.0000 
     13 N9A       -20.2210  -35.1850    2.8920 N.pl3     1 NAP300      0.0000 
     14 C8A       -19.1120  -35.7660    3.4500 C.2       1 NAP300      0.0000 
     15 N7A       -18.0170  -35.1020    2.9940 N.2       1 NAP300      0.0000 
     16 C5A       -18.4700  -34.1360    2.1880 C.ar      1 NAP300      0.0000 
     17 C6A       -17.8110  -33.1450    1.4720 C.ar      1 NAP300      0.0000 
     18 N6A       -16.4960  -33.0370    1.5140 N.pl3     1 NAP300      0.0000 
     19 N1A       -18.5220  -32.2390    0.6990 N.ar      1 NAP300      0.0000 
     20 C2A       -19.8630  -32.3080    0.6090 C.ar      1 NAP300      0.0000 
     21 N3A       -20.5000  -33.2610    1.3030 N.ar      1 NAP300      0.0000 
     22 C4A       -19.8410  -34.1730    2.0990 C.ar      1 NAP300      0.0000 
     23 O3        -26.1300  -35.8380    8.3020 O.3       1 NAP300      0.0000 
     24 PN        -26.3420  -34.2910    8.6890 P.3       1 NAP300      0.0000 
     25 O1N       -27.3720  -33.7170    7.8400 O.co2     1 NAP300      0.0000 
     26 O2N       -25.0640  -33.5230    8.6490 O.co2     1 NAP300      0.0000 
     27 O5D       -26.8610  -34.4760   10.1980 O.3       1 NAP300      0.0000 
     28 C5D       -25.9620  -34.9690   11.2010 C.3       1 NAP300      0.0000 
     29 C4D       -26.2680  -36.4210   11.5310 C.3       1 NAP300      0.0000 
     30 O4D       -25.2920  -36.9530   12.4280 O.3       1 NAP300      0.0000 
     31 C3D       -27.6250  -36.7480   12.1960 C.3       1 NAP300      0.0000 
     32 O3D       -28.0470  -38.0010   11.5920 O.3       1 NAP300      0.0000 
     33 C2D       -27.3380  -37.0520   13.6870 C.3       1 NAP300      0.0000 
     34 O2D       -28.1430  -38.1430   14.1520 O.3       1 NAP300      0.0000 
     35 C1D       -25.8920  -37.4340   13.6610 C.3       1 NAP300      0.0000 
     36 N1N       -25.1180  -36.9730   14.7990 N.pl3     1 NAP300      0.0000 
     37 C2N       -25.1320  -35.5940   15.1740 C.ar      1 NAP300      0.0000 
     38 C3N       -24.3730  -35.2200   16.2960 C.ar      1 NAP300      0.0000 
     39 C7N       -24.3210  -33.7580   16.7730 C.2       1 NAP300      0.0000 
     40 O7N       -23.6540  -33.4600   17.7540 O.2       1 NAP300      0.0000 
     41 N7N       -25.0180  -32.8840   16.0720 N.am      1 NAP300      0.0000 
     42 C4N       -23.6290  -36.2190   17.0010 C.ar      1 NAP300      0.0000 
     43 C5N       -23.5930  -37.6030   16.6200 C.ar      1 NAP300      0.0000 
     44 C6N       -24.3590  -37.9620   15.4930 C.ar      1 NAP300      0.0000 
     45 P2B       -20.9310  -37.9220    0.7870 P.3       1 NAP300      0.0000 
     46 O1X       -21.5490  -38.8370   -0.2780 O.co2     1 NAP300      0.0000 
     47 O2X       -20.4700  -36.5920    0.3280 O.co2     1 NAP300      0.0000 
     48 O3X       -19.9000  -38.7180    1.5770 O.co2     1 NAP300      0.0000 
     49 H         -23.0361  -37.0254    5.8128 H         1 NAP300      0.0000 
     50 H         -22.8485  -35.4311    6.5632 H         1 NAP300      0.0000 
     51 H         -24.2792  -34.7321    4.3868 H         1 NAP300      0.0000 
     52 H         -24.0780  -37.3333    3.9607 H         1 NAP300      0.0000 
     53 H         -21.7446  -37.3816    3.9241 H         1 NAP300      0.0000 
     54 H         -22.1976  -34.9985    2.1526 H         1 NAP300      0.0000 
     55 H         -19.1150  -36.5081    4.0536 H         1 NAP300      0.0000 
     56 H         -16.0558  -32.6953    0.6837 H         1 NAP300      0.0000 
     57 H         -16.0596  -33.3067    2.3723 H         1 NAP300      0.0000 
     58 H         -20.3863  -31.6410    0.0183 H         1 NAP300      0.0000 
     59 H         -26.0400  -34.3864   12.1310 H         1 NAP300      0.0000 
     60 H         -24.9158  -34.9109   10.8656 H         1 NAP300      0.0000 
     61 H         -26.2285  -37.0134   10.5980 H         1 NAP300      0.0000 
     62 H         -28.2805  -35.9869   12.0885 H         1 NAP300      0.0000 
     63 H         -27.4577  -36.1606   14.2288 H         1 NAP300      0.0000 
     64 H         -25.8495  -38.5481   13.6316 H         1 NAP300      0.0000 
     65 H         -25.6659  -34.9283   14.6500 H         1 NAP300      0.0000 
     66 H         -25.5179  -33.2485   15.2863 H         1 NAP300      0.0000 
     67 H         -24.9830  -31.9366   16.3901 H         1 NAP300      0.0000 
     68 H         -23.0824  -35.9276   17.8377 H         1 NAP300      0.0000 
     69 H         -23.0542  -38.2607   17.1308 H         1 NAP300      0.0000 
     70 H         -24.3760  -38.9282   15.1668 H         1 NAP300      0.0000 
     71 H         -23.9000  -36.2005    1.5866 H         1 NAP300      0.0000 
     72 H         -28.3533  -38.5669   12.3575 H         1 NAP300      0.0000 
     73 H         -27.4897  -38.8542   14.4115 H         1 NAP300      0.0000 
@<TRIPOS>BOND
     1    2    1 ar   
     2    3    1 ar   
     3    4    1 1    
     4   23    1 1    
     5    5    4 1    
     6    6    5 1    
     7   49    5 1    
     8   50    5 1    
     9    7    6 1    
    10    8    6 1    
    11   51    6 1    
    12   12    7 1    
    13    9    8 1    
    14   10    8 1    
    15   52    8 1    
    16   71    9 1    
    17   11   10 1    
    18   12   10 1    
    19   53   10 1    
    20   45   11 1    
    21   13   12 1    
    22   54   12 1    
    23   14   13 1    
    24   22   13 1    
    25   15   14 2    
    26   55   14 1    
    27   16   15 1    
    28   17   16 ar   
    29   22   16 ar   
    30   18   17 1    
    31   19   17 ar   
    32   56   18 1    
    33   57   18 1    
    34   20   19 ar   
    35   21   20 ar   
    36   58   20 1    
    37   22   21 ar   
    38   24   23 1    
    39   25   24 ar   
    40   26   24 ar   
    41   27   24 1    
    42   28   27 1    
    43   29   28 1    
    44   59   28 1    
    45   60   28 1    
    46   30   29 1    
    47   31   29 1    
    48   61   29 1    
    49   35   30 1    
    50   32   31 1    
    51   33   31 1    
    52   62   31 1    
    53   72   32 1    
    54   34   33 1    
    55   35   33 1    
    56   63   33 1    
    57   73   34 1    
    58   36   35 1    
    59   64   35 1    
    60   37   36 ar   
    61   44   36 ar   
    62   38   37 ar   
    63   65   37 1    
    64   39   38 1    
    65   42   38 ar   
    66   40   39 2    
    67   41   39 am   
    68   66   41 1    
    69   67   41 1    
    70   43   42 ar   
    71   68   42 1    
    72   44   43 ar   
    73   69   43 1    
    74   70   44 1    
    75   46   45 ar   
    76   47   45 ar   
    77   48   45 ar   
@<TRIPOS>SUBSTRUCTURE
     1 NAP300      1 GROUP   
@<TRIPOS>SET

