#    Name: 4dit_0KD_1_INTS_M
#    Modification time : Tue Mar 25 09:44:00 2014

@<TRIPOS>MOLECULE
4dit_0KD_1_INTS_M
   58     0     9     0     0
SMALL
NO_CHARGES


@<TRIPOS>ATOM
      1 CA         12.1990   -2.2165  -15.2715 C.3       3 GLC5        0.0000 
      2 CA         10.6270   -3.2410  -14.1720 C.3       9 GLL5        0.0000 
      3 CA         13.7710   -1.1920  -16.3710 C.3       6 GLP5        0.0000 
      4 CA         11.9430   -5.2325  -12.1260 C.3       3 GLC5        0.0000 
      5 CA         10.4630   -3.8630  -12.8960 C.3       9 GLL5        0.0000 
      6 CA         13.4230   -6.6020  -11.3560 C.3       6 GLP5        0.0000 
      7 O          12.9305   -2.1945  -12.6740 O.2       1 ALC1        0.0000 
      8 O          12.2480   -2.6690  -11.6560 O.2       7 ALL1        0.0000 
      9 O          13.6130   -1.7200  -13.6920 O.2       4 ALP1        0.0000 
     10 CA         14.3405   -2.0085  -11.8050 C.3       3 GLC5        0.0000 
     11 CA         12.7490   -2.6590  -10.3860 C.3       9 GLL5        0.0000 
     12 CA         15.9320   -1.3580  -13.2240 C.3       6 GLP5        0.0000 
     13 CA         13.9790   -4.0680  -10.1830 C.3       3 GLC5        0.0000 
     14 CA         15.2090   -5.4770   -9.9800 C.3       6 GLP5        0.0000 
     15 CA         12.7085   -5.1145  -10.5160 C.3       3 GLC5        0.0000 
     16 CA         11.9940   -3.6270   -9.6760 C.3       9 GLL5        0.0000 
     17 N          14.5815   -1.2585  -10.9995 N.am      2 SEC2        0.0000 
     18 N          13.7560   -1.8780   -9.9270 N.am      8 SEL2        0.0000 
     19 N          15.4070   -0.6390  -12.0720 N.am      5 SEP2        0.0000 
     20 CA         14.6615   -0.5075   -9.4950 C.3       3 GLC5        0.0000 
     21 CA         14.0280   -2.0900   -8.6200 C.3       9 GLL5        0.0000 
     22 CA         15.2950    1.0750  -10.3700 C.3       6 GLP5        0.0000 
     23 CA         10.2780   -3.0530   -7.7845 C.3       3 GLC5        0.0000 
     24 CA         12.2870   -3.8490   -8.3010 C.3       9 GLL5        0.0000 
     25 CA          8.2690   -2.2570   -7.2680 C.3       6 GLP5        0.0000 
     26 CA          8.5270   -7.8370   -3.9475 C.3       3 GLC5        0.0000 
     27 CA          8.4200   -8.7340   -5.9540 C.3       9 GLL5        0.0000 
     28 CA          8.6340   -6.9400   -1.9410 C.3       6 GLP5        0.0000 
     29 N           9.2965   -7.9320   -3.6065 N.am      2 SEC2        0.0000 
     30 N           9.0110   -7.7770   -5.1930 N.am      8 SEL2        0.0000 
     31 N           9.5820   -8.0870   -2.0200 N.am      5 SEP2        0.0000 
     32 CA          9.5095   -6.2200   -4.0840 C.3       3 GLC5        0.0000 
     33 CA          9.7110   -6.7790   -5.8080 C.3       9 GLL5        0.0000 
     34 CA          9.3080   -5.6610   -2.3600 C.3       6 GLP5        0.0000 
     35 CA         10.6815   -8.7405   -5.4665 C.3       3 GLC5        0.0000 
     36 CA         11.6520  -10.7020   -5.1250 C.3       6 GLP5        0.0000 
     37 CA         11.6573   -4.1532  -15.9733 C.3       3 GLC5        0.0000 
     38 CA         13.1340   -4.8310  -17.3080 C.3       6 GLP5        0.0000 
     39 CA          8.9305   -5.4198  -16.1145 C.3       3 GLC5        0.0000 
     40 CA          9.7340   -3.7100  -15.1050 C.3       9 GLL5        0.0000 
     41 CA          8.6520   -6.5330  -17.4370 C.3       6 GLP5        0.0000 
     42 CA         15.2885   -3.2895   -7.5593 C.3       3 GLC5        0.0000 
     43 CA         16.8890   -4.0190   -6.9130 C.3       6 GLP5        0.0000 
     44 CA         14.3710   -1.8155   -6.5377 C.3       3 GLC5        0.0000 
     45 CA         13.3480   -3.0300   -7.7910 C.3       9 GLL5        0.0000 
     46 CA         15.0540   -1.0710   -4.8700 C.3       6 GLP5        0.0000 
     47 CA         14.0983   -4.3407   -9.1166 C.3       3 GLC5        0.0000 
     48 CA         11.4860   -7.7970   -7.8388 C.3       3 GLC5        0.0000 
     49 CA          9.8590   -6.6790   -7.2440 C.3       9 GLL5        0.0000 
     50 CA         13.4330   -8.3980   -8.0380 C.3       6 GLP5        0.0000 
     51 CA         10.0538   -9.7225   -5.8943 C.3       3 GLC5        0.0000 
     52 CA          8.4910   -8.7520   -7.3730 C.3       9 GLL5        0.0000 
     53 CA          8.3190   -5.6212   -6.6009 C.3       3 GLC5        0.0000 
     54 CA          7.0130   -4.2550   -6.4780 C.3       6 GLP5        0.0000 
     55 CA         10.5691   -5.9286  -14.0412 C.3       3 GLC5        0.0000 
     56 CA         11.4480   -7.5970  -14.3470 C.3       6 GLP5        0.0000 
     57 CA         12.2428   -1.5070   -8.1729 C.3       3 GLC5        0.0000 
     58 CA         11.4770    0.0140   -7.6600 C.3       6 GLP5        0.0000 
@<TRIPOS>BOND
@<TRIPOS>SUBSTRUCTURE
     1 ALC1        7 GROUP        1 X    ALC  0     ROOT ALC X 1
     2 SEC2       17 GROUP        1 X    SEC  0     **** SEC X 2
     3 GLC5        1 GROUP        1 X    GLC  0     **** GLC X 6
     4 ALP1        9 GROUP        1 Y    ALP  0     ROOT ALP Y 8
     5 SEP2       19 GROUP        1 Y    SEP  0     **** SEP Y 9
     6 GLP5        3 GROUP        1 Y    GLP  0     **** GLP Y 13
     7 ALL1        8 GROUP        1 Z    ALL  0     ROOT ALL Z 15
     8 SEL2       18 GROUP        1 Z    SEL  0     **** SEL Z 16
     9 GLL5        2 GROUP        1 Z    GLL  0     **** GLL Z 20
@<TRIPOS>SET

