#    Name: 4dit_0KD_1_ligand
#    Modification time : Tue Mar 25 09:44:00 2014

@<TRIPOS>MOLECULE
4dit_0KD_1_ligand
   34    37     1     0     0
SMALL
NO_CHARGES


@<TRIPOS>ATOM
      1 C1         10.6270   -3.2410  -14.1720 C.2       1 0KD501      0.0000 
      2 C2          9.7340   -3.7100  -15.1050 C.2       1 0KD501      0.0000 
      3 S3          8.6840   -4.9030  -14.4790 S.3       1 0KD501      0.0000 
      4 C4          9.4330   -4.7990  -12.9280 C.2       1 0KD501      0.0000 
      5 C5         10.4630   -3.8630  -12.8960 C.2       1 0KD501      0.0000 
      6 C6         11.2440   -3.5920  -11.7030 C.2       1 0KD501      0.0000 
      7 N7         12.2480   -2.6690  -11.6560 N.pl3     1 0KD501      0.0000 
      8 C8         12.7490   -2.6590  -10.3860 C.ar      1 0KD501      0.0000 
      9 C9         11.9940   -3.6270   -9.6760 C.ar      1 0KD501      0.0000 
     10 N10        11.0330   -4.1970  -10.5760 N.2       1 0KD501      0.0000 
     11 N11        13.7560   -1.8780   -9.9270 N.ar      1 0KD501      0.0000 
     12 C12        14.0280   -2.0900   -8.6200 C.ar      1 0KD501      0.0000 
     13 C13        13.3480   -3.0300   -7.7910 C.ar      1 0KD501      0.0000 
     14 C14        12.2870   -3.8490   -8.3010 C.ar      1 0KD501      0.0000 
     15 C15        11.6150   -4.8390   -7.3740 C.2       1 0KD501      0.0000 
     16 N16        10.6030   -5.6470   -7.9190 N.am      1 0KD501      0.0000 
     17 C17         9.8590   -6.6790   -7.2440 C.ar      1 0KD501      0.0000 
     18 C18         9.2190   -7.7130   -8.0350 C.ar      1 0KD501      0.0000 
     19 C19         8.4910   -8.7520   -7.3730 C.ar      1 0KD501      0.0000 
     20 C20         8.4200   -8.7340   -5.9540 C.ar      1 0KD501      0.0000 
     21 N21         9.0110   -7.7770   -5.1930 N.ar      1 0KD501      0.0000 
     22 C22         9.7110   -6.7790   -5.8080 C.ar      1 0KD501      0.0000 
     23 O23        11.9910   -4.9040   -6.2050 O.2       1 0KD501      0.0000 
     24 H          11.3057   -2.5623  -14.3333 H         1 0KD501      0.0000 
     25 H           9.5830   -3.5120  -16.0076 H         1 0KD501      0.0000 
     26 H           9.0692   -5.3720  -12.2972 H         1 0KD501      0.0000 
     27 H          12.5478   -2.1255  -12.3833 H         1 0KD501      0.0000 
     28 H          14.7991   -1.5305   -8.1490 H         1 0KD501      0.0000 
     29 H          13.6214   -3.1252   -6.8067 H         1 0KD501      0.0000 
     30 H          10.3480   -5.4887   -8.9450 H         1 0KD501      0.0000 
     31 H           9.2914   -7.6921   -9.0388 H         1 0KD501      0.0000 
     32 H           8.0407   -9.4777   -7.9051 H         1 0KD501      0.0000 
     33 H           7.8781   -9.5097   -5.4960 H         1 0KD501      0.0000 
     34 H          10.1770   -6.0316   -5.2407 H         1 0KD501      0.0000 
@<TRIPOS>BOND
     1    2    1 2    
     2    5    1 1    
     3   24    1 1    
     4    3    2 1    
     5   25    2 1    
     6    4    3 1    
     7    5    4 2    
     8   26    4 1    
     9    6    5 1    
    10    7    6 1    
    11   10    6 2    
    12    8    7 1    
    13   27    7 1    
    14    9    8 ar   
    15   11    8 ar   
    16   10    9 1    
    17   14    9 ar   
    18   12   11 ar   
    19   13   12 ar   
    20   28   12 1    
    21   14   13 ar   
    22   29   13 1    
    23   15   14 1    
    24   16   15 am   
    25   23   15 2    
    26   17   16 1    
    27   30   16 1    
    28   18   17 ar   
    29   22   17 ar   
    30   19   18 ar   
    31   31   18 1    
    32   20   19 ar   
    33   32   19 1    
    34   21   20 ar   
    35   33   20 1    
    36   22   21 ar   
    37   34   22 1    
@<TRIPOS>SUBSTRUCTURE
     1 0KD501      1 GROUP   
@<TRIPOS>SET

