#    Name: 2oyf_IAC_1_INTS_M
#    Modification time : Mon Mar 24 18:01:13 2014

@<TRIPOS>MOLECULE
2oyf_IAC_1_INTS_M
   40     0     9     0     0
SMALL
NO_CHARGES


@<TRIPOS>ATOM
      1 CA        -18.8725    2.5450   -8.2875 C.3       3 GLC5        0.0000 
      2 CA        -19.8710    4.0330   -8.4480 C.3       9 GLL5        0.0000 
      3 CA        -17.8740    1.0570   -8.1270 C.3       6 GLP5        0.0000 
      4 CA        -23.8715    4.8345   -7.4785 C.3       3 GLC5        0.0000 
      5 CA        -21.7940    5.1160   -7.2990 C.3       9 GLL5        0.0000 
      6 CA        -25.9490    4.5530   -7.6580 C.3       6 GLP5        0.0000 
      7 CA        -19.2805    5.7330   -6.8910 C.3       3 GLC5        0.0000 
      8 CA        -20.0990    3.8570   -6.0640 C.3       9 GLL5        0.0000 
      9 CA        -18.4620    7.6090   -7.7180 C.3       6 GLP5        0.0000 
     10 CA        -19.5800    3.0050   -4.3020 C.3       3 GLC5        0.0000 
     11 CA        -19.0610    2.1530   -2.5400 C.3       6 GLP5        0.0000 
     12 CA        -19.0695    5.6665   -9.7355 C.3       3 GLC5        0.0000 
     13 CA        -20.1550    4.5270  -10.5870 C.3       9 GLL5        0.0000 
     14 CA        -17.9840    6.8060   -8.8840 C.3       6 GLP5        0.0000 
     15 CA        -24.4190    5.6695  -11.7360 C.3       3 GLC5        0.0000 
     16 CA        -22.4900    5.8400  -10.6190 C.3       9 GLL5        0.0000 
     17 CA        -26.3480    5.4990  -12.8530 C.3       6 GLP5        0.0000 
     18 NZ        -23.0005    9.0590  -11.6915 N.4       2 LYC4        0.0000 
     19 NZ        -23.3900    8.0230  -10.8500 N.4       8 LYL4        0.0000 
     20 NZ        -22.6110   10.0950  -12.5330 N.4       5 LYP4        0.0000 
     21 N         -23.0005    9.0590  -11.6915 N.am      1 SEC2        0.0000 
     22 N         -23.3900    8.0230  -10.8500 N.am      7 SEL2        0.0000 
     23 N         -22.6110   10.0950  -12.5330 N.am      4 SEP2        0.0000 
     24 NZ        -21.9795    8.8850  -12.0645 N.4       2 LYC4        0.0000 
     25 NZ        -21.3480    7.6750  -11.5960 N.4       8 LYL4        0.0000 
     26 N         -21.9795    8.8850  -12.0645 N.am      1 SEC2        0.0000 
     27 N         -21.3480    7.6750  -11.5960 N.am      7 SEL2        0.0000 
     28 CA        -18.8098    5.3023   -8.3618 C.3       3 GLC5        0.0000 
     29 CA        -22.7358    3.0702   -6.5775 C.3       3 GLC5        0.0000 
     30 CA        -23.9370    1.2740   -6.4570 C.3       6 GLP5        0.0000 
     31 CA        -20.5836    6.4785   -7.5310 C.3       3 GLC5        0.0000 
     32 CA        -21.2750    4.6170   -6.0970 C.3       9 GLL5        0.0000 
     33 CA        -19.8020    8.1580   -8.0660 C.3       6 GLP5        0.0000 
     34 CA        -19.2933    2.1333   -6.8617 C.3       3 GLC5        0.0000 
     35 CA        -18.8370    0.5560   -7.0760 C.3       6 GLP5        0.0000 
     36 CA        -21.2342    2.1928   -6.9123 C.3       3 GLC5        0.0000 
     37 CA        -19.4000    3.5640   -7.2310 C.3       9 GLL5        0.0000 
     38 CA        -22.7190    0.6750   -7.1770 C.3       6 GLP5        0.0000 
     39 CA        -20.8508    6.8368   -9.1723 C.3       3 GLC5        0.0000 
     40 CA        -21.3090    5.1910   -9.9380 C.3       9 GLL5        0.0000 
@<TRIPOS>BOND
@<TRIPOS>SUBSTRUCTURE
     1 SEC2       21 GROUP        1 X    SEC  0     ROOT SEC X 2
     2 LYC4       18 GROUP        1 X    LYC  0     **** LYC X 4
     3 GLC5        1 GROUP        1 X    GLC  0     **** GLC X 6
     4 SEP2       23 GROUP        1 Y    SEP  0     ROOT SEP Y 9
     5 LYP4       20 GROUP        1 Y    LYP  0     **** LYP Y 11
     6 GLP5        3 GROUP        1 Y    GLP  0     **** GLP Y 13
     7 SEL2       22 GROUP        1 Z    SEL  0     ROOT SEL Z 16
     8 LYL4       19 GROUP        1 Z    LYL  0     **** LYL Z 18
     9 GLL5        2 GROUP        1 Z    GLL  0     **** GLL Z 20
@<TRIPOS>SET

