#    Name: 2oyf_IAC_1_ligand
#    Modification time : Mon Mar 24 18:01:13 2014

@<TRIPOS>MOLECULE
2oyf_IAC_1_ligand
   21    22     1     0     0
SMALL
NO_CHARGES


@<TRIPOS>ATOM
      1 C         -19.8710    4.0330   -8.4480 C.ar      1 IAC1001     0.0000 
      2 C1        -21.1170    4.8460   -8.4910 C.ar      1 IAC1001     0.0000 
      3 C2        -21.7940    5.1160   -7.2990 C.ar      1 IAC1001     0.0000 
      4 C3        -21.2750    4.6170   -6.0970 C.ar      1 IAC1001     0.0000 
      5 C4        -20.0990    3.8570   -6.0640 C.ar      1 IAC1001     0.0000 
      6 C5        -19.4000    3.5640   -7.2310 C.ar      1 IAC1001     0.0000 
      7 C7        -21.3090    5.1910   -9.9380 C.2       1 IAC1001     0.0000 
      8 C8        -20.1550    4.5270  -10.5870 C.2       1 IAC1001     0.0000 
      9 C17       -22.4900    5.8400  -10.6190 C.3       1 IAC1001     0.0000 
     10 C18       -22.3950    7.2850  -11.0340 C.2       1 IAC1001     0.0000 
     11 N         -19.3850    3.8980   -9.6880 N.pl3     1 IAC1001     0.0000 
     12 O2        -23.3900    8.0230  -10.8500 O.co2     1 IAC1001     0.0000 
     13 O3        -21.3480    7.6750  -11.5960 O.co2     1 IAC1001     0.0000 
     14 H         -22.6504    5.6660   -7.3018 H         1 IAC1001     0.0000 
     15 H         -21.7738    4.8153   -5.2104 H         1 IAC1001     0.0000 
     16 H         -19.7476    3.5097   -5.1556 H         1 IAC1001     0.0000 
     17 H         -18.5412    3.0040   -7.1889 H         1 IAC1001     0.0000 
     18 H         -20.0387    4.5843  -11.5420 H         1 IAC1001     0.0000 
     19 H         -23.3940    5.7194   -9.9513 H         1 IAC1001     0.0000 
     20 H         -22.7564    5.2245  -11.5288 H         1 IAC1001     0.0000 
     21 H         -18.5623    3.3979   -9.9132 H         1 IAC1001     0.0000 
@<TRIPOS>BOND
     1    2    1 ar   
     2    6    1 ar   
     3   11    1 1    
     4    3    2 ar   
     5    7    2 1    
     6    4    3 ar   
     7   14    3 1    
     8    5    4 ar   
     9   15    4 1    
    10    6    5 ar   
    11   16    5 1    
    12   17    6 1    
    13    8    7 2    
    14    9    7 1    
    15   11    8 1    
    16   18    8 1    
    17   10    9 1    
    18   19    9 1    
    19   20    9 1    
    20   12   10 ar   
    21   13   10 ar   
    22   21   11 1    
@<TRIPOS>SUBSTRUCTURE
     1 IAC1001     1 GROUP   
@<TRIPOS>SET

