#    Name: 3i6o_GR6_1_INTS_M
#    Modification time : Tue Mar 25 15:57:27 2014

@<TRIPOS>MOLECULE
3i6o_GR6_1_INTS_M
   98     0     9     0     0
SMALL
NO_CHARGES


@<TRIPOS>ATOM
      1 CA         16.1320  -24.5600   -2.3805 C.3       3 GLC5        0.0000 
      2 CA         14.3090  -23.5820   -2.7740 C.3       9 GLL5        0.0000 
      3 CA         17.9550  -25.5380   -1.9870 C.3       6 GLP5        0.0000 
      4 CA         13.8050  -20.4630   -2.8195 C.3       3 GLC5        0.0000 
      5 CA         15.1890  -19.9300   -4.2080 C.3       9 GLL5        0.0000 
      6 CA         12.4210  -20.9960   -1.4310 C.3       6 GLP5        0.0000 
      7 N          15.4795  -18.1385   -2.6555 N.am      2 SEC2        0.0000 
      8 N          15.7850  -17.6530   -3.7710 N.am      8 SEL2        0.0000 
      9 N          15.1740  -18.6240   -1.5400 N.am      5 SEP2        0.0000 
     10 O          14.8770  -16.6715   -4.2160 O.2       1 ALC1        0.0000 
     11 O          15.7850  -17.6530   -3.7710 O.2       7 ALL1        0.0000 
     12 O          13.9690  -15.6900   -4.6610 O.2       4 ALP1        0.0000 
     13 O          15.1370  -17.1305   -5.1715 O.2       1 ALC1        0.0000 
     14 O          14.4890  -16.6080   -6.5720 O.2       4 ALP1        0.0000 
     15 O          18.4280  -16.8335   -3.9820 O.2       1 ALC1        0.0000 
     16 O          18.4780  -18.0470   -4.8860 O.2       7 ALL1        0.0000 
     17 O          18.3780  -15.6200   -3.0780 O.2       4 ALP1        0.0000 
     18 CA         19.8225  -18.2405   -8.9420 C.3       3 GLC5        0.0000 
     19 CA         20.7190  -17.0650   -7.4440 C.3       9 GLL5        0.0000 
     20 CA         18.9260  -19.4160  -10.4400 C.3       6 GLP5        0.0000 
     21 CA         18.8460  -15.0000   -7.4860 C.3       3 GLC5        0.0000 
     22 CA         20.4390  -15.7750   -8.2300 C.3       9 GLL5        0.0000 
     23 CA         17.2530  -14.2250   -6.7420 C.3       6 GLP5        0.0000 
     24 CA         21.0315  -13.9175   -9.0530 C.3       3 GLC5        0.0000 
     25 CA         21.6240  -12.0600   -9.8760 C.3       6 GLP5        0.0000 
     26 CA         20.0215  -15.5235  -10.2030 C.3       3 GLC5        0.0000 
     27 CA         19.6040  -15.2720  -12.1760 C.3       6 GLP5        0.0000 
     28 CA         21.5610  -16.4355  -10.0020 C.3       3 GLC5        0.0000 
     29 CA         22.6830  -17.0960  -11.7740 C.3       6 GLP5        0.0000 
     30 CA         18.5425  -16.0280   -8.9970 C.3       3 GLC5        0.0000 
     31 CA         16.6460  -16.2810   -9.7640 C.3       6 GLP5        0.0000 
     32 N          20.6945  -13.1280   -7.6260 N.am      2 SEC2        0.0000 
     33 N          20.9550  -14.7120   -7.4440 N.am      8 SEL2        0.0000 
     34 N          20.4340  -11.5440   -7.8080 N.am      5 SEP2        0.0000 
     35 CA         20.0600  -14.6235   -6.0785 C.3       3 GLC5        0.0000 
     36 CA         22.1180  -15.1590   -6.7360 C.3       9 GLL5        0.0000 
     37 CA         18.0020  -14.0880   -5.4210 C.3       6 GLP5        0.0000 
     38 CA         22.1570  -13.3375   -5.9915 C.3       3 GLC5        0.0000 
     39 CA         22.1960  -11.5160   -5.2470 C.3       6 GLP5        0.0000 
     40 CA         21.8710  -13.6095   -8.3060 C.3       3 GLC5        0.0000 
     41 N          20.9900  -13.7225   -5.3770 N.am      2 SEC2        0.0000 
     42 N          21.9890  -14.8090   -5.3870 N.am      8 SEL2        0.0000 
     43 N          19.9910  -12.6360   -5.3670 N.am      5 SEP2        0.0000 
     44 CA         19.8990  -15.0230   -4.9800 C.3       3 GLC5        0.0000 
     45 CA         21.7960  -15.9580   -4.5390 C.3       9 GLL5        0.0000 
     46 CA         19.4960  -17.3785   -0.7940 C.3       3 GLC5        0.0000 
     47 CA         20.2950  -18.4630   -2.1380 C.3       9 GLL5        0.0000 
     48 CA         18.6970  -16.2940    0.5500 C.3       6 GLP5        0.0000 
     49 CA         23.4765  -21.1060   -1.7400 C.3       3 GLC5        0.0000 
     50 CA         22.2450  -19.8270   -2.4900 C.3       9 GLL5        0.0000 
     51 CA         24.7080  -22.3850   -0.9900 C.3       6 GLP5        0.0000 
     52 CA         21.1495  -22.7185   -3.7415 C.3       3 GLC5        0.0000 
     53 CA         21.4550  -20.8390   -3.0510 C.3       9 GLL5        0.0000 
     54 CA         20.8440  -24.5980   -4.4320 C.3       6 GLP5        0.0000 
     55 CA         22.7555  -22.0310   -2.5505 C.3       3 GLC5        0.0000 
     56 CA         24.0560  -23.2230   -2.0500 C.3       6 GLP5        0.0000 
     57 CA         19.7325  -22.6845   -3.5670 C.3       3 GLC5        0.0000 
     58 CA         20.0820  -20.6600   -3.1540 C.3       9 GLL5        0.0000 
     59 CA         19.3830  -24.7090   -3.9800 C.3       6 GLP5        0.0000 
     60 N          10.4545  -24.8785   -1.4530 N.am      2 SEC2        0.0000 
     61 N          11.3380  -25.6150   -2.4170 N.am      8 SEL2        0.0000 
     62 N           9.5710  -24.1420   -0.4890 N.am      5 SEP2        0.0000 
     63 CA          9.1535  -25.2465   -3.1860 C.3       3 GLC5        0.0000 
     64 CA         10.5340  -26.4300   -3.2670 C.3       9 GLL5        0.0000 
     65 CA          7.7730  -24.0630   -3.1050 C.3       6 GLP5        0.0000 
     66 CA         10.1845  -26.3975   -1.3325 C.3       3 GLC5        0.0000 
     67 CA          9.8350  -26.3650    0.6020 C.3       6 GLP5        0.0000 
     68 CA         11.7585  -28.1435   -3.1085 C.3       3 GLC5        0.0000 
     69 CA         12.9830  -29.8570   -2.9500 C.3       6 GLP5        0.0000 
     70 CA         11.9005  -22.2570  -10.6680 C.3       3 GLC5        0.0000 
     71 CA         12.8540  -22.5590   -9.0040 C.3       9 GLL5        0.0000 
     72 CA         10.9470  -21.9550  -12.3320 C.3       6 GLP5        0.0000 
     73 CA         15.4755  -23.7250   -8.8180 C.3       3 GLC5        0.0000 
     74 CA         14.0780  -22.2260   -9.4680 C.3       9 GLL5        0.0000 
     75 CA         16.8730  -25.2240   -8.1680 C.3       6 GLP5        0.0000 
     76 CA         12.1143  -22.6129   -3.4478 C.3       3 GLC5        0.0000 
     77 CA         12.2880  -24.6470   -4.3990 C.3       9 GLL5        0.0000 
     78 CA         11.4280  -20.9090   -2.5570 C.3       6 GLP5        0.0000 
     79 CA         14.4247  -24.9693   -0.8295 C.3       3 GLC5        0.0000 
     80 CA         15.0420  -25.9760    0.8340 C.3       6 GLP5        0.0000 
     81 CA         13.1146  -22.4495   -2.1344 C.3       3 GLC5        0.0000 
     82 CA         13.3060  -24.3430   -2.2120 C.3       9 GLL5        0.0000 
     83 CA         17.2852  -19.8382   -9.3995 C.3       3 GLC5        0.0000 
     84 CA         15.8950  -20.5540   -7.6900 C.3       9 GLL5        0.0000 
     85 CA         14.2248  -18.6145   -9.7272 C.3       3 GLC5        0.0000 
     86 CA         15.3940  -19.9670   -9.0280 C.3       9 GLL5        0.0000 
     87 CA         13.5370  -16.8320  -10.0110 C.3       6 GLP5        0.0000 
     88 CA         14.8807  -22.8128  -11.1233 C.3       3 GLC5        0.0000 
     89 CA         14.4310  -20.8270   -9.8590 C.3       9 GLL5        0.0000 
     90 CA         15.5070  -24.0990  -12.5830 C.3       6 GLP5        0.0000 
     91 CA         12.9202  -21.0423  -11.0717 C.3       3 GLC5        0.0000 
     92 CA         11.5860  -20.5580  -12.4800 C.3       6 GLP5        0.0000 
     93 CA         22.4023  -19.1176   -0.6608 C.3       3 GLC5        0.0000 
     94 CA         23.1900  -19.0490    0.9650 C.3       6 GLP5        0.0000 
     95 CA         21.6150  -21.1593   -4.6186 C.3       3 GLC5        0.0000 
     96 CA         22.2640  -21.8220   -6.2750 C.3       6 GLP5        0.0000 
     97 CA         18.5180  -20.9799   -1.5413 C.3       3 GLC5        0.0000 
     98 CA         17.6240  -21.9480   -0.1300 C.3       6 GLP5        0.0000 
@<TRIPOS>BOND
@<TRIPOS>SUBSTRUCTURE
     1 ALC1       10 GROUP        1 X    ALC  0     ROOT ALC X 1
     2 SEC2        7 GROUP        1 X    SEC  0     **** SEC X 2
     3 GLC5        1 GROUP        1 X    GLC  0     **** GLC X 6
     4 ALP1       12 GROUP        1 Y    ALP  0     ROOT ALP Y 8
     5 SEP2        9 GROUP        1 Y    SEP  0     **** SEP Y 9
     6 GLP5        3 GROUP        1 Y    GLP  0     **** GLP Y 13
     7 ALL1       11 GROUP        1 Z    ALL  0     ROOT ALL Z 15
     8 SEL2        8 GROUP        1 Z    SEL  0     **** SEL Z 16
     9 GLL5        2 GROUP        1 Z    GLL  0     **** GLL Z 20
@<TRIPOS>SET

