#    Name: 3i6o_GR6_1_ligand
#    Modification time : Tue Mar 25 15:57:27 2014

@<TRIPOS>MOLECULE
3i6o_GR6_1_ligand
   86    90     1     0     0
SMALL
NO_CHARGES


@<TRIPOS>ATOM
      1 C1         12.2980  -24.8740   -3.0270 C.ar      1 GR6301      0.0000 
      2 C2         12.2880  -24.6470   -4.3990 C.ar      1 GR6301      0.0000 
      3 C3         13.3080  -23.8730   -4.9640 C.ar      1 GR6301      0.0000 
      4 C4         14.3120  -23.3440   -4.1530 C.ar      1 GR6301      0.0000 
      5 C5         14.3090  -23.5820   -2.7740 C.ar      1 GR6301      0.0000 
      6 C6         13.3060  -24.3430   -2.2120 C.ar      1 GR6301      0.0000 
      7 S7         15.7530  -22.4820   -4.7990 S.o2      1 GR6301      0.0000 
      8 O8         16.6680  -22.3720   -3.6950 O.2       1 GR6301      0.0000 
      9 O9         16.1650  -23.1850   -6.0180 O.2       1 GR6301      0.0000 
     10 N10        15.3190  -20.9300   -5.2780 N.pl3     1 GR6301      0.0000 
     11 C11        14.7970  -20.7160   -6.6240 C.3       1 GR6301      0.0000 
     12 C12        15.8950  -20.5540   -7.6900 C.3       1 GR6301      0.0000 
     13 C13        15.3940  -19.9670   -9.0280 C.3       1 GR6301      0.0000 
     14 C14        14.4310  -20.8270   -9.8590 C.3       1 GR6301      0.0000 
     15 C15        15.1890  -19.9300   -4.2080 C.3       1 GR6301      0.0000 
     16 C16        16.1710  -18.7890   -4.5560 C.3       1 GR6301      0.0000 
     17 O17        15.7850  -17.6530   -3.7710 O.3       1 GR6301      0.0000 
     18 C18        17.6510  -19.1450   -4.3330 C.3       1 GR6301      0.0000 
     19 N19        18.4780  -18.0470   -4.8860 N.am      1 GR6301      0.0000 
     20 C20        19.1830  -18.2540   -6.0300 C.2       1 GR6301      0.0000 
     21 O21        19.3370  -19.3000   -6.6390 O.2       1 GR6301      0.0000 
     22 O22        19.7110  -17.0650   -6.4030 O.3       1 GR6301      0.0000 
     23 C23        20.7190  -17.0650   -7.4440 C.3       1 GR6301      0.0000 
     24 C24        20.4390  -15.7750   -8.2300 C.3       1 GR6301      0.0000 
     25 O25        20.9550  -14.7120   -7.4440 O.3       1 GR6301      0.0000 
     26 C26        22.1180  -15.1590   -6.7360 C.3       1 GR6301      0.0000 
     27 O27        21.9890  -14.8090   -5.3870 O.3       1 GR6301      0.0000 
     28 C28        21.7960  -15.9580   -4.5390 C.3       1 GR6301      0.0000 
     29 C29        22.3320  -17.1240   -5.3550 C.3       1 GR6301      0.0000 
     30 C30        22.1000  -16.7070   -6.8250 C.3       1 GR6301      0.0000 
     31 C31        17.9910  -19.2580   -2.8050 C.3       1 GR6301      0.0000 
     32 C32        20.2950  -18.4630   -2.1380 C.ar      1 GR6301      0.0000 
     33 C33        21.6730  -18.6280   -2.0280 C.ar      1 GR6301      0.0000 
     34 C34        22.2450  -19.8270   -2.4900 C.ar      1 GR6301      0.0000 
     35 C35        21.4550  -20.8390   -3.0510 C.ar      1 GR6301      0.0000 
     36 C36        20.0820  -20.6600   -3.1540 C.ar      1 GR6301      0.0000 
     37 C37        19.4930  -19.4690   -2.6970 C.ar      1 GR6301      0.0000 
     38 O38        11.3380  -25.6150   -2.4170 O.3       1 GR6301      0.0000 
     39 C39        10.5340  -26.4300   -3.2670 C.3       1 GR6301      0.0000 
     40 O40        13.3490  -23.6150   -6.3180 O.3       1 GR6301      0.0000 
     41 C41        12.2820  -24.1260   -7.1400 C.3       1 GR6301      0.0000 
     42 C42        12.5580  -23.9800   -8.6270 C.3       1 GR6301      0.0000 
     43 C43        12.8540  -22.5590   -9.0040 C.2       1 GR6301      0.0000 
     44 C44        14.0780  -22.2260   -9.4680 C.2       1 GR6301      0.0000 
     45 H          11.5520  -25.0360   -4.9867 H         1 GR6301      0.0000 
     46 H          15.0562  -23.1867   -2.1899 H         1 GR6301      0.0000 
     47 H          13.2892  -24.5253   -1.2019 H         1 GR6301      0.0000 
     48 H          14.1608  -19.8106   -6.6585 H         1 GR6301      0.0000 
     49 H          14.1521  -21.5611   -6.9335 H         1 GR6301      0.0000 
     50 H          16.3508  -21.5361   -7.8846 H         1 GR6301      0.0000 
     51 H          16.6848  -19.8999   -7.2919 H         1 GR6301      0.0000 
     52 H          16.2825  -19.7212   -9.6555 H         1 GR6301      0.0000 
     53 H          14.9042  -18.9875   -8.8175 H         1 GR6301      0.0000 
     54 H          14.8305  -20.8380  -10.9296 H         1 GR6301      0.0000 
     55 H          13.4653  -20.2278   -9.9790 H         1 GR6301      0.0000 
     56 H          15.4705  -20.3387   -3.2539 H         1 GR6301      0.0000 
     57 H          14.1949  -19.5211   -4.1729 H         1 GR6301      0.0000 
     58 H          16.0304  -18.5625   -5.6182 H         1 GR6301      0.0000 
     59 H          17.8804  -20.0605   -4.8031 H         1 GR6301      0.0000 
     60 H          18.4818  -17.1695   -4.3752 H         1 GR6301      0.0000 
     61 H          20.7677  -17.8470   -8.0414 H         1 GR6301      0.0000 
     62 H          19.3687  -15.7024   -8.3734 H         1 GR6301      0.0000 
     63 H          20.9341  -15.8594   -9.1887 H         1 GR6301      0.0000 
     64 H          23.0057  -14.8212   -7.1803 H         1 GR6301      0.0000 
     65 H          20.7568  -16.1332   -4.3331 H         1 GR6301      0.0000 
     66 H          22.3648  -15.8852   -3.6311 H         1 GR6301      0.0000 
     67 H          21.7738  -18.0035   -5.1490 H         1 GR6301      0.0000 
     68 H          23.3736  -17.2425   -5.1856 H         1 GR6301      0.0000 
     69 H          22.8874  -17.0015   -7.4320 H         1 GR6301      0.0000 
     70 H          17.4662  -20.0985   -2.4027 H         1 GR6301      0.0000 
     71 H          17.7071  -18.3446   -2.3266 H         1 GR6301      0.0000 
     72 H          19.8537  -17.5916   -1.8056 H         1 GR6301      0.0000 
     73 H          22.2576  -17.9030   -1.6243 H         1 GR6301      0.0000 
     74 H          23.2657  -19.9616   -2.4133 H         1 GR6301      0.0000 
     75 H          21.8931  -21.7037   -3.3815 H         1 GR6301      0.0000 
     76 H          19.4912  -21.3928   -3.5626 H         1 GR6301      0.0000 
     77 H          11.3278  -23.6059   -6.9195 H         1 GR6301      0.0000 
     78 H          12.1013  -25.2002   -6.9324 H         1 GR6301      0.0000 
     79 H          11.6845  -24.3368   -9.1873 H         1 GR6301      0.0000 
     80 H          13.4094  -24.6185   -8.8948 H         1 GR6301      0.0000 
     81 H          12.0901  -21.8959   -8.8864 H         1 GR6301      0.0000 
     82 H          14.8395  -22.9198   -9.5788 H         1 GR6301      0.0000 
     83 H          11.0840  -27.0941   -3.7735 H         1 GR6301      0.0000 
     84 H           9.8528  -26.9476   -2.7493 H         1 GR6301      0.0000 
     85 H          10.0370  -25.8851   -3.9424 H         1 GR6301      0.0000 
     86 H          15.0079  -17.2541   -4.2579 H         1 GR6301      0.0000 
@<TRIPOS>BOND
     1    2    1 ar   
     2    6    1 ar   
     3   38    1 1    
     4    3    2 ar   
     5   45    2 1    
     6    4    3 ar   
     7   40    3 1    
     8    5    4 ar   
     9    7    4 1    
    10    6    5 ar   
    11   46    5 1    
    12   47    6 1    
    13    8    7 2    
    14    9    7 2    
    15   10    7 1    
    16   11   10 1    
    17   15   10 1    
    18   12   11 1    
    19   48   11 1    
    20   49   11 1    
    21   13   12 1    
    22   50   12 1    
    23   51   12 1    
    24   14   13 1    
    25   52   13 1    
    26   53   13 1    
    27   44   14 1    
    28   54   14 1    
    29   55   14 1    
    30   16   15 1    
    31   56   15 1    
    32   57   15 1    
    33   17   16 1    
    34   18   16 1    
    35   58   16 1    
    36   86   17 1    
    37   19   18 1    
    38   31   18 1    
    39   59   18 1    
    40   20   19 am   
    41   60   19 1    
    42   21   20 2    
    43   22   20 1    
    44   23   22 1    
    45   24   23 1    
    46   30   23 1    
    47   61   23 1    
    48   25   24 1    
    49   62   24 1    
    50   63   24 1    
    51   26   25 1    
    52   27   26 1    
    53   30   26 1    
    54   64   26 1    
    55   28   27 1    
    56   29   28 1    
    57   65   28 1    
    58   66   28 1    
    59   30   29 1    
    60   67   29 1    
    61   68   29 1    
    62   69   30 1    
    63   37   31 1    
    64   70   31 1    
    65   71   31 1    
    66   33   32 ar   
    67   37   32 ar   
    68   72   32 1    
    69   34   33 ar   
    70   73   33 1    
    71   35   34 ar   
    72   74   34 1    
    73   36   35 ar   
    74   75   35 1    
    75   37   36 ar   
    76   76   36 1    
    77   39   38 1    
    78   83   39 1    
    79   84   39 1    
    80   85   39 1    
    81   41   40 1    
    82   42   41 1    
    83   77   41 1    
    84   78   41 1    
    85   43   42 1    
    86   79   42 1    
    87   80   42 1    
    88   44   43 2    
    89   81   43 1    
    90   82   44 1    
@<TRIPOS>SUBSTRUCTURE
     1 GR6301      1 GROUP   
@<TRIPOS>SET

