#    Name: 1hii_C20_1_INTS_M
#    Modification time : Tue Mar 25 05:31:47 2014

@<TRIPOS>MOLECULE
1hii_C20_1_INTS_M
   92     0     9     0     0
SMALL
NO_CHARGES


@<TRIPOS>ATOM
      1 N          20.0975   34.5380   16.9065 N.am      2 SEC2        0.0000 
      2 N          19.2440   35.1110   15.9210 N.am      8 SEL2        0.0000 
      3 N          20.9510   33.9650   17.8920 N.am      5 SEP2        0.0000 
      4 O          16.1210   36.2960   14.7785 O.2       1 ALC1        0.0000 
      5 O          17.0980   35.2760   15.2240 O.2       7 ALL1        0.0000 
      6 O          15.1440   37.3160   14.3330 O.2       4 ALP1        0.0000 
      7 CA         18.5020   32.8895   16.1255 C.3       3 GLC5        0.0000 
      8 CA         16.7940   33.8680   15.4550 C.3       9 GLL5        0.0000 
      9 CA         20.2100   31.9110   16.7960 C.3       6 GLP5        0.0000 
     10 CA         14.9180   30.3305   17.7555 C.3       3 GLC5        0.0000 
     11 CA         15.4020   32.2400   16.8690 C.3       9 GLL5        0.0000 
     12 CA         14.4340   28.4210   18.6420 C.3       6 GLP5        0.0000 
     13 O          18.7850   32.2700   13.8340 O.2       1 ALC1        0.0000 
     14 O          17.1730   32.3130   13.6100 O.2       7 ALL1        0.0000 
     15 O          20.3970   32.2270   14.0580 O.2       4 ALP1        0.0000 
     16 CA         16.8310   37.5440    9.0875 C.3       3 GLC5        0.0000 
     17 CA         17.5500   36.2990   10.6790 C.3       9 GLL5        0.0000 
     18 CA         16.1120   38.7890    7.4960 C.3       6 GLP5        0.0000 
     19 CA         16.4965   36.5260    8.2515 C.3       3 GLC5        0.0000 
     20 CA         16.7770   35.4720    9.8500 C.3       9 GLL5        0.0000 
     21 CA         16.2160   37.5800    6.6530 C.3       6 GLP5        0.0000 
     22 N          18.0630   29.1795   14.6410 N.am      2 SEC2        0.0000 
     23 N          18.3390   29.7460   13.2150 N.am      8 SEL2        0.0000 
     24 N          17.7870   28.6130   16.0670 N.am      5 SEP2        0.0000 
     25 O          19.3045   28.7005   12.8240 O.2       1 ALC1        0.0000 
     26 O          18.3390   29.7460   13.2150 O.2       7 ALL1        0.0000 
     27 O          20.2700   27.6550   12.4330 O.2       4 ALP1        0.0000 
     28 O          18.9485   29.3780   12.0400 O.2       1 ALC1        0.0000 
     29 O          19.5580   29.0100   10.8650 O.2       4 ALP1        0.0000 
     30 CA         14.4625   27.8040   15.9750 C.3       3 GLC5        0.0000 
     31 CA         14.1370   28.4210   14.0490 C.3       9 GLL5        0.0000 
     32 CA         14.7880   27.1870   17.9010 C.3       6 GLP5        0.0000 
     33 CA         11.5455   29.6130   12.1995 C.3       3 GLC5        0.0000 
     34 CA         12.6830   28.3790   13.6560 C.3       9 GLL5        0.0000 
     35 CA         10.4080   30.8470   10.7430 C.3       6 GLP5        0.0000 
     36 CA         11.2630   30.7915   15.5795 C.3       3 GLC5        0.0000 
     37 CA         11.7870   28.8730   14.7750 C.3       9 GLL5        0.0000 
     38 CA         10.7390   32.7100   16.3840 C.3       6 GLP5        0.0000 
     39 CA         10.3735   29.8200   12.5735 C.3       3 GLC5        0.0000 
     40 CA         10.3390   28.7930   14.4040 C.3       9 GLL5        0.0000 
     41 CA         10.1705   30.7715   14.1895 C.3       3 GLC5        0.0000 
     42 CA         10.0020   32.7500   13.9750 C.3       6 GLP5        0.0000 
     43 CA          8.9505   29.1565   15.5825 C.3       3 GLC5        0.0000 
     44 CA          7.5620   29.5200   16.7610 C.3       6 GLP5        0.0000 
     45 CA          8.2920   27.4320   15.0780 C.3       3 GLC5        0.0000 
     46 CA          9.9760   27.3850   14.0500 C.3       9 GLL5        0.0000 
     47 CA          6.6080   27.4790   16.1060 C.3       6 GLP5        0.0000 
     48 CA          9.8595   25.9810   15.2965 C.3       3 GLC5        0.0000 
     49 CA          9.7430   24.5770   16.5430 C.3       6 GLP5        0.0000 
     50 O          15.6210   27.2990   12.1250 O.2       1 ALC1        0.0000 
     51 O          14.9400   28.5650   11.7760 O.2       7 ALL1        0.0000 
     52 O          16.3020   26.0330   12.4740 O.2       4 ALP1        0.0000 
     53 O          11.5785   27.9050    9.3730 O.2       1 ALC1        0.0000 
     54 O          12.9790   27.3040    9.4800 O.2       7 ALL1        0.0000 
     55 O          10.1780   28.5060    9.2660 O.2       4 ALP1        0.0000 
     56 CA         16.1440   30.0010    6.1750 C.3       3 GLC5        0.0000 
     57 CA         15.7200   29.6820    8.2410 C.3       9 GLL5        0.0000 
     58 CA         16.5680   30.3200    4.1090 C.3       6 GLP5        0.0000 
     59 CA         17.4925   30.5320    7.6865 C.3       3 GLC5        0.0000 
     60 CA         19.2650   31.3820    7.1320 C.3       6 GLP5        0.0000 
     61 CA         15.5990   29.0665    5.5685 C.3       3 GLC5        0.0000 
     62 CA         14.6300   27.8130    7.0280 C.3       9 GLL5        0.0000 
     63 CA         12.9885   27.7115    6.0390 C.3       3 GLC5        0.0000 
     64 CA         11.3470   27.6100    5.0500 C.3       6 GLP5        0.0000 
     65 N          14.9875   24.4005    9.2905 N.am      2 SEC2        0.0000 
     66 N          13.9430   25.2760    9.7600 N.am      8 SEL2        0.0000 
     67 N          16.0320   23.5250    8.8210 N.am      5 SEP2        0.0000 
     68 CA         13.6602   33.0517   17.0582 C.3       3 GLC5        0.0000 
     69 CA         11.7330   33.1250   17.3710 C.3       6 GLP5        0.0000 
     70 CA         15.2998   35.6020   17.7055 C.3       3 GLC5        0.0000 
     71 CA         16.3580   34.3410   17.9120 C.3       9 GLL5        0.0000 
     72 CA         14.5340   37.1750   18.1440 C.3       6 GLP5        0.0000 
     73 CA         17.5754   32.3869   17.4559 C.3       3 GLC5        0.0000 
     74 CA         19.1780   31.1140   17.5830 C.3       6 GLP5        0.0000 
     75 CA         14.7394   33.9584   18.8429 C.3       3 GLC5        0.0000 
     76 CA         13.5060   34.2570   20.3570 C.3       6 GLP5        0.0000 
     77 CA         19.5890   36.3548   10.7010 C.3       3 GLC5        0.0000 
     78 CA         21.1880   37.0170   10.1620 C.3       6 GLP5        0.0000 
     79 CA         15.3443   33.7952    8.9567 C.3       3 GLC5        0.0000 
     80 CA         13.8940   32.8120    7.9890 C.3       6 GLP5        0.0000 
     81 CA         18.6909   32.5690    9.4226 C.3       3 GLC5        0.0000 
     82 CA         16.8120   34.0850    9.9990 C.3       9 GLL5        0.0000 
     83 CA         20.1300   31.7230    8.2690 C.3       6 GLP5        0.0000 
     84 CA         15.4149   35.4711   11.2074 C.3       3 GLC5        0.0000 
     85 CA         13.8420   35.9570   12.2830 C.3       6 GLP5        0.0000 
     86 CA         11.0660   25.4065   14.2903 C.3       3 GLC5        0.0000 
     87 CA         12.2990   26.9450   13.3510 C.3       9 GLL5        0.0000 
     88 CA         10.5490   23.9210   15.4280 C.3       6 GLP5        0.0000 
     89 CA         14.4940   31.0287    8.0965 C.3       3 GLC5        0.0000 
     90 CA         14.4680   28.8090    8.1670 C.3       9 GLL5        0.0000 
     91 CA         16.3653   27.4008    8.4464 C.3       3 GLC5        0.0000 
     92 CA         17.8970   26.3690    9.1100 C.3       6 GLP5        0.0000 
@<TRIPOS>BOND
@<TRIPOS>SUBSTRUCTURE
     1 ALC1        4 GROUP        1 X    ALC  0     ROOT ALC X 1
     2 SEC2        1 GROUP        1 X    SEC  0     **** SEC X 2
     3 GLC5        7 GROUP        1 X    GLC  0     **** GLC X 6
     4 ALP1        6 GROUP        1 Y    ALP  0     ROOT ALP Y 8
     5 SEP2        3 GROUP        1 Y    SEP  0     **** SEP Y 9
     6 GLP5        9 GROUP        1 Y    GLP  0     **** GLP Y 13
     7 ALL1        5 GROUP        1 Z    ALL  0     ROOT ALL Z 15
     8 SEL2        2 GROUP        1 Z    SEL  0     **** SEL Z 16
     9 GLL5        8 GROUP        1 Z    GLL  0     **** GLL Z 20
@<TRIPOS>SET

