#    Name: 1hii_C20_1_ligand
#    Modification time : Tue Mar 25 05:31:47 2014

@<TRIPOS>MOLECULE
1hii_C20_1_ligand
   93    94     1     0     0
SMALL
NO_CHARGES


@<TRIPOS>ATOM
      1 C1         18.5420   37.2270   14.9940 C.3       1 C20101      0.0000 
      2 C2         18.3210   35.7700   15.4160 C.2       1 C20101      0.0000 
      3 O3         19.2440   35.1110   15.9210 O.2       1 C20101      0.0000 
      4 N4         17.0980   35.2760   15.2240 N.am      1 C20101      0.0000 
      5 C5         16.7940   33.8680   15.4550 C.3       1 C20101      0.0000 
      6 C6         15.7730   33.7170   16.6220 C.3       1 C20101      0.0000 
      7 C7         15.4020   32.2400   16.8690 C.3       1 C20101      0.0000 
      8 C8         16.3580   34.3410   17.9120 C.3       1 C20101      0.0000 
      9 C9         16.3040   33.1480   14.1830 C.2       1 C20101      0.0000 
     10 O10        15.1630   33.3560   13.7360 O.2       1 C20101      0.0000 
     11 N11        17.1730   32.3130   13.6100 N.am      1 C20101      0.0000 
     12 C12        16.8530   31.5330   12.4160 C.3       1 C20101      0.0000 
     13 C13        17.7130   31.9960   11.2530 C.3       1 C20101      0.0000 
     14 C14        17.6700   33.4940   11.0540 C.ar      1 C20101      0.0000 
     15 C15        18.4790   34.3980   11.9090 C.ar      1 C20101      0.0000 
     16 C16        18.3810   35.7740   11.6930 C.ar      1 C20101      0.0000 
     17 C17        17.5500   36.2990   10.6790 C.ar      1 C20101      0.0000 
     18 C18        16.7770   35.4720    9.8500 C.ar      1 C20101      0.0000 
     19 C19        16.8120   34.0850    9.9990 C.ar      1 C20101      0.0000 
     20 C20        17.0720   30.0150   12.6290 C.3       1 C20101      0.0000 
     21 O21        18.3390   29.7460   13.2150 O.3       1 C20101      0.0000 
     22 C22        16.1060   29.4240   13.6140 C.3       1 C20101      0.0000 
     23 N23        14.8080   29.2300   13.0570 N.4       1 C20101      0.0000 
     24 C24        14.1370   28.4210   14.0490 C.3       1 C20101      0.0000 
     25 C25        12.6830   28.3790   13.6560 C.3       1 C20101      0.0000 
     26 C26        11.7870   28.8730   14.7750 C.3       1 C20101      0.0000 
     27 C27        10.3390   28.7930   14.4040 C.3       1 C20101      0.0000 
     28 C28         9.9760   27.3850   14.0500 C.3       1 C20101      0.0000 
     29 C29        10.8670   26.8390   12.9540 C.3       1 C20101      0.0000 
     30 C30        12.2990   26.9450   13.3510 C.3       1 C20101      0.0000 
     31 N31        14.9400   28.5650   11.7760 N.am      1 C20101      0.0000 
     32 C32        14.2880   28.9960   10.6920 C.2       1 C20101      0.0000 
     33 O33        13.7430   30.1070   10.6230 O.2       1 C20101      0.0000 
     34 C34        14.2410   28.0360    9.5010 C.3       1 C20101      0.0000 
     35 N35        12.9790   27.3040    9.4800 N.am      1 C20101      0.0000 
     36 C36        14.4680   28.8090    8.1670 C.3       1 C20101      0.0000 
     37 C37        15.7200   29.6820    8.2410 C.3       1 C20101      0.0000 
     38 C38        14.6300   27.8130    7.0280 C.3       1 C20101      0.0000 
     39 C39        12.9290   25.9810    9.6210 C.2       1 C20101      0.0000 
     40 O40        13.9430   25.2760    9.7600 O.2       1 C20101      0.0000 
     41 C41        11.5790   25.2880    9.5900 C.3       1 C20101      0.0000 
     42 H          16.3035   35.8653   14.9019 H         1 C20101      0.0000 
     43 H          17.7130   33.3473   15.7870 H         1 C20101      0.0000 
     44 H          14.8784   34.2622   16.3614 H         1 C20101      0.0000 
     45 H          18.1383   32.1735   13.9916 H         1 C20101      0.0000 
     46 H          15.8132   31.6765   12.1360 H         1 C20101      0.0000 
     47 H          17.3715   31.4975   10.3341 H         1 C20101      0.0000 
     48 H          18.7524   31.6826   11.4289 H         1 C20101      0.0000 
     49 H          19.0660   33.9932   12.6096 H         1 C20101      0.0000 
     50 H          18.9236   36.4257   12.2821 H         1 C20101      0.0000 
     51 H          17.5127   37.3263   10.5463 H         1 C20101      0.0000 
     52 H          16.1797   35.8956    9.1263 H         1 C20101      0.0000 
     53 H          16.2770   33.4609    9.4183 H         1 C20101      0.0000 
     54 H          16.9657   29.5053   11.6951 H         1 C20101      0.0000 
     55 H          16.0643   30.0936   14.4993 H         1 C20101      0.0000 
     56 H          16.5307   28.4650   13.9796 H         1 C20101      0.0000 
     57 H          14.3145   30.1741   12.9586 H         1 C20101      0.0000 
     58 H          14.2201   28.8581   15.0365 H         1 C20101      0.0000 
     59 H          14.5253   27.4100   14.0619 H         1 C20101      0.0000 
     60 H          12.5216   28.9714   12.7818 H         1 C20101      0.0000 
     61 H          12.0518   29.9117   15.0112 H         1 C20101      0.0000 
     62 H          11.9729   28.2697   15.6729 H         1 C20101      0.0000 
     63 H          10.1428   29.4473   13.5514 H         1 C20101      0.0000 
     64 H           9.7267   29.1290   15.2441 H         1 C20101      0.0000 
     65 H           8.9323   27.3451   13.7149 H         1 C20101      0.0000 
     66 H          10.0673   26.7453   14.9364 H         1 C20101      0.0000 
     67 H          10.6906   27.4049   12.0366 H         1 C20101      0.0000 
     68 H          10.6063   25.7943   12.7705 H         1 C20101      0.0000 
     69 H          12.4867   26.3305   14.2398 H         1 C20101      0.0000 
     70 H          12.9393   26.5701   12.5434 H         1 C20101      0.0000 
     71 H          15.5688   27.7367   11.7498 H         1 C20101      0.0000 
     72 H          15.0754   27.3373    9.6083 H         1 C20101      0.0000 
     73 H          12.1223   27.8826    9.3479 H         1 C20101      0.0000 
     74 H          13.6146   29.4237    7.9777 H         1 C20101      0.0000 
     75 H          18.8139   37.8003   15.7669 H         1 C20101      0.0000 
     76 H          19.2592   37.3085   14.3019 H         1 C20101      0.0000 
     77 H          17.7135   37.6312   14.6065 H         1 C20101      0.0000 
     78 H          16.2025   31.6913   17.1100 H         1 C20101      0.0000 
     79 H          14.7440   32.1422   17.6157 H         1 C20101      0.0000 
     80 H          14.9915   31.8198   16.0597 H         1 C20101      0.0000 
     81 H          17.2123   33.8982   18.1844 H         1 C20101      0.0000 
     82 H          16.5561   35.3144   17.7969 H         1 C20101      0.0000 
     83 H          15.7267   34.2595   18.6833 H         1 C20101      0.0000 
     84 H          16.5413   29.1393    8.4172 H         1 C20101      0.0000 
     85 H          15.8757   30.1810    7.3885 H         1 C20101      0.0000 
     86 H          15.6559   30.3622    8.9712 H         1 C20101      0.0000 
     87 H          14.7801   28.2716    6.1521 H         1 C20101      0.0000 
     88 H          15.4080   27.2025    7.1763 H         1 C20101      0.0000 
     89 H          13.8205   27.2356    6.9216 H         1 C20101      0.0000 
     90 H          11.6670   24.2982    9.7022 H         1 C20101      0.0000 
     91 H          10.9776   25.6134   10.3197 H         1 C20101      0.0000 
     92 H          11.1014   25.4436    8.7253 H         1 C20101      0.0000 
     93 H          18.9127   29.4327   12.4583 H         1 C20101      0.0000 
@<TRIPOS>BOND
     1    2    1 1    
     2   75    1 1    
     3   76    1 1    
     4   77    1 1    
     5    3    2 2    
     6    4    2 am   
     7    5    4 1    
     8   42    4 1    
     9    6    5 1    
    10    9    5 1    
    11   43    5 1    
    12    7    6 1    
    13    8    6 1    
    14   44    6 1    
    15   78    7 1    
    16   79    7 1    
    17   80    7 1    
    18   81    8 1    
    19   82    8 1    
    20   83    8 1    
    21   10    9 2    
    22   11    9 am   
    23   12   11 1    
    24   45   11 1    
    25   13   12 1    
    26   20   12 1    
    27   46   12 1    
    28   14   13 1    
    29   47   13 1    
    30   48   13 1    
    31   15   14 ar   
    32   19   14 ar   
    33   16   15 ar   
    34   49   15 1    
    35   17   16 ar   
    36   50   16 1    
    37   18   17 ar   
    38   51   17 1    
    39   19   18 ar   
    40   52   18 1    
    41   53   19 1    
    42   21   20 1    
    43   22   20 1    
    44   54   20 1    
    45   93   21 1    
    46   23   22 1    
    47   55   22 1    
    48   56   22 1    
    49   24   23 1    
    50   31   23 1    
    51   57   23 1    
    52   25   24 1    
    53   58   24 1    
    54   59   24 1    
    55   26   25 1    
    56   30   25 1    
    57   60   25 1    
    58   27   26 1    
    59   61   26 1    
    60   62   26 1    
    61   28   27 1    
    62   63   27 1    
    63   64   27 1    
    64   29   28 1    
    65   65   28 1    
    66   66   28 1    
    67   30   29 1    
    68   67   29 1    
    69   68   29 1    
    70   69   30 1    
    71   70   30 1    
    72   32   31 am   
    73   71   31 1    
    74   33   32 2    
    75   34   32 1    
    76   35   34 1    
    77   36   34 1    
    78   72   34 1    
    79   39   35 am   
    80   73   35 1    
    81   37   36 1    
    82   38   36 1    
    83   74   36 1    
    84   84   37 1    
    85   85   37 1    
    86   86   37 1    
    87   87   38 1    
    88   88   38 1    
    89   89   38 1    
    90   40   39 2    
    91   41   39 1    
    92   90   41 1    
    93   91   41 1    
    94   92   41 1    
@<TRIPOS>SUBSTRUCTURE
     1 C20101      1 GROUP   
@<TRIPOS>SET

