#    Name: 1DFO_1_CAVITY_N1_6.mol2
#    Modification time : Mon Mar 10 18:11:14 2014

@<TRIPOS>MOLECULE
1DFO_1_CAVITY_N1_6.mol2
   41     0     6     0     0
SMALL
NO_CHARGES


@<TRIPOS>ATOM
      1 OG         12.2029   86.9949   47.2871 O.2       1 SER1        0.0000 
      2 N          10.5254   86.3969   48.4396 N.2       2 ALA2        0.0000 
      3 N          10.8571   87.5856   47.5871 N.2       2 ALA2        0.0000 
      4 OG         11.1889   88.7743   46.7345 O.2       1 SER1        0.0000 
      5 CA          9.8431   89.3650   47.0345 C.3       5 GLY6        0.0000 
      6 CA         10.1749   90.5538   46.1819 C.3       5 GLY6        0.0000 
      7 OG         10.4166   90.0636   48.2316 O.2       1 SER1        0.0000 
      8 N          13.1740   83.7178   43.0957 N.2       2 ALA2        0.0000 
      9 N          11.4965   83.1198   44.2482 N.2       2 ALA2        0.0000 
     10 N          11.8282   84.3085   43.3957 N.2       2 ALA2        0.0000 
     11 DU         10.7242   84.4090   45.7453 H         6 CUB7        0.0000 
     12 O          11.0559   85.5978   44.8928 O.2       2 ALA2        0.0000 
     13 O          11.3877   86.7865   44.0402 O.2       2 ALA2        0.0000 
     14 CA          9.0467   83.8110   46.8979 C.3       5 GLY6        0.0000 
     15 CA          9.3784   84.9998   46.0453 C.3       5 GLY6        0.0000 
     16 CA          9.7102   86.1885   45.1928 C.3       5 GLY6        0.0000 
     17 O          10.0419   87.3772   44.3402 O.2       2 ALA2        0.0000 
     18 N          15.0932   83.8256   43.9928 N.2       2 ALA2        0.0000 
     19 CZ         13.4157   83.2276   45.1454 C.ar      4 PHE5        0.0000 
     20 O          13.7474   84.4163   44.2928 O.2       2 ALA2        0.0000 
     21 DU         12.0699   83.8183   45.4454 H         6 CUB7        0.0000 
     22 N          12.4017   85.0071   44.5928 N.2       2 ALA2        0.0000 
     23 O          12.7334   86.1958   43.7402 O.2       2 ALA2        0.0000 
     24 DU         10.1507   83.7105   44.5482 H         6 CUB7        0.0000 
     25 N          10.4825   84.8992   43.6956 N.2       2 ALA2        0.0000 
     26 CA          8.8049   84.3012   44.8482 C.3       5 GLY6        0.0000 
     27 CA          9.1367   85.4900   43.9956 C.3       5 GLY6        0.0000 
     28 N           8.2315   83.6027   43.6510 N.2       2 ALA2        0.0000 
     29 NZ         13.9892   83.9261   46.3425 N.2       3 LYS4        0.0000 
     30 NZ         12.6434   84.5169   46.6425 N.2       3 LYS4        0.0000 
     31 OG         12.9752   85.7056   45.7899 O.2       1 SER1        0.0000 
     32 CA         10.9659   83.9189   47.7950 C.3       5 GLY6        0.0000 
     33 NZ         11.2977   85.1076   46.9425 N.2       3 LYS4        0.0000 
     34 OG         11.6294   86.2963   46.0899 O.2       1 SER1        0.0000 
     35 OG         11.9612   87.4851   45.2374 O.2       1 SER1        0.0000 
     36 CA          9.6201   84.5096   48.0950 C.3       5 GLY6        0.0000 
     37 CA          9.9519   85.6983   47.2425 C.3       5 GLY6        0.0000 
     38 CA         10.2837   86.8870   46.3899 C.3       5 GLY6        0.0000 
     39 O          10.6154   88.0758   45.5373 O.2       2 ALA2        0.0000 
     40 O          10.9472   89.2645   44.6848 O.2       2 ALA2        0.0000 
     41 OG          9.2696   88.6665   45.8373 O.2       1 SER1        0.0000 
@<TRIPOS>BOND
@<TRIPOS>SUBSTRUCTURE
     1 SER1        1 GROUP   
     2 ALA2        2 GROUP   
     3 LYS4       29 GROUP   
     4 PHE5       19 GROUP   
     5 GLY6        5 GROUP   
     6 CUB7       11 GROUP   
@<TRIPOS>SET

