#    Name: 1dfo_PLG_1_INTS_M
#    Modification time : Mon Mar 24 21:45:43 2014

@<TRIPOS>MOLECULE
1dfo_PLG_1_INTS_M
   65     0    12     0     0
SMALL
NO_CHARGES


@<TRIPOS>ATOM
      1 CA          6.1465   88.6805   48.3930 C.3       4 GLC5        0.0000 
      2 CA          5.8090   90.3690   47.7960 C.3      12 GLL5        0.0000 
      3 CA          6.4840   86.9920   48.9900 C.3       8 GLP5        0.0000 
      4 CA          4.9740   88.3620   47.5400 C.3       4 GLC5        0.0000 
      5 CA          4.6420   90.1640   46.9040 C.3      12 GLL5        0.0000 
      6 CA          5.3060   86.5600   48.1760 C.3       8 GLP5        0.0000 
      7 CA          2.7395   90.6995   47.9575 C.3       4 GLC5        0.0000 
      8 CA          0.8370   91.2350   49.0110 C.3       8 GLP5        0.0000 
      9 O           7.1370   88.7135   45.9150 O.2       1 ALC1        0.0000 
     10 O           7.5160   90.0280   46.1790 O.2       9 ALL1        0.0000 
     11 O           6.7580   87.3990   45.6510 O.2       5 ALP1        0.0000 
     12 CA         11.5185   91.2980   47.9855 C.3       4 GLC5        0.0000 
     13 CA          9.5930   90.4500   48.0640 C.3      12 GLL5        0.0000 
     14 CA         13.4440   92.1460   47.9070 C.3       8 GLP5        0.0000 
     15 CA          6.4720   88.9300   49.5345 C.3       4 GLC5        0.0000 
     16 CA          6.4600   90.8680   50.0790 C.3      12 GLL5        0.0000 
     17 CA          5.9315   92.4040   48.6235 C.3       4 GLC5        0.0000 
     18 CA          5.4030   93.9400   47.1680 C.3       8 GLP5        0.0000 
     19 CA          8.1610   90.9150   53.0680 C.3       4 GLC5        0.0000 
     20 CA          8.7110   91.0350   50.9660 C.3      12 GLL5        0.0000 
     21 CA          7.6110   90.7950   55.1700 C.3       8 GLP5        0.0000 
     22 N           9.2635   91.8065   53.6675 N.am      2 SEC2        0.0000 
     23 N          10.6210   91.6870   53.0460 N.am     10 SEL2        0.0000 
     24 N           7.9060   91.9260   54.2890 N.am      6 SEP2        0.0000 
     25 N          10.0095   90.5700   53.6365 N.am      2 SEC2        0.0000 
     26 N           9.3980   89.4530   54.2270 N.am      6 SEP2        0.0000 
     27 N          12.1300   91.9615   49.7210 N.am      2 SEC2        0.0000 
     28 N          12.0030   91.5610   50.8740 N.am     10 SEL2        0.0000 
     29 N          12.2570   92.3620   48.5680 N.am      6 SEP2        0.0000 
     30 N          13.1565   90.8965   51.4900 N.am      2 SEC2        0.0000 
     31 N          14.3100   90.2320   52.1060 N.am      6 SEP2        0.0000 
     32 N           9.9775   94.0750   52.6125 N.am      2 SEC2        0.0000 
     33 N          11.3500   93.7400   51.8260 N.am     10 SEL2        0.0000 
     34 N           8.6050   94.4100   53.3990 N.am      6 SEP2        0.0000 
     35 NZ         10.3025   88.3855   43.1845 N.4       3 LYC4        0.0000 
     36 NZ         10.2750   88.9250   44.4860 N.4      11 LYL4        0.0000 
     37 NZ         11.4770   87.9630   41.2280 N.4       7 LYP4        0.0000 
     38 N          10.3025   88.3855   43.1845 N.am      2 SEC2        0.0000 
     39 N          10.2750   88.9250   44.4860 N.am     10 SEL2        0.0000 
     40 N          10.3300   87.8460   41.8830 N.am      6 SEP2        0.0000 
     41 NZ         12.5075   88.6500   43.2010 N.4       3 LYC4        0.0000 
     42 NZ         12.4620   88.8820   44.5420 N.4      11 LYL4        0.0000 
     43 N          12.9600   90.0860   44.0150 N.am      2 SEC2        0.0000 
     44 N          12.4620   88.8820   44.5420 N.am     10 SEL2        0.0000 
     45 N          13.4580   91.2900   43.4880 N.am      6 SEP2        0.0000 
     46 N          12.5075   88.6500   43.2010 N.am      2 SEC2        0.0000 
     47 N          12.5530   88.4180   41.8600 N.am      6 SEP2        0.0000 
     48 N          13.3745   88.4765   45.3465 N.am      2 SEC2        0.0000 
     49 N          14.2870   88.0710   46.1510 N.am      6 SEP2        0.0000 
     50 CA         11.8110   90.9285   44.9680 C.3       4 GLC5        0.0000 
     51 CA         11.3260   89.7630   46.4400 C.3      12 GLL5        0.0000 
     52 CA         12.2960   92.0940   43.4960 C.3       8 GLP5        0.0000 
     53 CA         10.3820   91.4365   46.1290 C.3       4 GLC5        0.0000 
     54 CA          9.4380   93.1100   45.8180 C.3       8 GLP5        0.0000 
     55 CA         12.3850   90.9545   47.1735 C.3       4 GLC5        0.0000 
     56 CA          5.8076   92.1126   47.2795 C.3       4 GLC5        0.0000 
     57 CA          7.1990   90.3040   47.4320 C.3      12 GLL5        0.0000 
     58 CA          9.0416   91.7717   46.9104 C.3       4 GLC5        0.0000 
     59 CA          8.0166   88.8811   48.7742 C.3       4 GLC5        0.0000 
     60 CA          7.8450   90.8070   49.7820 C.3      12 GLL5        0.0000 
     61 CA          7.7880   87.1420   48.6560 C.3       8 GLP5        0.0000 
     62 CA          8.1785   93.0335   50.1230 C.3       4 GLC5        0.0000 
     63 CA          8.0790   95.1460   49.8720 C.3       8 GLP5        0.0000 
     64 CA          7.6489   92.3921   51.6786 C.3       4 GLC5        0.0000 
     65 CA          7.3660   93.8480   52.9090 C.3       8 GLP5        0.0000 
@<TRIPOS>BOND
@<TRIPOS>SUBSTRUCTURE
     1 ALC1        9 GROUP        1 X    ALC  0     ROOT ALC X 1
     2 SEC2       22 GROUP        1 X    SEC  0     **** SEC X 2
     3 LYC4       35 GROUP        1 X    LYC  0     **** LYC X 4
     4 GLC5        1 GROUP        1 X    GLC  0     **** GLC X 6
     5 ALP1       11 GROUP        1 Y    ALP  0     ROOT ALP Y 8
     6 SEP2       24 GROUP        1 Y    SEP  0     **** SEP Y 9
     7 LYP4       37 GROUP        1 Y    LYP  0     **** LYP Y 11
     8 GLP5        3 GROUP        1 Y    GLP  0     **** GLP Y 13
     9 ALL1       10 GROUP        1 Z    ALL  0     ROOT ALL Z 15
    10 SEL2       23 GROUP        1 Z    SEL  0     **** SEL Z 16
    11 LYL4       36 GROUP        1 Z    LYL  0     **** LYL Z 18
    12 GLL5        2 GROUP        1 Z    GLL  0     **** GLL Z 20
@<TRIPOS>SET

