#    Name: 1dfo_PLG_1_ligand
#    Modification time : Mon Mar 24 21:45:43 2014

@<TRIPOS>MOLECULE
1dfo_PLG_1_ligand
   31    31     1     0     0
SMALL
NO_CHARGES


@<TRIPOS>ATOM
      1 N1          5.5360   90.6470   49.0860 N.ar      1 PLG1001     0.0000 
      2 C2          5.8090   90.3690   47.7960 C.ar      1 PLG1001     0.0000 
      3 C2A         4.6420   90.1640   46.9040 C.3       1 PLG1001     0.0000 
      4 C3          7.1990   90.3040   47.4320 C.ar      1 PLG1001     0.0000 
      5 O3          7.5160   90.0280   46.1790 O.3       1 PLG1001     0.0000 
      6 C4          8.1960   90.5300   48.4510 C.ar      1 PLG1001     0.0000 
      7 C4A         9.5930   90.4500   48.0640 C.3       1 PLG1001     0.0000 
      8 C5          7.8450   90.8070   49.7820 C.ar      1 PLG1001     0.0000 
      9 C6          6.4600   90.8680   50.0790 C.ar      1 PLG1001     0.0000 
     10 C5A         8.7110   91.0350   50.9660 C.3       1 PLG1001     0.0000 
     11 OP4         9.6090   92.1260   50.9330 O.3       1 PLG1001     0.0000 
     12 P          10.9270   92.3100   51.7150 P.3       1 PLG1001     0.0000 
     13 OP1        10.6210   91.6870   53.0460 O.co2     1 PLG1001     0.0000 
     14 OP2        12.0030   91.5610   50.8740 O.co2     1 PLG1001     0.0000 
     15 OP3        11.3500   93.7400   51.8260 O.co2     1 PLG1001     0.0000 
     16 C          11.3600   89.1440   45.0580 C.2       1 PLG1001     0.0000 
     17 O          10.2750   88.9250   44.4860 O.co2     1 PLG1001     0.0000 
     18 OXT        12.4620   88.8820   44.5420 O.co2     1 PLG1001     0.0000 
     19 CA         11.3260   89.7630   46.4400 C.3       1 PLG1001     0.0000 
     20 N           9.9770   89.7460   46.9730 N.4       1 PLG1001     0.0000 
     21 H          10.1791   90.0946   49.0025 H         1 PLG1001     0.0000 
     22 H           9.9842   91.5424   47.9996 H         1 PLG1001     0.0000 
     23 H           6.1678   91.0782   51.0397 H         1 PLG1001     0.0000 
     24 H           9.2752   90.0673   51.1677 H         1 PLG1001     0.0000 
     25 H           8.0317   91.1122   51.8760 H         1 PLG1001     0.0000 
     26 H          11.7064   90.7905   46.3681 H         1 PLG1001     0.0000 
     27 H          12.0109   89.2002   47.0879 H         1 PLG1001     0.0000 
     28 H           4.9227   89.9588   45.9664 H         1 PLG1001     0.0000 
     29 H           4.0686   89.4045   47.2112 H         1 PLG1001     0.0000 
     30 H           4.0579   90.9747   46.8643 H         1 PLG1001     0.0000 
     31 H           7.2749   89.0651   46.0572 H         1 PLG1001     0.0000 
@<TRIPOS>BOND
     1    2    1 ar   
     2    9    1 ar   
     3    3    2 1    
     4    4    2 ar   
     5   28    3 1    
     6   29    3 1    
     7   30    3 1    
     8    5    4 1    
     9    6    4 ar   
    10   31    5 1    
    11    7    6 1    
    12    8    6 ar   
    13   20    7 1    
    14   21    7 1    
    15   22    7 1    
    16    9    8 ar   
    17   10    8 1    
    18   23    9 1    
    19   11   10 1    
    20   24   10 1    
    21   25   10 1    
    22   12   11 1    
    23   13   12 ar   
    24   14   12 ar   
    25   15   12 ar   
    26   17   16 ar   
    27   18   16 ar   
    28   19   16 1    
    29   20   19 1    
    30   26   19 1    
    31   27   19 1    
@<TRIPOS>SUBSTRUCTURE
     1 PLG1001     1 GROUP   
@<TRIPOS>SET

