#    Name: 3U2C_1_CAVITY_N1_6.mol2
#    Modification time : Tue Mar 11 05:44:44 2014

@<TRIPOS>MOLECULE
3U2C_1_CAVITY_N1_6.mol2
  103     0     5     0     0
SMALL
NO_CHARGES


@<TRIPOS>ATOM
      1 CZ        -11.9232   14.7927   14.5054 C.ar      3 PHE5        0.0000 
      2 CZ        -13.5349   12.3288   18.2245 C.ar      3 PHE5        0.0000 
      3 DU        -13.8669   11.2793   21.0152 H         5 CUB7        0.0000 
      4 DU        -14.0329   10.7545   22.4106 H         5 CUB7        0.0000 
      5 OG        -14.8147   10.9145   19.1528 O.2       1 SER1        0.0000 
      6 OG        -14.9807   10.3897   20.5482 O.2       1 SER1        0.0000 
      7 O         -15.1467    9.8649   21.9436 O.2       2 ALA2        0.0000 
      8 CA        -15.3126    9.3402   23.3389 C.3       4 GLY6        0.0000 
      9 CZ         -9.6524   15.1192   13.2858 C.ar      3 PHE5        0.0000 
     10 CZ         -9.8184   14.5945   14.6812 C.ar      3 PHE5        0.0000 
     11 CZ        -10.9322   13.7049   14.2142 C.ar      3 PHE5        0.0000 
     12 CZ        -11.4302   12.1306   18.4003 C.ar      3 PHE5        0.0000 
     13 CZ        -11.5962   11.6059   19.7957 C.ar      3 PHE5        0.0000 
     14 CZ        -11.7622   11.0811   21.1911 C.ar      3 PHE5        0.0000 
     15 CZ        -11.9282   10.5564   22.5864 C.ar      3 PHE5        0.0000 
     16 CZ        -12.0942   10.0316   23.9818 C.ar      3 PHE5        0.0000 
     17 CZ        -12.5440   11.2410   17.9333 C.ar      3 PHE5        0.0000 
     18 CZ        -12.7100   10.7163   19.3286 C.ar      3 PHE5        0.0000 
     19 DU        -12.8760   10.1915   20.7240 H         5 CUB7        0.0000 
     20 DU        -13.0419    9.6668   22.1194 H         5 CUB7        0.0000 
     21 DU        -13.2079    9.1420   23.5148 H         5 CUB7        0.0000 
     22 OG        -13.8237    9.8267   18.8616 O.2       1 SER1        0.0000 
     23 O         -14.1557    8.7772   21.6524 O.2       2 ALA2        0.0000 
     24 O         -14.3217    8.2524   23.0477 O.2       2 ALA2        0.0000 
     25 N          -7.7137   14.3963   14.8571 N.2       2 ALA2        0.0000 
     26 DU         -7.8797   13.8716   16.2524 H         5 CUB7        0.0000 
     27 DU         -8.0457   13.3468   17.6478 H         5 CUB7        0.0000 
     28 CZ         -8.2117   12.8220   19.0432 C.ar      3 PHE5        0.0000 
     29 CA         -8.8275   13.5067   14.3900 C.3       4 GLY6        0.0000 
     30 CZ         -8.9935   12.9820   15.7854 C.ar      3 PHE5        0.0000 
     31 CZ         -9.1595   12.4572   17.1808 C.ar      3 PHE5        0.0000 
     32 CZ         -9.3255   11.9324   18.5762 C.ar      3 PHE5        0.0000 
     33 CZ         -9.4915   11.4077   19.9715 C.ar      3 PHE5        0.0000 
     34 CZ         -9.9413   12.6171   13.9230 C.ar      3 PHE5        0.0000 
     35 CZ        -10.2733   11.5676   16.7137 C.ar      3 PHE5        0.0000 
     36 CZ        -10.4393   11.0429   18.1091 C.ar      3 PHE5        0.0000 
     37 CZ        -10.6052   10.5181   19.5045 C.ar      3 PHE5        0.0000 
     38 CZ        -10.7712    9.9933   20.8999 C.ar      3 PHE5        0.0000 
     39 CZ        -10.9372    9.4686   22.2952 C.ar      3 PHE5        0.0000 
     40 CZ        -11.7190    9.6285   19.0375 C.ar      3 PHE5        0.0000 
     41 DU        -11.8850    9.1037   20.4328 H         5 CUB7        0.0000 
     42 CZ        -12.0510    8.5790   21.8282 C.ar      3 PHE5        0.0000 
     43 CZ        -12.2170    8.0542   23.2236 C.ar      3 PHE5        0.0000 
     44 CA        -12.8328    8.7389   18.5704 C.3       4 GLY6        0.0000 
     45 CA        -12.9988    8.2141   19.9658 C.3       4 GLY6        0.0000 
     46 CA        -13.1648    7.6894   21.3612 C.3       4 GLY6        0.0000 
     47 O         -13.3308    7.1646   22.7565 O.2       2 ALA2        0.0000 
     48 N          -5.6090   14.1981   15.0329 N.2       2 ALA2        0.0000 
     49 O          -5.7750   13.6734   16.4283 O.2       2 ALA2        0.0000 
     50 O          -5.9410   13.1486   17.8237 O.2       2 ALA2        0.0000 
     51 N          -6.7228   13.3085   14.5659 N.2       2 ALA2        0.0000 
     52 O          -6.8888   12.7838   15.9613 O.2       2 ALA2        0.0000 
     53 O          -7.0548   12.2590   17.3566 O.2       2 ALA2        0.0000 
     54 CZ         -7.2208   11.7343   18.7520 C.ar      3 PHE5        0.0000 
     55 CA         -7.8366   12.4189   14.0988 C.3       4 GLY6        0.0000 
     56 CA         -8.0026   11.8942   15.4942 C.3       4 GLY6        0.0000 
     57 DU         -8.1686   11.3694   16.8896 H         5 CUB7        0.0000 
     58 CZ         -8.3345   10.8447   18.2850 C.ar      3 PHE5        0.0000 
     59 CZ         -9.1163   11.0046   15.0272 C.ar      3 PHE5        0.0000 
     60 CZ         -9.2823   10.4798   16.4225 C.ar      3 PHE5        0.0000 
     61 CZ         -9.4483    9.9551   17.8179 C.ar      3 PHE5        0.0000 
     62 CZ         -9.6143    9.4303   19.2133 C.ar      3 PHE5        0.0000 
     63 CZ        -10.5621    9.0655   17.3509 C.ar      3 PHE5        0.0000 
     64 CA        -10.7281    8.5407   18.7463 C.3       4 GLY6        0.0000 
     65 CZ        -10.8941    8.0160   20.1416 C.ar      3 PHE5        0.0000 
     66 CZ        -11.0601    7.4912   21.5370 C.ar      3 PHE5        0.0000 
     67 O         -11.2261    6.9665   22.9324 O.2       2 ALA2        0.0000 
     68 CA        -12.0079    7.1264   19.6746 C.3       4 GLY6        0.0000 
     69 O          -4.7841   12.5856   16.1371 O.2       2 ALA2        0.0000 
     70 O          -5.8979   11.6960   15.6701 O.2       2 ALA2        0.0000 
     71 CA         -7.0116   10.8064   15.2030 C.3       4 GLY6        0.0000 
     72 O          -7.1776   10.2817   16.5984 O.2       2 ALA2        0.0000 
     73 CZ         -7.3436    9.7569   17.9938 C.ar      3 PHE5        0.0000 
     74 CZ         -7.5096    9.2321   19.3891 C.ar      3 PHE5        0.0000 
     75 CA         -8.1254    9.9168   14.7360 C.3       4 GLY6        0.0000 
     76 DU         -8.2914    9.3921   16.1313 H         5 CUB7        0.0000 
     77 DU         -8.4574    8.8673   17.5267 H         5 CUB7        0.0000 
     78 CZ         -8.6234    8.3426   18.9221 C.ar      3 PHE5        0.0000 
     79 CZ         -9.4052    8.5025   15.6643 C.ar      3 PHE5        0.0000 
     80 CZ         -9.5712    7.9777   17.0597 C.ar      3 PHE5        0.0000 
     81 CA         -9.7372    7.4530   18.4551 C.3       4 GLY6        0.0000 
     82 CZ         -9.9031    6.9282   19.8504 C.ar      3 PHE5        0.0000 
     83 CA        -10.0691    6.4034   21.2458 C.3       4 GLY6        0.0000 
     84 CA        -10.6849    7.0881   16.5926 C.3       4 GLY6        0.0000 
     85 CA        -10.8509    6.5634   17.9880 C.3       4 GLY6        0.0000 
     86 O          -6.1867    9.1939   16.3072 O.2       2 ALA2        0.0000 
     87 CZ         -6.3527    8.6691   17.7026 C.ar      3 PHE5        0.0000 
     88 CZ         -6.5187    8.1444   19.0979 C.ar      3 PHE5        0.0000 
     89 CA         -7.3005    8.3043   15.8402 C.3       4 GLY6        0.0000 
     90 DU         -7.4664    7.7795   17.2355 H         5 CUB7        0.0000 
     91 DU         -7.6324    7.2548   18.6309 H         5 CUB7        0.0000 
     92 CA         -7.7984    6.7300   20.0263 C.3       4 GLY6        0.0000 
     93 CZ         -8.4142    7.4147   15.3731 C.ar      3 PHE5        0.0000 
     94 O          -8.5802    6.8899   16.7685 O.2       2 ALA2        0.0000 
     95 CZ         -8.7462    6.3652   18.1639 C.ar      3 PHE5        0.0000 
     96 CA         -8.9122    5.8404   19.5592 C.3       4 GLY6        0.0000 
     97 CZ         -5.3617    7.5814   17.4114 C.ar      3 PHE5        0.0000 
     98 CZ         -5.5277    7.0566   18.8068 C.ar      3 PHE5        0.0000 
     99 N          -6.3095    7.2165   15.5490 N.2       2 ALA2        0.0000 
    100 CZ         -6.4755    6.6918   16.9443 C.ar      3 PHE5        0.0000 
    101 CZ         -6.6415    6.1670   18.3397 C.ar      3 PHE5        0.0000 
    102 O          -7.5893    5.8022   16.4773 O.2       2 ALA2        0.0000 
    103 CZ         -7.7553    5.2774   17.8727 C.ar      3 PHE5        0.0000 
@<TRIPOS>BOND
@<TRIPOS>SUBSTRUCTURE
     1 SER1        5 GROUP   
     2 ALA2        7 GROUP   
     3 PHE5        1 GROUP   
     4 GLY6        8 GROUP   
     5 CUB7        3 GROUP   
@<TRIPOS>SET

