#    Name: 3u2c_SUZ_1_INTS_M
#    Modification time : Mon Mar 24 21:19:34 2014

@<TRIPOS>MOLECULE
3u2c_SUZ_1_INTS_M
   48     0     6     0     0
SMALL
NO_CHARGES


@<TRIPOS>ATOM
      1 CA        -11.4865    9.5080   17.1755 C.3       2 GLC5        0.0000 
      2 CA        -10.4880    9.0440   18.9400 C.3       6 GLL5        0.0000 
      3 CA        -12.4850    9.9720   15.4110 C.3       4 GLP5        0.0000 
      4 CA         -9.3240    9.1405   20.5195 C.3       2 GLC5        0.0000 
      5 CA         -8.1600    9.2370   22.0990 C.3       4 GLP5        0.0000 
      6 CA        -11.8685    7.5000   18.1745 C.3       2 GLC5        0.0000 
      7 CA        -13.2490    5.9560   17.4090 C.3       4 GLP5        0.0000 
      8 CA         -8.0135   11.3555   13.9600 C.3       2 GLC5        0.0000 
      9 CA         -7.8120   11.6830   16.0650 C.3       6 GLL5        0.0000 
     10 CA         -8.2150   11.0280   11.8550 C.3       4 GLP5        0.0000 
     11 CA         -4.3700   11.1865   16.2190 C.3       2 GLC5        0.0000 
     12 CA         -5.6900   11.6410   15.0840 C.3       6 GLL5        0.0000 
     13 CA         -3.0500   10.7320   17.3540 C.3       4 GLP5        0.0000 
     14 CA         -4.4280   10.5715   14.4620 C.3       2 GLC5        0.0000 
     15 CA         -3.1660    9.5020   13.8400 C.3       4 GLP5        0.0000 
     16 CA         -5.0840    8.5870   18.5705 C.3       2 GLC5        0.0000 
     17 CA         -5.9910    7.1300   17.9670 C.3       6 GLL5        0.0000 
     18 CA         -4.1770   10.0440   19.1740 C.3       4 GLP5        0.0000 
     19 CA         -6.2895    6.0395   19.8885 C.3       2 GLC5        0.0000 
     20 CA         -6.5880    4.9490   21.8100 C.3       4 GLP5        0.0000 
     21 CA         -5.2810    5.5580   18.1305 C.3       2 GLC5        0.0000 
     22 CA         -4.5710    3.9860   18.2940 C.3       4 GLP5        0.0000 
     23 N          -4.2150    6.1245   15.2855 N.am      1 SEC2        0.0000 
     24 N          -5.7740    6.2720   15.8590 N.am      5 SEL2        0.0000 
     25 N          -2.6560    5.9770   14.7120 N.am      3 SEP2        0.0000 
     26 N          -5.9795    5.6350   14.6905 N.am      1 SEC2        0.0000 
     27 N          -6.1850    4.9980   13.5220 N.am      3 SEP2        0.0000 
     28 N          -3.3220    6.2290   15.7505 N.am      1 SEC2        0.0000 
     29 N          -3.9880    6.4810   16.7890 N.am      5 SEL2        0.0000 
     30 CA         -9.4125    5.1520   18.4285 C.3       2 GLC5        0.0000 
     31 CA         -8.8270    6.6640   19.5330 C.3       6 GLL5        0.0000 
     32 CA         -9.9980    3.6400   17.3240 C.3       4 GLP5        0.0000 
     33 CA         -8.4935    7.9505   20.8160 C.3       2 GLC5        0.0000 
     34 CA         -7.7075    5.8065   20.6715 C.3       2 GLC5        0.0000 
     35 CA        -13.0230    7.8865   18.0285 C.3       2 GLC5        0.0000 
     36 CA        -12.7970    9.8170   18.6480 C.3       6 GLL5        0.0000 
     37 CA        -15.8275   10.2875   18.9555 C.3       2 GLC5        0.0000 
     38 CA        -13.7220   10.8860   18.5900 C.3       6 GLL5        0.0000 
     39 CA        -17.9330    9.6890   19.3210 C.3       4 GLP5        0.0000 
     40 CA        -15.6030   12.9855   15.8795 C.3       2 GLC5        0.0000 
     41 CA        -15.7230   13.1020   17.5140 C.3       6 GLL5        0.0000 
     42 CA        -15.4830   12.8690   14.2450 C.3       4 GLP5        0.0000 
     43 CA        -17.6200   13.2595   16.7455 C.3       2 GLC5        0.0000 
     44 CA        -19.5170   13.4170   15.9770 C.3       4 GLP5        0.0000 
     45 CA        -16.8280   11.3955   18.4175 C.3       2 GLC5        0.0000 
     46 CA         -6.3149    9.9667   14.1031 C.3       2 GLC5        0.0000 
     47 CA         -6.5750   11.0490   15.8630 C.3       6 GLL5        0.0000 
     48 CA         -6.4190    9.3510   12.2400 C.3       4 GLP5        0.0000 
@<TRIPOS>BOND
@<TRIPOS>SUBSTRUCTURE
     1 SEC2       23 GROUP        1 X    SEC  0     ROOT SEC X 2
     2 GLC5        1 GROUP        1 X    GLC  0     **** GLC X 6
     3 SEP2       25 GROUP        1 Y    SEP  0     ROOT SEP Y 9
     4 GLP5        3 GROUP        1 Y    GLP  0     **** GLP Y 13
     5 SEL2       24 GROUP        1 Z    SEL  0     ROOT SEL Z 16
     6 GLL5        2 GROUP        1 Z    GLL  0     **** GLL Z 20
@<TRIPOS>SET

