#    Name: 3u2c_SUZ_1_ligand
#    Modification time : Mon Mar 24 21:19:34 2014

@<TRIPOS>MOLECULE
3u2c_SUZ_1_ligand
   41    43     1     0     0
SMALL
NO_CHARGES


@<TRIPOS>ATOM
      1 C20       -12.0470   12.5410   19.0540 C.ar      1 SUZ2001     0.0000 
      2 C19       -11.1090   11.5150   19.1020 C.ar      1 SUZ2001     0.0000 
      3 C5        -11.4610   10.1720   18.9270 C.ar      1 SUZ2001     0.0000 
      4 C6        -10.4880    9.0440   18.9400 C.2       1 SUZ2001     0.0000 
      5 C7         -9.2690    8.9560   18.4090 C.2       1 SUZ2001     0.0000 
      6 C18        -8.4940    9.8690   17.5070 C.ar      1 SUZ2001     0.0000 
      7 C17        -8.7480   11.0830   16.8840 C.ar      1 SUZ2001     0.0000 
      8 C16        -7.8120   11.6830   16.0650 C.ar      1 SUZ2001     0.0000 
      9 C15        -6.5750   11.0490   15.8630 C.ar      1 SUZ2001     0.0000 
     10 F          -5.6900   11.6410   15.0840 F         1 SUZ2001     0.0000 
     11 C14        -6.2890    9.8200   16.4590 C.ar      1 SUZ2001     0.0000 
     12 C13        -7.2610    9.2790   17.2680 C.ar      1 SUZ2001     0.0000 
     13 C10        -7.2070    7.9680   18.0120 C.2       1 SUZ2001     0.0000 
     14 C11        -5.9910    7.1300   17.9670 C.3       1 SUZ2001     0.0000 
     15 C12        -5.3520    6.6240   16.8090 C.2       1 SUZ2001     0.0000 
     16 O3         -5.7740    6.2720   15.8590 O.co2     1 SUZ2001     0.0000 
     17 O2         -3.9880    6.4810   16.7890 O.co2     1 SUZ2001     0.0000 
     18 C8         -8.3660    7.7850   18.6780 C.2       1 SUZ2001     0.0000 
     19 C9         -8.8270    6.6640   19.5330 C.3       1 SUZ2001     0.0000 
     20 C4        -12.7970    9.8170   18.6480 C.ar      1 SUZ2001     0.0000 
     21 C3        -13.7220   10.8860   18.5900 C.ar      1 SUZ2001     0.0000 
     22 C2        -13.3990   12.2380   18.7870 C.ar      1 SUZ2001     0.0000 
     23 S         -14.5120   13.6060   18.7440 S.o       1 SUZ2001     0.0000 
     24 O1        -15.3070   13.6520   19.9560 O.2       1 SUZ2001     0.0000 
     25 C1        -15.7230   13.1020   17.5140 C.3       1 SUZ2001     0.0000 
     26 H         -11.7676   13.5118   19.2100 H         1 SUZ2001     0.0000 
     27 H         -10.1080   11.7511   19.2742 H         1 SUZ2001     0.0000 
     28 H         -10.8865    8.1783   19.4830 H         1 SUZ2001     0.0000 
     29 H          -9.6654   11.5491   17.0395 H         1 SUZ2001     0.0000 
     30 H          -8.0061   12.5752   15.6076 H         1 SUZ2001     0.0000 
     31 H          -5.4072    9.3574   16.2979 H         1 SUZ2001     0.0000 
     32 H          -6.1864    6.2308   18.7057 H         1 SUZ2001     0.0000 
     33 H          -5.1841    7.6897   18.6213 H         1 SUZ2001     0.0000 
     34 H         -13.0737    8.8755   18.5010 H         1 SUZ2001     0.0000 
     35 H         -14.7298   10.6444   18.3827 H         1 SUZ2001     0.0000 
     36 H          -8.1265    5.9567   19.6277 H         1 SUZ2001     0.0000 
     37 H          -9.0593    6.9718   20.4557 H         1 SUZ2001     0.0000 
     38 H          -9.6415    6.2215   19.1579 H         1 SUZ2001     0.0000 
     39 H         -15.3006   12.9369   16.6228 H         1 SUZ2001     0.0000 
     40 H         -16.1908   12.2583   17.7774 H         1 SUZ2001     0.0000 
     41 H         -16.4280   13.7984   17.3797 H         1 SUZ2001     0.0000 
@<TRIPOS>BOND
     1    2    1 ar   
     2   22    1 ar   
     3   26    1 1    
     4    3    2 ar   
     5   27    2 1    
     6    4    3 1    
     7   20    3 ar   
     8    5    4 2    
     9   28    4 1    
    10    6    5 1    
    11   18    5 1    
    12    7    6 ar   
    13   12    6 ar   
    14    8    7 ar   
    15   29    7 1    
    16    9    8 ar   
    17   30    8 1    
    18   10    9 1    
    19   11    9 ar   
    20   12   11 ar   
    21   31   11 1    
    22   13   12 1    
    23   14   13 1    
    24   18   13 2    
    25   15   14 1    
    26   32   14 1    
    27   33   14 1    
    28   16   15 ar   
    29   17   15 ar   
    30   19   18 1    
    31   36   19 1    
    32   37   19 1    
    33   38   19 1    
    34   21   20 ar   
    35   34   20 1    
    36   22   21 ar   
    37   35   21 1    
    38   23   22 1    
    39   24   23 2    
    40   25   23 1    
    41   39   25 1    
    42   40   25 1    
    43   41   25 1    
@<TRIPOS>SUBSTRUCTURE
     1 SUZ2001     1 GROUP   
@<TRIPOS>SET

