#    Name: 3inm_NDP_2_INTS_M
#    Modification time : Tue Mar 25 16:56:08 2014

@<TRIPOS>MOLECULE
3inm_NDP_2_INTS_M
   81     0    12     0     0
SMALL
NO_CHARGES


@<TRIPOS>ATOM
      1 N          13.4930   43.1470  -16.6350 N.am      2 SEC2        0.0000 
      2 N          12.6720   43.2000  -15.4000 N.am     10 SEL2        0.0000 
      3 N          14.3140   43.0940  -17.8700 N.am      6 SEP2        0.0000 
      4 N          10.3120   43.2330  -18.3435 N.am      2 SEC2        0.0000 
      5 N          11.0650   43.0380  -17.2900 N.am     10 SEL2        0.0000 
      6 N           9.5590   43.4280  -19.3970 N.am      6 SEP2        0.0000 
      7 CA          6.7015   45.5255  -13.8600 C.3       4 GLC5        0.0000 
      8 CA          8.5970   46.4650  -14.5850 C.3      12 GLL5        0.0000 
      9 CA          4.8060   44.5860  -13.1350 C.3       8 GLP5        0.0000 
     10 N           7.3030   45.1880  -13.0265 N.am      2 SEC2        0.0000 
     11 N           7.3010   46.1190  -14.2070 N.am     10 SEL2        0.0000 
     12 N           7.3050   44.2570  -11.8460 N.am      6 SEP2        0.0000 
     13 CA         13.6245   50.6965  -18.5325 C.3       4 GLC5        0.0000 
     14 CA         11.6880   49.8200  -18.6400 C.3      12 GLL5        0.0000 
     15 CA         15.5610   51.5730  -18.4250 C.3       8 GLP5        0.0000 
     16 CA         10.4795   49.7310  -19.9975 C.3       4 GLC5        0.0000 
     17 CA          9.2710   49.6420  -21.3550 C.3       8 GLP5        0.0000 
     18 CA         12.1580   51.7490  -19.3315 C.3       4 GLC5        0.0000 
     19 CA         12.6280   53.6780  -20.0230 C.3       8 GLP5        0.0000 
     20 O          12.7700   50.4885  -20.7660 O.2       1 ALC1        0.0000 
     21 O          12.5750   49.6760  -19.6260 O.2       9 ALL1        0.0000 
     22 O          12.9650   51.3010  -21.9060 O.2       5 ALP1        0.0000 
     23 N          10.7780   51.8180  -19.7630 N.am      2 SEC2        0.0000 
     24 N          10.9520   50.9800  -18.5410 N.am     10 SEL2        0.0000 
     25 N          10.6040   52.6560  -20.9850 N.am      6 SEP2        0.0000 
     26 CA          9.7220   50.4215  -19.3950 C.3       4 GLC5        0.0000 
     27 CA         10.1730   51.2010  -17.4350 C.3      12 GLL5        0.0000 
     28 CA         11.4005   52.4395  -18.7290 C.3       4 GLC5        0.0000 
     29 CA         10.3585   53.1210  -16.4245 C.3       4 GLC5        0.0000 
     30 CA         10.5440   55.0410  -15.4140 C.3       8 GLP5        0.0000 
     31 CA          9.6180   48.0065  -17.4185 C.3       4 GLC5        0.0000 
     32 CA         10.8980   49.1540  -16.4700 C.3      12 GLL5        0.0000 
     33 CA          8.3380   46.8590  -18.3670 C.3       8 GLP5        0.0000 
     34 CA          7.7450   40.2495  -16.8470 C.3       4 GLC5        0.0000 
     35 CA          9.6640   39.7940  -16.8770 C.3      12 GLL5        0.0000 
     36 CA          5.8260   40.7050  -16.8170 C.3       8 GLP5        0.0000 
     37 CA         10.1600   39.7225  -19.6885 C.3       4 GLC5        0.0000 
     38 CA         10.2120   38.7520  -17.8290 C.3      12 GLL5        0.0000 
     39 CA         10.1080   40.6930  -21.5480 C.3       8 GLP5        0.0000 
     40 N          11.5575   40.4450  -19.0545 N.am      2 SEC2        0.0000 
     41 N          11.5160   39.1530  -18.2310 N.am     10 SEL2        0.0000 
     42 N          11.5990   41.7370  -19.8780 N.am      6 SEP2        0.0000 
     43 N           8.3305   36.6165  -18.4460 N.am      2 SEC2        0.0000 
     44 N           9.8570   36.3960  -17.9760 N.am     10 SEL2        0.0000 
     45 N           6.8040   36.8370  -18.9160 N.am      6 SEP2        0.0000 
     46 N          12.3250   34.8780  -18.4045 N.am      2 SEC2        0.0000 
     47 N          12.3000   35.8810  -17.0910 N.am     10 SEL2        0.0000 
     48 N          12.3500   33.8750  -19.7180 N.am      6 SEP2        0.0000 
     49 CA         11.8305   36.6775  -19.7450 C.3       4 GLC5        0.0000 
     50 CA         12.4160   38.0740  -18.1360 C.3      12 GLL5        0.0000 
     51 CA         11.2450   35.2810  -21.3540 C.3       8 GLP5        0.0000 
     52 CA         12.9840   40.0415  -18.3070 C.3       4 GLC5        0.0000 
     53 CA         13.5520   42.0090  -18.4780 C.3       8 GLP5        0.0000 
     54 CA         11.8085   38.8980  -20.0445 C.3       4 GLC5        0.0000 
     55 CA         11.2010   39.7220  -21.9530 C.3       8 GLP5        0.0000 
     56 O          14.8790   37.7625  -21.0775 O.2       1 ALC1        0.0000 
     57 O          16.3080   38.6630  -21.1190 O.2       9 ALL1        0.0000 
     58 O          13.4500   36.8620  -21.0360 O.2       5 ALP1        0.0000 
     59 NZ          8.0395   49.7390  -11.0005 N.4       3 LYC4        0.0000 
     60 NZ          6.7960   49.2290  -11.4970 N.4      11 LYL4        0.0000 
     61 NZ          9.2830   50.2490  -10.5040 N.4       7 LYP4        0.0000 
     62 N           8.0395   49.7390  -11.0005 N.am      2 SEC2        0.0000 
     63 N           6.7960   49.2290  -11.4970 N.am     10 SEL2        0.0000 
     64 N           9.2830   50.2490  -10.5040 N.am      6 SEP2        0.0000 
     65 N           7.6155   47.9735  -10.6255 N.am      2 SEC2        0.0000 
     66 N           8.4350   46.7180   -9.7540 N.am      6 SEP2        0.0000 
     67 N           6.3055   49.7865  -15.2920 N.am      2 SEC2        0.0000 
     68 N           6.4680   50.0050  -13.7550 N.am     10 SEL2        0.0000 
     69 N           6.1430   49.5680  -16.8290 N.am      6 SEP2        0.0000 
     70 CA          8.5463   47.0293  -16.4447 C.3       4 GLC5        0.0000 
     71 CA          8.9120   47.9340  -14.4600 C.3      12 GLL5        0.0000 
     72 CA         10.9060   47.7250  -19.0280 C.3       4 GLC5        0.0000 
     73 CA         11.6620   48.8960  -17.5840 C.3      12 GLL5        0.0000 
     74 CA         10.1370   46.0920  -19.9440 C.3       8 GLP5        0.0000 
     75 CA         11.4290   37.0093  -14.9860 C.3       4 GLC5        0.0000 
     76 CA         10.3840   37.3960  -17.1360 C.3      12 GLL5        0.0000 
     77 CA         11.7200   36.7070  -12.9090 C.3       8 GLP5        0.0000 
     78 CA         14.3915   40.4715  -18.6725 C.3       4 GLC5        0.0000 
     79 CA         14.6130   38.6380  -18.9220 C.3      12 GLL5        0.0000 
     80 CA         14.2422   40.7559  -17.6545 C.3       4 GLC5        0.0000 
     81 CA         16.3150   39.8960  -17.5340 C.3      12 GLL5        0.0000 
@<TRIPOS>BOND
@<TRIPOS>SUBSTRUCTURE
     1 ALC1       20 GROUP        1 X    ALC  0     ROOT ALC X 1
     2 SEC2        1 GROUP        1 X    SEC  0     **** SEC X 2
     3 LYC4       59 GROUP        1 X    LYC  0     **** LYC X 4
     4 GLC5        7 GROUP        1 X    GLC  0     **** GLC X 6
     5 ALP1       22 GROUP        1 Y    ALP  0     ROOT ALP Y 8
     6 SEP2        3 GROUP        1 Y    SEP  0     **** SEP Y 9
     7 LYP4       61 GROUP        1 Y    LYP  0     **** LYP Y 11
     8 GLP5        9 GROUP        1 Y    GLP  0     **** GLP Y 13
     9 ALL1       21 GROUP        1 Z    ALL  0     ROOT ALL Z 15
    10 SEL2        2 GROUP        1 Z    SEL  0     **** SEL Z 16
    11 LYL4       60 GROUP        1 Z    LYL  0     **** LYL Z 18
    12 GLL5        8 GROUP        1 Z    GLL  0     **** GLL Z 20
@<TRIPOS>SET

