#    Name: 3inm_NDP_2_ligand
#    Modification time : Tue Mar 25 16:56:08 2014

@<TRIPOS>MOLECULE
3inm_NDP_2_ligand
   74    78     1     0     0
SMALL
NO_CHARGES


@<TRIPOS>ATOM
      1 PA         11.2790   43.1970  -15.8310 P.3       1 NDP501      0.0000 
      2 O1A        12.6720   43.2000  -15.4000 O.co2     1 NDP501      0.0000 
      3 O2A        11.0650   43.0380  -17.2900 O.co2     1 NDP501      0.0000 
      4 O5B        10.6190   44.5190  -15.3400 O.3       1 NDP501      0.0000 
      5 C5B         9.9090   44.4250  -14.1290 C.3       1 NDP501      0.0000 
      6 C4B         9.6110   45.8200  -13.6580 C.3       1 NDP501      0.0000 
      7 O4B        10.7720   46.6310  -13.7720 O.3       1 NDP501      0.0000 
      8 C3B         8.5970   46.4650  -14.5850 C.3       1 NDP501      0.0000 
      9 O3B         7.3010   46.1190  -14.2070 O.3       1 NDP501      0.0000 
     10 C2B         8.9120   47.9340  -14.4600 C.3       1 NDP501      0.0000 
     11 O2B         8.4300   48.4560  -13.2370 O.3       1 NDP501      0.0000 
     12 C1B        10.4250   47.9100  -14.3050 C.3       1 NDP501      0.0000 
     13 N9A        11.0510   48.0810  -15.6180 N.pl3     1 NDP501      0.0000 
     14 C8A        11.9200   47.2010  -16.2070 C.2       1 NDP501      0.0000 
     15 N7A        12.3020   47.7120  -17.3830 N.2       1 NDP501      0.0000 
     16 C5A        11.6620   48.8960  -17.5840 C.ar      1 NDP501      0.0000 
     17 C6A        11.6880   49.8200  -18.6400 C.ar      1 NDP501      0.0000 
     18 N6A        12.5750   49.6760  -19.6260 N.pl3     1 NDP501      0.0000 
     19 N1A        10.9520   50.9800  -18.5410 N.ar      1 NDP501      0.0000 
     20 C2A        10.1730   51.2010  -17.4350 C.ar      1 NDP501      0.0000 
     21 N3A        10.1390   50.2810  -16.4220 N.ar      1 NDP501      0.0000 
     22 C4A        10.8980   49.1540  -16.4700 C.ar      1 NDP501      0.0000 
     23 O3         10.2460   42.3090  -14.9980 O.3       1 NDP501      0.0000 
     24 PN         10.2280   40.8050  -14.5040 P.3       1 NDP501      0.0000 
     25 O1N        11.2010   40.5910  -13.4280 O.co2     1 NDP501      0.0000 
     26 O2N         8.8200   40.6880  -14.1850 O.co2     1 NDP501      0.0000 
     27 O5D        10.5230   39.8340  -15.7560 O.3       1 NDP501      0.0000 
     28 C5D         9.6640   39.7940  -16.8770 C.3       1 NDP501      0.0000 
     29 C4D        10.2120   38.7520  -17.8290 C.3       1 NDP501      0.0000 
     30 O4D        11.5160   39.1530  -18.2310 O.3       1 NDP501      0.0000 
     31 C3D        10.3840   37.3960  -17.1360 C.3       1 NDP501      0.0000 
     32 O3D         9.8570   36.3960  -17.9760 O.3       1 NDP501      0.0000 
     33 C2D        11.8920   37.2270  -16.9900 C.3       1 NDP501      0.0000 
     34 O2D        12.3000   35.8810  -17.0910 O.3       1 NDP501      0.0000 
     35 C1D        12.4160   38.0740  -18.1360 C.3       1 NDP501      0.0000 
     36 N1N        13.7570   38.5750  -17.8830 N.pl3     1 NDP501      0.0000 
     37 C2N        14.6130   38.6380  -18.9220 C.2       1 NDP501      0.0000 
     38 C3N        15.8490   39.2300  -18.8120 C.2       1 NDP501      0.0000 
     39 C7N        16.7200   39.2630  -20.0240 C.2       1 NDP501      0.0000 
     40 O7N        17.9610   39.8980  -19.9720 O.2       1 NDP501      0.0000 
     41 N7N        16.3080   38.6630  -21.1190 N.am      1 NDP501      0.0000 
     42 C4N        16.3150   39.8960  -17.5340 C.3       1 NDP501      0.0000 
     43 C5N        15.2850   39.7990  -16.4500 C.2       1 NDP501      0.0000 
     44 C6N        14.0650   39.1580  -16.6700 C.2       1 NDP501      0.0000 
     45 P2B         6.8900   48.8550  -12.9340 P.3       1 NDP501      0.0000 
     46 O1X         6.7960   49.2290  -11.4970 O.co2     1 NDP501      0.0000 
     47 O2X         6.4680   50.0050  -13.7550 O.co2     1 NDP501      0.0000 
     48 O3X         5.9380   47.7360  -13.2260 O.co2     1 NDP501      0.0000 
     49 H          10.4875   43.9178  -13.3512 H         1 NDP501      0.0000 
     50 H           8.9597   43.8944  -14.2487 H         1 NDP501      0.0000 
     51 H           9.2228   45.8117  -12.6788 H         1 NDP501      0.0000 
     52 H           8.8565   46.1564  -15.5860 H         1 NDP501      0.0000 
     53 H           8.6626   48.4475  -15.3029 H         1 NDP501      0.0000 
     54 H          10.7069   48.6968  -13.6447 H         1 NDP501      0.0000 
     55 H          12.1972   46.3617  -15.8243 H         1 NDP501      0.0000 
     56 H          12.5266   50.3499  -20.3633 H         1 NDP501      0.0000 
     57 H          13.2085   48.9071  -19.5392 H         1 NDP501      0.0000 
     58 H           9.6084   52.0675  -17.3663 H         1 NDP501      0.0000 
     59 H           9.6292   40.7477  -17.4032 H         1 NDP501      0.0000 
     60 H           8.6485   39.5048  -16.6074 H         1 NDP501      0.0000 
     61 H           9.5638   38.6354  -18.6576 H         1 NDP501      0.0000 
     62 H           9.9453   37.4468  -16.1862 H         1 NDP501      0.0000 
     63 H          12.1806   37.7068  -16.0778 H         1 NDP501      0.0000 
     64 H          12.3862   37.4759  -19.0272 H         1 NDP501      0.0000 
     65 H          14.3383   38.2254  -19.8495 H         1 NDP501      0.0000 
     66 H          15.4069   38.2319  -21.0721 H         1 NDP501      0.0000 
     67 H          16.9333   38.6925  -21.8988 H         1 NDP501      0.0000 
     68 H          16.5352   40.9510  -17.7405 H         1 NDP501      0.0000 
     69 H          17.2463   39.4199  -17.2019 H         1 NDP501      0.0000 
     70 H          15.5210   40.2216  -15.5538 H         1 NDP501      0.0000 
     71 H          13.3715   39.1219  -15.8931 H         1 NDP501      0.0000 
     72 H           6.7651   46.9548  -14.3257 H         1 NDP501      0.0000 
     73 H          10.5539   35.6790  -17.9935 H         1 NDP501      0.0000 
     74 H          12.0966   35.4813  -16.1972 H         1 NDP501      0.0000 
@<TRIPOS>BOND
     1    2    1 ar   
     2    3    1 ar   
     3    4    1 1    
     4   23    1 1    
     5    5    4 1    
     6    6    5 1    
     7   49    5 1    
     8   50    5 1    
     9    7    6 1    
    10    8    6 1    
    11   51    6 1    
    12   12    7 1    
    13    9    8 1    
    14   10    8 1    
    15   52    8 1    
    16   72    9 1    
    17   11   10 1    
    18   12   10 1    
    19   53   10 1    
    20   45   11 1    
    21   13   12 1    
    22   54   12 1    
    23   14   13 1    
    24   22   13 1    
    25   15   14 2    
    26   55   14 1    
    27   16   15 1    
    28   17   16 ar   
    29   22   16 ar   
    30   18   17 1    
    31   19   17 ar   
    32   56   18 1    
    33   57   18 1    
    34   20   19 ar   
    35   21   20 ar   
    36   58   20 1    
    37   22   21 ar   
    38   24   23 1    
    39   25   24 ar   
    40   26   24 ar   
    41   27   24 1    
    42   28   27 1    
    43   29   28 1    
    44   59   28 1    
    45   60   28 1    
    46   30   29 1    
    47   31   29 1    
    48   61   29 1    
    49   35   30 1    
    50   32   31 1    
    51   33   31 1    
    52   62   31 1    
    53   73   32 1    
    54   34   33 1    
    55   35   33 1    
    56   63   33 1    
    57   74   34 1    
    58   36   35 1    
    59   64   35 1    
    60   37   36 1    
    61   44   36 1    
    62   38   37 2    
    63   65   37 1    
    64   39   38 1    
    65   42   38 1    
    66   40   39 2    
    67   41   39 am   
    68   66   41 1    
    69   67   41 1    
    70   43   42 1    
    71   68   42 1    
    72   69   42 1    
    73   44   43 2    
    74   70   43 1    
    75   71   44 1    
    76   46   45 ar   
    77   47   45 ar   
    78   48   45 ar   
@<TRIPOS>SUBSTRUCTURE
     1 NDP501      1 GROUP   
@<TRIPOS>SET

