#    Name: 2ZW9_1_CAVITY_N1_ALL.mol2
#    Modification time : Tue Mar 11 06:33:14 2014

@<TRIPOS>MOLECULE
2ZW9_1_CAVITY_N1_ALL.mol2
   52     0     7     0     0
SMALL
NO_CHARGES


@<TRIPOS>ATOM
      1 CZ         34.2221  -17.5105  -19.6920 C.ar      5 PHE5        0.0000 
      2 CA         30.7741  -16.2296  -22.6870 C.3       6 GLY6        0.0000 
      3 CA         31.7148  -15.2759  -23.3621 C.3       6 GLY6        0.0000 
      4 OG         32.4578  -16.4330  -23.9612 O.2       1 SER1        0.0000 
      5 N          33.3985  -15.4794  -24.6363 N.2       2 ALA2        0.0000 
      6 CA         34.3392  -14.5257  -25.3114 C.3       6 GLY6        0.0000 
      7 OG         33.2009  -17.5901  -24.5603 O.2       1 SER1        0.0000 
      8 CA         34.1416  -16.6365  -25.2354 C.3       6 GLY6        0.0000 
      9 CA         30.7351  -17.2245  -20.8139 C.3       6 GLY6        0.0000 
     10 CA         31.6757  -16.2709  -21.4890 C.3       6 GLY6        0.0000 
     11 N          32.6164  -15.3172  -22.1640 N.2       2 ALA2        0.0000 
     12 CA         32.4188  -17.4280  -22.0881 C.3       6 GLY6        0.0000 
     13 NZ         33.3595  -16.4743  -22.7632 N.2       4 LYS4        0.0000 
     14 NZ         34.3002  -15.5207  -23.4382 N.2       4 LYS4        0.0000 
     15 N          34.1026  -17.6314  -23.3623 N.2       2 ALA2        0.0000 
     16 CA         35.0432  -16.6778  -24.0374 C.3       6 GLY6        0.0000 
     17 N          31.7538  -14.2810  -25.2352 N.2       2 ALA2        0.0000 
     18 N          32.6944  -13.3274  -25.9103 N.2       2 ALA2        0.0000 
     19 N          33.6351  -12.3737  -26.5854 N.2       2 ALA2        0.0000 
     20 OG         31.5562  -16.3917  -25.1593 O.2       1 SER1        0.0000 
     21 DU         32.4969  -15.4381  -25.8343 H         7 CUB7        0.0000 
     22 N          33.4375  -14.4845  -26.5094 N.2       2 ALA2        0.0000 
     23 N          34.3782  -13.5308  -27.1845 N.2       2 ALA2        0.0000 
     24 N          35.3188  -12.5772  -27.8596 N.2       2 ALA2        0.0000 
     25 CA         33.2399  -16.5952  -26.4335 C.3       6 GLY6        0.0000 
     26 N          30.8521  -14.2397  -26.4333 N.2       2 ALA2        0.0000 
     27 N          31.7928  -13.2861  -27.1083 N.2       2 ALA2        0.0000 
     28 OD1        32.7334  -12.3324  -27.7834 O.3       3 ASP3        0.0000 
     29 N          30.6545  -16.3504  -26.3573 N.2       2 ALA2        0.0000 
     30 OG         31.5952  -15.3968  -27.0324 O.2       1 SER1        0.0000 
     31 OG         32.5359  -14.4432  -27.7075 O.2       1 SER1        0.0000 
     32 OG         33.4765  -13.4895  -28.3825 O.2       1 SER1        0.0000 
     33 OG         31.3976  -17.5075  -26.9564 O.2       1 SER1        0.0000 
     34 OG         32.3383  -16.5539  -27.6315 O.2       1 SER1        0.0000 
     35 OG         30.8546  -17.1036  -17.1436 O.2       1 SER1        0.0000 
     36 CA         31.7953  -16.1500  -17.8187 C.3       6 GLY6        0.0000 
     37 CA         32.7360  -15.1964  -18.4937 C.3       6 GLY6        0.0000 
     38 CZ         32.5384  -17.3071  -18.4178 C.ar      5 PHE5        0.0000 
     39 NZ         33.4790  -16.3534  -19.0929 N.2       4 LYS4        0.0000 
     40 N          29.9920  -16.0674  -20.2148 N.2       2 ALA2        0.0000 
     41 CA         29.9530  -17.0623  -18.3416 C.3       6 GLY6        0.0000 
     42 N          30.8936  -16.1087  -19.0167 N.2       2 ALA2        0.0000 
     43 CA         31.8343  -15.1551  -19.6918 C.3       6 GLY6        0.0000 
     44 CA         30.6961  -18.2194  -18.9408 C.3       6 GLY6        0.0000 
     45 CA         31.6367  -17.2658  -19.6158 C.3       6 GLY6        0.0000 
     46 NZ         32.5774  -16.3122  -20.2909 N.2       4 LYS4        0.0000 
     47 NZ         33.5181  -15.3585  -20.9660 N.2       4 LYS4        0.0000 
     48 CA         33.3205  -17.4692  -20.8900 C.3       6 GLY6        0.0000 
     49 NZ         34.2611  -16.5156  -21.5651 N.2       4 LYS4        0.0000 
     50 N          29.7529  -16.3091  -27.5554 N.2       2 ALA2        0.0000 
     51 O          30.6935  -15.3555  -28.2304 O.2       2 ALA2        0.0000 
     52 OG         30.4960  -17.4662  -28.1545 O.2       1 SER1        0.0000 
@<TRIPOS>BOND
@<TRIPOS>SUBSTRUCTURE
     1 SER1        4 GROUP   
     2 ALA2        5 GROUP   
     3 ASP3       28 GROUP   
     4 LYS4       13 GROUP   
     5 PHE5        1 GROUP   
     6 GLY6        2 GROUP   
     7 CUB7       21 GROUP   
@<TRIPOS>SET

