#    Name: 2zw9_SAM_1_INTS_M
#    Modification time : Tue Mar 25 11:11:44 2014

@<TRIPOS>MOLECULE
2zw9_SAM_1_INTS_M
   89     0    15     0     0
SMALL
NO_CHARGES


@<TRIPOS>ATOM
      1 OD1        31.7120  -10.0620  -27.3735 O.co2     3 ASC3        0.0000 
      2 OD1        32.2100  -11.1700  -26.1430 O.co2    13 ASL3        0.0000 
      3 OD1        31.2140   -8.9540  -28.6040 O.co2     8 ASP3        0.0000 
      4 O          30.7060  -11.6320  -25.9605 O.2       1 ALC1        0.0000 
      5 O          32.2100  -11.1700  -26.1430 O.2      11 ALL1        0.0000 
      6 O          29.2020  -12.0940  -25.7780 O.2       6 ALP1        0.0000 
      7 O          31.7120  -10.0620  -27.3735 O.2       1 ALC1        0.0000 
      8 O          31.2140   -8.9540  -28.6040 O.2       6 ALP1        0.0000 
      9 CA         34.4670  -11.3435  -24.7920 C.3       5 GLC5        0.0000 
     10 CA         33.3120  -12.0210  -26.5700 C.3      15 GLL5        0.0000 
     11 CA         35.6220  -10.6660  -23.0140 C.3      10 GLP5        0.0000 
     12 CA         34.9065  -10.7695  -27.0475 C.3       5 GLC5        0.0000 
     13 CA         36.5010   -9.5180  -27.5250 C.3      10 GLP5        0.0000 
     14 NZ         32.6830  -11.1975  -29.6610 N.4       4 LYC4        0.0000 
     15 NZ         32.2720  -12.1230  -28.7320 N.4      14 LYL4        0.0000 
     16 NZ         33.0940  -10.2720  -30.5900 N.4       9 LYP4        0.0000 
     17 NZ         30.9835  -12.6520  -29.1865 N.4       4 LYC4        0.0000 
     18 NZ         29.0170  -12.9170  -30.7510 N.4       9 LYP4        0.0000 
     19 N          32.6830  -11.1975  -29.6610 N.am      2 SEC2        0.0000 
     20 N          32.2720  -12.1230  -28.7320 N.am     12 SEL2        0.0000 
     21 N          33.0940  -10.2720  -30.5900 N.am      7 SEP2        0.0000 
     22 N          30.9835  -12.6520  -29.1865 N.am      2 SEC2        0.0000 
     23 N          29.6950  -13.1810  -29.6410 N.am      7 SEP2        0.0000 
     24 NZ         33.7105  -11.4300  -29.6350 N.4       4 LYC4        0.0000 
     25 NZ         34.3270  -12.5880  -28.6800 N.4      14 LYL4        0.0000 
     26 N          33.7105  -11.4300  -29.6350 N.am      2 SEC2        0.0000 
     27 N          34.3270  -12.5880  -28.6800 N.am     12 SEL2        0.0000 
     28 CA         31.2490  -18.7235  -26.7300 C.3       5 GLC5        0.0000 
     29 CA         31.0230  -16.8050  -26.8010 C.3      15 GLL5        0.0000 
     30 CA         31.4750  -20.6420  -26.6590 C.3      10 GLP5        0.0000 
     31 CA         31.6850  -16.4805  -28.8820 C.3       5 GLC5        0.0000 
     32 CA         32.3470  -16.1560  -30.9630 C.3      10 GLP5        0.0000 
     33 CA         29.7600  -17.5705  -25.5245 C.3       5 GLC5        0.0000 
     34 CA         28.4970  -18.3360  -24.2480 C.3      10 GLP5        0.0000 
     35 CA         30.0910  -17.1385  -24.2520 C.3       5 GLC5        0.0000 
     36 CA         31.6850  -15.9410  -24.2560 C.3      15 GLL5        0.0000 
     37 CA         33.0255  -13.9485  -21.8660 C.3       5 GLC5        0.0000 
     38 CA         32.7300  -15.5580  -23.2220 C.3      15 GLL5        0.0000 
     39 CA         33.3210  -12.3390  -20.5100 C.3      10 GLP5        0.0000 
     40 CA         34.9860  -17.1315  -24.7170 C.3       5 GLC5        0.0000 
     41 CA         33.7350  -16.6850  -23.0250 C.3      15 GLL5        0.0000 
     42 CA         36.2370  -17.5780  -26.4090 C.3      10 GLP5        0.0000 
     43 CA         35.8790  -17.0930  -22.8295 C.3       5 GLC5        0.0000 
     44 CA         38.0230  -17.5010  -22.6340 C.3      10 GLP5        0.0000 
     45 O          35.6255  -15.2950  -22.2485 O.2       1 ALC1        0.0000 
     46 O          35.0440  -16.2120  -23.2610 O.2      11 ALL1        0.0000 
     47 O          36.2070  -14.3780  -21.2360 O.2       6 ALP1        0.0000 
     48 CA         32.3835  -18.6005  -21.1740 C.3       5 GLC5        0.0000 
     49 CA         33.5710  -17.0930  -21.5750 C.3      15 GLL5        0.0000 
     50 CA         31.1960  -20.1080  -20.7730 C.3      10 GLP5        0.0000 
     51 CA         34.4945  -18.9690  -21.9920 C.3       5 GLC5        0.0000 
     52 CA         35.4180  -20.8450  -22.4090 C.3      10 GLP5        0.0000 
     53 O          35.5015  -16.5420  -20.2315 O.2       1 ALC1        0.0000 
     54 O          34.8050  -17.3500  -20.9550 O.2      11 ALL1        0.0000 
     55 O          36.1980  -15.7340  -19.5080 O.2       6 ALP1        0.0000 
     56 O          35.5060  -15.8640  -21.0955 O.2       1 ALC1        0.0000 
     57 CA         33.1060  -14.1135  -20.7295 C.3       5 GLC5        0.0000 
     58 CA         32.8910  -15.8880  -20.9490 C.3      15 GLL5        0.0000 
     59 CA         31.1670  -14.6975  -21.4500 C.3       5 GLC5        0.0000 
     60 CA         29.4430  -13.5070  -21.9510 C.3      10 GLP5        0.0000 
     61 CA         29.4810  -15.8305  -16.2750 C.3       5 GLC5        0.0000 
     62 CA         31.6220  -16.4550  -16.2670 C.3      15 GLL5        0.0000 
     63 CA         27.3400  -15.2060  -16.2830 C.3      10 GLP5        0.0000 
     64 O          31.2605  -17.3700  -14.0010 O.2       1 ALC1        0.0000 
     65 O          30.6590  -16.9050  -15.4730 O.2      11 ALL1        0.0000 
     66 O          31.8620  -17.8350  -12.5290 O.2       6 ALP1        0.0000 
     67 N          32.3415  -15.3980  -14.3495 N.am      2 SEC2        0.0000 
     68 N          32.7650  -15.9040  -15.7280 N.am     12 SEL2        0.0000 
     69 N          31.9180  -14.8920  -12.9710 N.am      7 SEP2        0.0000 
     70 CA         35.2710  -14.4530  -17.2000 C.3       5 GLC5        0.0000 
     71 CA         33.7630  -15.4320  -16.5600 C.3      15 GLL5        0.0000 
     72 CA         36.7790  -13.4740  -17.8400 C.3      10 GLP5        0.0000 
     73 CA         35.7360  -16.1325  -16.4355 C.3       5 GLC5        0.0000 
     74 CA         37.7090  -16.8330  -16.3110 C.3      10 GLP5        0.0000 
     75 CA         33.8515  -15.7300  -14.4225 C.3       5 GLC5        0.0000 
     76 CA         33.9400  -16.0280  -12.2850 C.3      10 GLP5        0.0000 
     77 CA         32.3855  -14.1480  -16.5085 C.3       5 GLC5        0.0000 
     78 CA         31.0080  -12.8640  -16.4570 C.3      10 GLP5        0.0000 
     79 CA         32.9065  -14.1965  -19.4880 C.3       5 GLC5        0.0000 
     80 CA         32.4920  -16.0540  -18.4660 C.3      15 GLL5        0.0000 
     81 CA         35.1072  -13.2583  -25.4355 C.3       5 GLC5        0.0000 
     82 CA         33.2490  -13.3780  -25.8820 C.3      15 GLL5        0.0000 
     83 CA         36.9340  -13.8170  -24.6450 C.3      10 GLP5        0.0000 
     84 CA         33.4712  -17.2138  -26.9138 C.3       5 GLC5        0.0000 
     85 CA         32.3940  -16.0040  -25.9180 C.3      15 GLL5        0.0000 
     86 CA         35.2340  -18.0230  -27.4680 C.3      10 GLP5        0.0000 
     87 CA         30.8253  -14.6282  -22.8450 C.3       5 GLC5        0.0000 
     88 CA         31.5149  -14.5690  -17.0844 C.3       5 GLC5        0.0000 
     89 CA         31.4810  -16.5330  -17.6480 C.3      15 GLL5        0.0000 
@<TRIPOS>BOND
@<TRIPOS>SUBSTRUCTURE
     1 ALC1        4 GROUP        1 X    ALC  0     ROOT ALC X 1
     2 SEC2       19 GROUP        1 X    SEC  0     **** SEC X 2
     3 ASC3        1 GROUP        1 X    ASC  0     **** ASC X 3
     4 LYC4       14 GROUP        1 X    LYC  0     **** LYC X 4
     5 GLC5        9 GROUP        1 X    GLC  0     **** GLC X 6
     6 ALP1        6 GROUP        1 Y    ALP  0     ROOT ALP Y 8
     7 SEP2       21 GROUP        1 Y    SEP  0     **** SEP Y 9
     8 ASP3        3 GROUP        1 Y    ASP  0     **** ASP Y 10
     9 LYP4       16 GROUP        1 Y    LYP  0     **** LYP Y 11
    10 GLP5       11 GROUP        1 Y    GLP  0     **** GLP Y 13
    11 ALL1        5 GROUP        1 Z    ALL  0     ROOT ALL Z 15
    12 SEL2       20 GROUP        1 Z    SEL  0     **** SEL Z 16
    13 ASL3        2 GROUP        1 Z    ASL  0     **** ASL Z 17
    14 LYL4       15 GROUP        1 Z    LYL  0     **** LYL Z 18
    15 GLL5       10 GROUP        1 Z    GLL  0     **** GLL Z 20
@<TRIPOS>SET

