#    Name: 2zw9_SAM_1_ligand
#    Modification time : Tue Mar 25 11:11:45 2014

@<TRIPOS>MOLECULE
2zw9_SAM_1_ligand
   50    52     1     0     0
SMALL
NO_CHARGES


@<TRIPOS>ATOM
      1 N          32.2100  -11.1700  -26.1430 N.4       1 SAM801      0.0000 
      2 CA         33.3120  -12.0210  -26.5700 C.3       1 SAM801      0.0000 
      3 C          33.3040  -12.2520  -28.0780 C.2       1 SAM801      0.0000 
      4 O          32.2720  -12.1230  -28.7320 O.co2     1 SAM801      0.0000 
      5 OXT        34.3270  -12.5880  -28.6800 O.co2     1 SAM801      0.0000 
      6 CB         33.2490  -13.3780  -25.8820 C.3       1 SAM801      0.0000 
      7 CG         32.1340  -14.2800  -26.3950 C.3       1 SAM801      0.0000 
      8 SD         32.3940  -16.0040  -25.9180 S.3       1 SAM801      0.0000 
      9 CE         31.0230  -16.8050  -26.8010 C.3       1 SAM801      0.0000 
     10 C5'        31.6850  -15.9410  -24.2560 C.3       1 SAM801      0.0000 
     11 C4'        32.7300  -15.5580  -23.2220 C.3       1 SAM801      0.0000 
     12 O4'        32.1100  -15.3040  -21.9750 O.3       1 SAM801      0.0000 
     13 C3'        33.7350  -16.6850  -23.0250 C.3       1 SAM801      0.0000 
     14 O3'        35.0440  -16.2120  -23.2610 O.3       1 SAM801      0.0000 
     15 C2'        33.5710  -17.0930  -21.5750 C.3       1 SAM801      0.0000 
     16 O2'        34.8050  -17.3500  -20.9550 O.3       1 SAM801      0.0000 
     17 C1'        32.8910  -15.8880  -20.9490 C.3       1 SAM801      0.0000 
     18 N9         32.0960  -16.2550  -19.7620 N.pl3     1 SAM801      0.0000 
     19 C8         30.8610  -16.8480  -19.7350 C.2       1 SAM801      0.0000 
     20 N7         30.4950  -17.0110  -18.4430 N.2       1 SAM801      0.0000 
     21 C5         31.4810  -16.5330  -17.6480 C.ar      1 SAM801      0.0000 
     22 C6         31.6220  -16.4550  -16.2670 C.ar      1 SAM801      0.0000 
     23 N6         30.6590  -16.9050  -15.4730 N.pl3     1 SAM801      0.0000 
     24 N1         32.7650  -15.9040  -15.7280 N.ar      1 SAM801      0.0000 
     25 C2         33.7630  -15.4320  -16.5600 C.ar      1 SAM801      0.0000 
     26 N3         33.6130  -15.5160  -17.9300 N.ar      1 SAM801      0.0000 
     27 C4         32.4920  -16.0540  -18.4660 C.ar      1 SAM801      0.0000 
     28 H          34.2673  -11.5684  -26.3112 H         1 SAM801      0.0000 
     29 H          33.1152  -13.2244  -24.7976 H         1 SAM801      0.0000 
     30 H          34.2159  -13.8926  -26.0150 H         1 SAM801      0.0000 
     31 H          32.0885  -14.3404  -27.4621 H         1 SAM801      0.0000 
     32 H          31.1774  -14.0642  -25.9675 H         1 SAM801      0.0000 
     33 H          31.3006  -16.9306  -24.1330 H         1 SAM801      0.0000 
     34 H          30.9046  -15.2192  -24.3668 H         1 SAM801      0.0000 
     35 H          33.2654  -14.6918  -23.5762 H         1 SAM801      0.0000 
     36 H          33.4527  -17.4970  -23.6421 H         1 SAM801      0.0000 
     37 H          32.8848  -17.9092  -21.5358 H         1 SAM801      0.0000 
     38 H          33.6908  -15.1992  -20.6551 H         1 SAM801      0.0000 
     39 H          30.3501  -17.1011  -20.5081 H         1 SAM801      0.0000 
     40 H          30.9498  -17.2506  -14.5808 H         1 SAM801      0.0000 
     41 H          29.7294  -16.8578  -15.8385 H         1 SAM801      0.0000 
     42 H          34.6168  -15.0185  -16.1579 H         1 SAM801      0.0000 
     43 H          32.4473  -10.6333  -25.3333 H         1 SAM801      0.0000 
     44 H          31.9433  -10.5219  -26.8563 H         1 SAM801      0.0000 
     45 H          31.3962  -11.7037  -25.9128 H         1 SAM801      0.0000 
     46 H          31.1755  -16.8191  -27.7892 H         1 SAM801      0.0000 
     47 H          30.8977  -17.7535  -26.5102 H         1 SAM801      0.0000 
     48 H          30.1550  -16.3336  -26.6451 H         1 SAM801      0.0000 
     49 H          35.2538  -15.6290  -22.4761 H         1 SAM801      0.0000 
     50 H          35.0514  -16.4923  -20.5039 H         1 SAM801      0.0000 
@<TRIPOS>BOND
     1    2    1 1    
     2   43    1 1    
     3   44    1 1    
     4   45    1 1    
     5    3    2 1    
     6    6    2 1    
     7   28    2 1    
     8    4    3 ar   
     9    5    3 ar   
    10    7    6 1    
    11   29    6 1    
    12   30    6 1    
    13    8    7 1    
    14   31    7 1    
    15   32    7 1    
    16    9    8 1    
    17   10    8 1    
    18   46    9 1    
    19   47    9 1    
    20   48    9 1    
    21   11   10 1    
    22   33   10 1    
    23   34   10 1    
    24   12   11 1    
    25   13   11 1    
    26   35   11 1    
    27   17   12 1    
    28   14   13 1    
    29   15   13 1    
    30   36   13 1    
    31   49   14 1    
    32   16   15 1    
    33   17   15 1    
    34   37   15 1    
    35   50   16 1    
    36   18   17 1    
    37   38   17 1    
    38   19   18 1    
    39   27   18 1    
    40   20   19 2    
    41   39   19 1    
    42   21   20 1    
    43   22   21 ar   
    44   27   21 ar   
    45   23   22 1    
    46   24   22 ar   
    47   40   23 1    
    48   41   23 1    
    49   25   24 ar   
    50   26   25 ar   
    51   42   25 1    
    52   27   26 ar   
@<TRIPOS>SUBSTRUCTURE
     1 SAM801      1 GROUP   
@<TRIPOS>SET

