#    Name: 3p3e_3P3_1_INTS_M
#    Modification time : Tue Mar 25 05:52:21 2014

@<TRIPOS>MOLECULE
3p3e_3P3_1_INTS_M
   75     0    12     0     0
SMALL
NO_CHARGES


@<TRIPOS>ATOM
      1 Zn        -21.3050    9.8670   -7.9210 Zn        3 ZIC7        0.0000 
      2 Zn        -22.1860   10.4250   -8.0330 Zn       11 ZIL7        0.0000 
      3 Zn        -20.4240    9.3090   -7.8090 Zn        7 ZIP7        0.0000 
      4 N         -22.2650   11.6805   -7.5375 N.am      2 SEC2        0.0000 
      5 N         -22.1860   10.4250   -8.0330 N.am     10 SEL2        0.0000 
      6 N         -22.3440   12.9360   -7.0420 N.am      6 SEP2        0.0000 
      7 O         -24.4760    7.8720   -7.3330 O.2       1 ALC1        0.0000 
      8 O         -23.1070    8.4040   -7.5480 O.2       9 ALL1        0.0000 
      9 O         -25.8450    7.3400   -7.1180 O.2       5 ALP1        0.0000 
     10 Zn        -21.1615    8.6335   -7.5735 Zn        3 ZIC7        0.0000 
     11 Zn        -21.8990    7.9580   -7.3380 Zn       11 ZIL7        0.0000 
     12 N         -22.2025    6.7745   -8.0510 N.am      2 SEC2        0.0000 
     13 N         -21.8990    7.9580   -7.3380 N.am     10 SEL2        0.0000 
     14 N         -22.5060    5.5910   -8.7640 N.am      6 SEP2        0.0000 
     15 O         -22.1385    7.1315   -6.3835 O.2       1 ALC1        0.0000 
     16 O         -21.8990    7.9580   -7.3380 O.2       9 ALL1        0.0000 
     17 O         -22.3780    6.3050   -5.4290 O.2       5 ALP1        0.0000 
     18 O         -23.5605   12.2315   -7.2210 O.2       1 ALC1        0.0000 
     19 O         -24.7770   11.5270   -7.4000 O.2       9 ALL1        0.0000 
     20 O         -22.3440   12.9360   -7.0420 O.2       5 ALP1        0.0000 
     21 CA        -24.2520   16.5845   -4.8875 C.3       4 GLC5        0.0000 
     22 CA        -25.5720   15.2640   -5.3790 C.3      12 GLL5        0.0000 
     23 CA        -22.9320   17.9050   -4.3960 C.3       8 GLP5        0.0000 
     24 CA        -28.9935   14.3710   -2.7265 C.3       4 GLC5        0.0000 
     25 CA        -27.6290   14.2900   -4.3630 C.3      12 GLL5        0.0000 
     26 CA        -30.3580   14.4520   -1.0900 C.3       8 GLP5        0.0000 
     27 CA        -26.3895   22.0010   -3.7310 C.3       4 GLC5        0.0000 
     28 CA        -27.1800   22.2300   -1.7010 C.3      12 GLL5        0.0000 
     29 CA        -25.5990   21.7720   -5.7610 C.3       8 GLP5        0.0000 
     30 CA        -26.5705   20.8970    0.0830 C.3       4 GLC5        0.0000 
     31 CA        -28.5640   21.0410   -0.1450 C.3      12 GLL5        0.0000 
     32 CA        -24.5770   20.7530    0.3110 C.3       8 GLP5        0.0000 
     33 CA        -22.8530   12.8855  -11.6365 C.3       4 GLC5        0.0000 
     34 CA        -23.7890   11.7920  -10.2430 C.3      12 GLL5        0.0000 
     35 CA        -21.9170   13.9790  -13.0300 C.3       8 GLP5        0.0000 
     36 CA        -21.6260   11.5650  -10.0755 C.3       4 GLC5        0.0000 
     37 CA        -19.4630   11.3380   -9.9080 C.3       8 GLP5        0.0000 
     38 CA        -26.3995   10.2335   -9.7568 C.3       4 GLC5        0.0000 
     39 CA        -24.7440   10.6810   -9.7650 C.3      12 GLL5        0.0000 
     40 CA        -28.1690    9.9240  -10.4940 C.3       8 GLP5        0.0000 
     41 CA        -25.3657   12.6972   -4.1930 C.3       4 GLC5        0.0000 
     42 CA        -26.3030   12.9500   -5.9900 C.3      12 GLL5        0.0000 
     43 CA        -24.8920   11.9080   -2.3230 C.3       8 GLP5        0.0000 
     44 CA        -23.4595   14.5352   -5.5672 C.3       4 GLC5        0.0000 
     45 CA        -25.3760   14.0230   -6.1360 C.3      12 GLL5        0.0000 
     46 CA        -21.4450   14.4270   -5.3770 C.3       8 GLP5        0.0000 
     47 CA        -26.1350   15.7048   -7.5053 C.3       4 GLC5        0.0000 
     48 CA        -26.7960   16.7660   -9.2530 C.3       8 GLP5        0.0000 
     49 CA        -26.0485   14.9420   -2.5130 C.3       4 GLC5        0.0000 
     50 CA        -26.6850   15.3700   -4.5040 C.3      12 GLL5        0.0000 
     51 CA        -25.3040   13.9150   -0.8870 C.3       8 GLP5        0.0000 
     52 CA        -28.3580   16.3005   -5.2528 C.3       4 GLC5        0.0000 
     53 CA        -29.5590   17.7710   -6.0720 C.3       8 GLP5        0.0000 
     54 CA        -26.2125   12.7910   -3.5307 C.3       4 GLC5        0.0000 
     55 CA        -29.5655   13.2800   -4.7353 C.3       4 GLC5        0.0000 
     56 CA        -27.4370   13.0580   -5.1140 C.3      12 GLL5        0.0000 
     57 CA        -31.5980   12.8860   -4.7320 C.3       8 GLP5        0.0000 
     58 CA        -27.7225   17.9342   -4.8315 C.3       4 GLC5        0.0000 
     59 CA        -26.9010   16.5680   -3.7740 C.3      12 GLL5        0.0000 
     60 CA        -28.4500   18.7920   -6.1900 C.3       8 GLP5        0.0000 
     61 CA        -26.4405   17.1422   -1.5010 C.3       4 GLC5        0.0000 
     62 CA        -27.0890   17.5850   -3.1720 C.3      12 GLL5        0.0000 
     63 CA        -25.8860   17.2080    0.4710 C.3       8 GLP5        0.0000 
     64 CA        -24.9635   17.4907   -3.9345 C.3       4 GLC5        0.0000 
     65 CA        -29.0085   18.9672   -3.1028 C.3       4 GLC5        0.0000 
     66 CA        -27.3080   18.7610   -2.5050 C.3      12 GLL5        0.0000 
     67 CA        -30.6120   18.6570   -3.9880 C.3       8 GLP5        0.0000 
     68 CA        -26.6455   18.2427   -0.8732 C.3       4 GLC5        0.0000 
     69 CA        -25.9910   20.0152   -0.9532 C.3       4 GLC5        0.0000 
     70 CA        -25.8530   23.8203   -2.0848 C.3       4 GLC5        0.0000 
     71 CA        -24.3950   24.8160   -2.8110 C.3       8 GLP5        0.0000 
     72 CA        -26.0138   21.6385   -0.4693 C.3       4 GLC5        0.0000 
     73 CA        -27.4420   23.4190   -1.0160 C.3      12 GLL5        0.0000 
     74 CA        -30.4032   20.4900   -0.1725 C.3       4 GLC5        0.0000 
     75 CA        -32.1110   19.3470   -0.5420 C.3       8 GLP5        0.0000 
@<TRIPOS>BOND
@<TRIPOS>SUBSTRUCTURE
     1 ALC1        7 GROUP        1 X    ALC  0     ROOT ALC X 1
     2 SEC2        4 GROUP        1 X    SEC  0     **** SEC X 2
     3 ZIC7        1 GROUP        1 X    ZIC  0     **** ZIC X 5
     4 GLC5       21 GROUP        1 X    GLC  0     **** GLC X 6
     5 ALP1        9 GROUP        1 Y    ALP  0     ROOT ALP Y 8
     6 SEP2        6 GROUP        1 Y    SEP  0     **** SEP Y 9
     7 ZIP7        3 GROUP        1 Y    ZIP  0     **** ZIP Y 12
     8 GLP5       23 GROUP        1 Y    GLP  0     **** GLP Y 13
     9 ALL1        8 GROUP        1 Z    ALL  0     ROOT ALL Z 15
    10 SEL2        5 GROUP        1 Z    SEL  0     **** SEL Z 16
    11 ZIL7        2 GROUP        1 Z    ZIL  0     **** ZIL Z 19
    12 GLL5       22 GROUP        1 Z    GLL  0     **** GLL Z 20
@<TRIPOS>SET

