#    Name: 3p3e_3P3_1_ligand
#    Modification time : Tue Mar 25 05:52:21 2014

@<TRIPOS>MOLECULE
3p3e_3P3_1_ligand
   45    46     1     0     0
SMALL
NO_CHARGES


@<TRIPOS>ATOM
      1 O01       -22.1860   10.4250   -8.0330 O.2       1 3P3501      0.0000 
      2 C02       -23.2120    9.7710   -7.9090 C.2       1 3P3501      0.0000 
      3 N03       -23.1070    8.4040   -7.5480 N.am      1 3P3501      0.0000 
      4 O04       -21.8990    7.9580   -7.3380 O.3       1 3P3501      0.0000 
      5 C05       -24.5160   10.4050   -8.2740 C.3       1 3P3501      0.0000 
      6 N06       -24.7770   11.5270   -7.4000 N.am      1 3P3501      0.0000 
      7 C07       -26.0880   11.7060   -6.8110 C.2       1 3P3501      0.0000 
      8 O08       -27.0140   10.9650   -7.1090 O.2       1 3P3501      0.0000 
      9 C09       -26.3030   12.9500   -5.9900 C.ar      1 3P3501      0.0000 
     10 C10       -25.3760   14.0230   -6.1360 C.ar      1 3P3501      0.0000 
     11 C11       -25.5720   15.2640   -5.3790 C.ar      1 3P3501      0.0000 
     12 C12       -26.6850   15.3700   -4.5040 C.ar      1 3P3501      0.0000 
     13 C13       -27.6290   14.2900   -4.3630 C.ar      1 3P3501      0.0000 
     14 C14       -27.4370   13.0580   -5.1140 C.ar      1 3P3501      0.0000 
     15 C15       -26.9010   16.5680   -3.7740 C.1       1 3P3501      0.0000 
     16 C16       -27.0890   17.5850   -3.1720 C.1       1 3P3501      0.0000 
     17 C17       -27.3080   18.7610   -2.5050 C.1       1 3P3501      0.0000 
     18 C18       -27.5020   19.7940   -1.9300 C.1       1 3P3501      0.0000 
     19 C19       -27.7380   21.0280   -1.2650 C.ar      1 3P3501      0.0000 
     20 C20       -27.1800   22.2300   -1.7010 C.ar      1 3P3501      0.0000 
     21 C21       -27.4420   23.4190   -1.0160 C.ar      1 3P3501      0.0000 
     22 C22       -28.2660   23.4190    0.1060 C.ar      1 3P3501      0.0000 
     23 C23       -28.8270   22.2250    0.5390 C.ar      1 3P3501      0.0000 
     24 C24       -28.5640   21.0410   -0.1450 C.ar      1 3P3501      0.0000 
     25 C25       -24.7440   10.6810   -9.7650 C.3       1 3P3501      0.0000 
     26 C26       -23.7890   11.7920  -10.2430 C.3       1 3P3501      0.0000 
     27 O27       -24.5050    9.4800  -10.5000 O.3       1 3P3501      0.0000 
     28 H         -23.9531    7.8528   -7.4722 H         1 3P3501      0.0000 
     29 H         -25.3127    9.6079   -7.9980 H         1 3P3501      0.0000 
     30 H         -24.0407   12.1911   -7.1982 H         1 3P3501      0.0000 
     31 H         -24.5820   13.9471   -6.7532 H         1 3P3501      0.0000 
     32 H         -24.9162   16.0160   -5.4928 H         1 3P3501      0.0000 
     33 H         -28.4219   14.3814   -3.7477 H         1 3P3501      0.0000 
     34 H         -28.0883   12.3039   -5.0161 H         1 3P3501      0.0000 
     35 H         -26.5724   22.2418   -2.5311 H         1 3P3501      0.0000 
     36 H         -27.0219   24.2999   -1.3448 H         1 3P3501      0.0000 
     37 H         -28.4556   24.2922    0.6062 H         1 3P3501      0.0000 
     38 H         -29.4385   22.2132    1.3667 H         1 3P3501      0.0000 
     39 H         -28.9895   20.1571    0.1849 H         1 3P3501      0.0000 
     40 H         -25.7529   11.0282   -9.8908 H         1 3P3501      0.0000 
     41 H         -22.8303   11.5390  -10.1131 H         1 3P3501      0.0000 
     42 H         -23.9100   11.9929  -11.2151 H         1 3P3501      0.0000 
     43 H         -23.9362   12.6474   -9.7464 H         1 3P3501      0.0000 
     44 H         -21.8760    7.7211   -6.3667 H         1 3P3501      0.0000 
     45 H         -23.5343    9.2822  -10.3638 H         1 3P3501      0.0000 
@<TRIPOS>BOND
     1    2    1 2    
     2    3    2 am   
     3    5    2 1    
     4    4    3 1    
     5   28    3 1    
     6   44    4 1    
     7    6    5 1    
     8   25    5 1    
     9   29    5 1    
    10    7    6 am   
    11   30    6 1    
    12    8    7 2    
    13    9    7 1    
    14   10    9 ar   
    15   14    9 ar   
    16   11   10 ar   
    17   31   10 1    
    18   12   11 ar   
    19   32   11 1    
    20   13   12 ar   
    21   15   12 1    
    22   14   13 ar   
    23   33   13 1    
    24   34   14 1    
    25   16   15 3    
    26   17   16 1    
    27   18   17 3    
    28   19   18 1    
    29   20   19 ar   
    30   24   19 ar   
    31   21   20 ar   
    32   35   20 1    
    33   22   21 ar   
    34   36   21 1    
    35   23   22 ar   
    36   37   22 1    
    37   24   23 ar   
    38   38   23 1    
    39   39   24 1    
    40   26   25 1    
    41   27   25 1    
    42   40   25 1    
    43   41   26 1    
    44   42   26 1    
    45   43   26 1    
    46   45   27 1    
@<TRIPOS>SUBSTRUCTURE
     1 3P3501      1 GROUP   
@<TRIPOS>SET

