#    Name: 3qcl_NXV_1_INTS_M
#    Modification time : Mon Apr  7 19:21:16 2014

@<TRIPOS>MOLECULE
3qcl_NXV_1_INTS_M
   85     0     9     0     0
SMALL
NO_CHARGES


@<TRIPOS>ATOM
      1 CA         17.3215   30.4710   62.5085 C.3       3 GLC5        0.0000 
      2 CA         19.0340   29.5040   62.9870 C.3       9 GLL5        0.0000 
      3 CA         15.6090   31.4380   62.0300 C.3       6 GLP5        0.0000 
      4 CA         17.4290   27.3375   65.9250 C.3       3 GLC5        0.0000 
      5 CA         17.1900   28.6850   67.4770 C.3       9 GLL5        0.0000 
      6 CA         17.6680   25.9900   64.3730 C.3       6 GLP5        0.0000 
      7 CA         19.0720   30.9595   59.1045 C.3       3 GLC5        0.0000 
      8 CA         19.4700   29.4100   60.2920 C.3       9 GLL5        0.0000 
      9 CA         18.6740   32.5090   57.9170 C.3       6 GLP5        0.0000 
     10 CA         20.7305   29.3030   58.8780 C.3       3 GLC5        0.0000 
     11 CA         21.9910   29.1960   57.4640 C.3       6 GLP5        0.0000 
     12 CA         16.5850   27.5740   60.8650 C.3       3 GLC5        0.0000 
     13 CA         17.8080   28.8400   60.3770 C.3       9 GLL5        0.0000 
     14 CA         15.3620   26.3080   61.3530 C.3       6 GLP5        0.0000 
     15 CA         16.0430   29.5500   54.8045 C.3       3 GLC5        0.0000 
     16 CA         16.4710   28.8280   56.8860 C.3       9 GLL5        0.0000 
     17 CA         15.6150   30.2720   52.7230 C.3       6 GLP5        0.0000 
     18 CA         18.6440   25.4010   55.0600 C.3       3 GLC5        0.0000 
     19 CA         17.6470   25.0090   56.9560 C.3       9 GLL5        0.0000 
     20 CA         19.6410   25.7930   53.1640 C.3       6 GLP5        0.0000 
     21 CA         15.8820   25.4060   57.4670 C.3       3 GLC5        0.0000 
     22 CA         14.1170   25.8030   57.9780 C.3       6 GLP5        0.0000 
     23 CA         18.6340   24.5940   58.6150 C.3       3 GLC5        0.0000 
     24 CA         19.6210   24.1790   60.2740 C.3       6 GLP5        0.0000 
     25 CA         18.4065   23.4815   56.4325 C.3       3 GLC5        0.0000 
     26 CA         19.1660   21.9540   55.9090 C.3       6 GLP5        0.0000 
     27 CA         17.0270   23.6395   58.4195 C.3       3 GLC5        0.0000 
     28 CA         16.4070   22.2700   59.8830 C.3       6 GLP5        0.0000 
     29 CA         17.6610   27.7730   54.6980 C.3       3 GLC5        0.0000 
     30 CA         16.1670   26.9140   54.9830 C.3       9 GLL5        0.0000 
     31 CA         19.1550   28.6320   54.4130 C.3       6 GLP5        0.0000 
     32 CA         15.4175   28.6670   54.4405 C.3       3 GLC5        0.0000 
     33 CA         14.6680   30.4200   53.8980 C.3       6 GLP5        0.0000 
     34 CA         15.1420   26.3585   56.4805 C.3       3 GLC5        0.0000 
     35 CA         15.1595   26.5170   53.8170 C.3       3 GLC5        0.0000 
     36 CA         14.1520   26.1200   52.6510 C.3       6 GLP5        0.0000 
     37 NZ         21.7275   32.9920   59.1425 N.4       2 LYC4        0.0000 
     38 NZ         21.1390   32.0830   60.2530 N.4       8 LYL4        0.0000 
     39 NZ         22.1690   32.9220   57.1550 N.4       5 LYP4        0.0000 
     40 N          21.6655   31.8685   58.9040 N.am      1 SEC2        0.0000 
     41 N          21.1390   32.0830   60.2530 N.am      7 SEL2        0.0000 
     42 N          22.1920   31.6540   57.5550 N.am      4 SEP2        0.0000 
     43 N          21.7275   32.9920   59.1425 N.am      1 SEC2        0.0000 
     44 N          22.3160   33.9010   58.0320 N.am      4 SEP2        0.0000 
     45 N          22.5620   31.2745   59.1370 N.am      1 SEC2        0.0000 
     46 N          22.9320   30.8950   60.7190 N.am      7 SEL2        0.0000 
     47 N          23.6115   29.6825   60.8515 N.am      1 SEC2        0.0000 
     48 N          24.2910   28.4700   60.9840 N.am      4 SEP2        0.0000 
     49 CA         20.0950   28.0460   68.1775 C.3       3 GLC5        0.0000 
     50 CA         18.1550   28.3240   68.5620 C.3       9 GLL5        0.0000 
     51 CA         22.0350   27.7680   67.7930 C.3       6 GLP5        0.0000 
     52 CA         21.0478   29.8278   65.9652 C.3       3 GLC5        0.0000 
     53 CA         20.4670   30.7760   64.4730 C.3       9 GLL5        0.0000 
     54 CA         22.1940   29.2870   67.5590 C.3       6 GLP5        0.0000 
     55 CA         18.4265   27.8612   64.0008 C.3       3 GLC5        0.0000 
     56 CA         19.3360   29.9610   64.2700 C.3       9 GLL5        0.0000 
     57 CA         22.0113   29.1752   62.6580 C.3       3 GLC5        0.0000 
     58 CA         21.2710   31.2380   63.4020 C.3       9 GLL5        0.0000 
     59 CA         22.9070   27.3270   62.5600 C.3       6 GLP5        0.0000 
     60 CA         20.1871   32.2606   62.5920 C.3       3 GLC5        0.0000 
     61 CA         20.9600   30.8090   62.1100 C.3       9 GLL5        0.0000 
     62 CA         19.9000   34.0260   62.8530 C.3       6 GLP5        0.0000 
     63 CA         18.0847   30.9097   61.0445 C.3       3 GLC5        0.0000 
     64 CA         19.8330   29.9670   61.9060 C.3       9 GLL5        0.0000 
     65 CA         16.5180   32.1310   60.9900 C.3       6 GLP5        0.0000 
     66 CA         21.1702   28.5312   62.5033 C.3       3 GLC5        0.0000 
     67 CA         19.2961   31.7206   65.0811 C.3       3 GLC5        0.0000 
     68 CA         19.3600   33.4990   65.2830 C.3       6 GLP5        0.0000 
     69 CA         20.2190   29.3102   66.7040 C.3       3 GLC5        0.0000 
     70 CA         18.5630   29.5160   65.3870 C.3       9 GLL5        0.0000 
     71 CA         17.9560   27.6617   65.1110 C.3       3 GLC5        0.0000 
     72 CA         17.7013   26.7942   69.0537 C.3       3 GLC5        0.0000 
     73 CA         17.7300   25.0840   70.0880 C.3       6 GLP5        0.0000 
     74 CA         17.9010   28.8320   55.9688 C.3       3 GLC5        0.0000 
     75 CA         16.8230   29.2360   58.1630 C.3       9 GLL5        0.0000 
     76 CA         16.8720   30.5246   59.9626 C.3       3 GLC5        0.0000 
     77 CA         15.1124   28.4881   58.0951 C.3       3 GLC5        0.0000 
     78 CA         17.4500   28.3610   59.0380 C.3       9 GLL5        0.0000 
     79 CA         13.4210   28.1630   58.4470 C.3       6 GLP5        0.0000 
     80 CA         18.0940   27.8528   55.6975 C.3       3 GLC5        0.0000 
     81 CA         16.7070   27.5170   56.5260 C.3       9 GLL5        0.0000 
     82 CA         18.5838   25.5065   59.1745 C.3       3 GLC5        0.0000 
     83 CA         17.3590   26.6300   57.4380 C.3       9 GLL5        0.0000 
     84 CA         15.7503   26.4294   57.9125 C.3       3 GLC5        0.0000 
     85 CA         17.7340   27.0380   58.7120 C.3       9 GLL5        0.0000 
@<TRIPOS>BOND
@<TRIPOS>SUBSTRUCTURE
     1 SEC2       40 GROUP        1 X    SEC  0     ROOT SEC X 2
     2 LYC4       37 GROUP        1 X    LYC  0     **** LYC X 4
     3 GLC5        1 GROUP        1 X    GLC  0     **** GLC X 6
     4 SEP2       42 GROUP        1 Y    SEP  0     ROOT SEP Y 9
     5 LYP4       39 GROUP        1 Y    LYP  0     **** LYP Y 11
     6 GLP5        3 GROUP        1 Y    GLP  0     **** GLP Y 13
     7 SEL2       41 GROUP        1 Z    SEL  0     ROOT SEL Z 16
     8 LYL4       38 GROUP        1 Z    LYL  0     **** LYL Z 18
     9 GLL5        2 GROUP        1 Z    GLL  0     **** GLL Z 20
@<TRIPOS>SET

