#    Name: 3qcl_NXV_1_ligand
#    Modification time : Mon Apr  7 19:21:16 2014

@<TRIPOS>MOLECULE
3qcl_NXV_1_ligand
   37    38     1     0     0
SMALL
NO_CHARGES


@<TRIPOS>ATOM
      1 C1         19.3360   29.9610   64.2700 C.ar      1 NXV2001     0.0000 
      2 C2         20.4670   30.7760   64.4730 C.ar      1 NXV2001     0.0000 
      3 C3         21.2710   31.2380   63.4020 C.ar      1 NXV2001     0.0000 
      4 C4         20.9600   30.8090   62.1100 C.ar      1 NXV2001     0.0000 
      5 C5         19.8330   29.9670   61.9060 C.ar      1 NXV2001     0.0000 
      6 C6         19.0340   29.5040   62.9870 C.ar      1 NXV2001     0.0000 
      7 C7         18.5630   29.5160   65.3870 C.1       1 NXV2001     0.0000 
      8 C8         17.9250   29.1510   66.3110 C.1       1 NXV2001     0.0000 
      9 C9         17.1900   28.6850   67.4770 C.3       1 NXV2001     0.0000 
     10 S10        19.4700   29.4100   60.2920 S.3       1 NXV2001     0.0000 
     11 C11        17.8080   28.8400   60.3770 C.3       1 NXV2001     0.0000 
     12 C12        17.4500   28.3610   59.0380 C.ar      1 NXV2001     0.0000 
     13 C13        16.8230   29.2360   58.1630 C.ar      1 NXV2001     0.0000 
     14 C14        16.4710   28.8280   56.8860 C.ar      1 NXV2001     0.0000 
     15 C15        16.7070   27.5170   56.5260 C.ar      1 NXV2001     0.0000 
     16 C16        17.3590   26.6300   57.4380 C.ar      1 NXV2001     0.0000 
     17 C17        17.7340   27.0380   58.7120 C.ar      1 NXV2001     0.0000 
     18 CL18       17.6470   25.0090   56.9560 Cl        1 NXV2001     0.0000 
     19 CL19       16.1670   26.9140   54.9830 Cl        1 NXV2001     0.0000 
     20 C20        21.7170   31.2900   60.9710 C.2       1 NXV2001     0.0000 
     21 O21        21.1390   32.0830   60.2530 O.co2     1 NXV2001     0.0000 
     22 O22        22.9320   30.8950   60.7190 O.co2     1 NXV2001     0.0000 
     23 C23        18.1550   28.3240   68.5620 C.3       1 NXV2001     0.0000 
     24 O24        18.2660   29.4230   69.4930 O.3       1 NXV2001     0.0000 
     25 H          20.7232   31.0496   65.4408 H         1 NXV2001     0.0000 
     26 H          22.0467   31.8611   63.5780 H         1 NXV2001     0.0000 
     27 H          18.2731   28.8633   62.8182 H         1 NXV2001     0.0000 
     28 H          16.5884   27.8050   67.2280 H         1 NXV2001     0.0000 
     29 H          16.5153   29.4645   67.8452 H         1 NXV2001     0.0000 
     30 H          17.2775   29.7030   60.6938 H         1 NXV2001     0.0000 
     31 H          17.8550   28.0826   61.1191 H         1 NXV2001     0.0000 
     32 H          16.6163   30.2028   58.4672 H         1 NXV2001     0.0000 
     33 H          16.0474   29.4840   56.2295 H         1 NXV2001     0.0000 
     34 H          18.1818   26.4184   59.3578 H         1 NXV2001     0.0000 
     35 H          19.1267   28.0953   68.1093 H         1 NXV2001     0.0000 
     36 H          17.7976   27.4188   69.0663 H         1 NXV2001     0.0000 
     37 H          17.6779   29.1713   70.2616 H         1 NXV2001     0.0000 
@<TRIPOS>BOND
     1    2    1 ar   
     2    6    1 ar   
     3    7    1 1    
     4    3    2 ar   
     5   25    2 1    
     6    4    3 ar   
     7   26    3 1    
     8    5    4 ar   
     9   20    4 1    
    10    6    5 ar   
    11   10    5 1    
    12   27    6 1    
    13    8    7 3    
    14    9    8 1    
    15   23    9 1    
    16   28    9 1    
    17   29    9 1    
    18   11   10 1    
    19   12   11 1    
    20   30   11 1    
    21   31   11 1    
    22   13   12 ar   
    23   17   12 ar   
    24   14   13 ar   
    25   32   13 1    
    26   15   14 ar   
    27   33   14 1    
    28   16   15 ar   
    29   19   15 1    
    30   17   16 ar   
    31   18   16 1    
    32   34   17 1    
    33   21   20 ar   
    34   22   20 ar   
    35   24   23 1    
    36   35   23 1    
    37   36   23 1    
    38   37   24 1    
@<TRIPOS>SUBSTRUCTURE
     1 NXV2001     1 GROUP   
@<TRIPOS>SET

