#    Name: 2isj_FMN_6_INTS_M
#    Modification time : Tue Mar 25 18:36:35 2014

@<TRIPOS>MOLECULE
2isj_FMN_6_INTS_M
   92     0    12     0     0
SMALL
NO_CHARGES


@<TRIPOS>ATOM
      1 N          19.3895   37.3710    6.9725 N.am      2 SEC2        0.0000 
      2 N          19.6940   38.4980    5.9560 N.am     10 SEL2        0.0000 
      3 N          19.0850   36.2440    7.9890 N.am      6 SEP2        0.0000 
      4 N          17.4725   37.9710    7.6175 N.am      2 SEC2        0.0000 
      5 N          17.5120   38.3590    6.3750 N.am     10 SEL2        0.0000 
      6 N          17.4330   37.5830    8.8600 N.am      6 SEP2        0.0000 
      7 N          18.2985   37.3015    7.1820 N.am      2 SEC2        0.0000 
      8 O          16.7365   40.1635    4.7710 O.2       1 ALC1        0.0000 
      9 O          18.0850   39.4590    4.4830 O.2       9 ALL1        0.0000 
     10 O          15.3880   40.8680    5.0590 O.2       5 ALP1        0.0000 
     11 N          19.2815   41.7520    2.1505 N.am      2 SEC2        0.0000 
     12 N          18.8290   40.5460    2.6130 N.am     10 SEL2        0.0000 
     13 N          19.7340   42.9580    1.6880 N.am      6 SEP2        0.0000 
     14 N          19.9070   40.6410    1.5135 N.am      2 SEC2        0.0000 
     15 N          20.9850   40.7360    0.4140 N.am      6 SEP2        0.0000 
     16 N          21.2805   40.4300    1.7750 N.am      2 SEC2        0.0000 
     17 N          21.5760   40.1240    3.1360 N.am     10 SEL2        0.0000 
     18 CA         23.0680   38.4805    1.9730 C.3       4 GLC5        0.0000 
     19 CA         22.9380   39.8540    3.5170 C.3      12 GLL5        0.0000 
     20 CA         23.1980   37.1070    0.4290 C.3       8 GLP5        0.0000 
     21 CA         25.9910   41.5815    0.6755 C.3       4 GLC5        0.0000 
     22 CA         26.4360   40.6460    2.1000 C.3      12 GLL5        0.0000 
     23 CA         25.5460   42.5170   -0.7490 C.3       8 GLP5        0.0000 
     24 CA         28.1960   41.3005    1.4925 C.3       4 GLC5        0.0000 
     25 CA         29.9560   41.9550    0.8850 C.3       8 GLP5        0.0000 
     26 CA         26.4525   42.4350    2.4945 C.3       4 GLC5        0.0000 
     27 CA         26.4690   44.2240    2.8890 C.3       8 GLP5        0.0000 
     28 CA         27.5915   38.8615    6.7500 C.3       4 GLC5        0.0000 
     29 CA         27.0880   39.0210    4.7420 C.3      12 GLL5        0.0000 
     30 CA         28.0950   38.7020    8.7580 C.3       8 GLP5        0.0000 
     31 CA         28.6410   38.5205    3.8990 C.3       4 GLC5        0.0000 
     32 CA         30.1940   38.0200    3.0560 C.3       8 GLP5        0.0000 
     33 CA         28.8660   40.0350    5.5950 C.3       4 GLC5        0.0000 
     34 CA         30.6440   41.0490    6.4480 C.3       8 GLP5        0.0000 
     35 CA         26.6560   41.0950    5.1275 C.3       4 GLC5        0.0000 
     36 CA         26.2240   43.1690    5.5130 C.3       8 GLP5        0.0000 
     37 CA         22.0440   38.2205    8.6165 C.3       4 GLC5        0.0000 
     38 CA         22.3760   37.8770    6.7810 C.3      12 GLL5        0.0000 
     39 CA         21.7120   38.5640   10.4520 C.3       8 GLP5        0.0000 
     40 CA         23.5080   36.2165    4.4925 C.3       4 GLC5        0.0000 
     41 CA         22.6630   36.3610    6.5530 C.3      12 GLL5        0.0000 
     42 CA         24.3530   36.0720    2.4320 C.3       8 GLP5        0.0000 
     43 CA         24.9970   36.7485    8.3340 C.3       4 GLC5        0.0000 
     44 CA         23.0240   35.7850    7.8980 C.3      12 GLL5        0.0000 
     45 CA         26.9700   37.7120    8.7700 C.3       8 GLP5        0.0000 
     46 CA         22.3680   37.1745    9.1750 C.3       4 GLC5        0.0000 
     47 N          25.6175   36.0120    7.3345 N.am      2 SEC2        0.0000 
     48 N          24.2570   36.4250    8.3230 N.am     10 SEL2        0.0000 
     49 N          26.9780   35.5990    6.3460 N.am      6 SEP2        0.0000 
     50 CA         23.2295   32.3700   10.4690 C.3       4 GLC5        0.0000 
     51 CA         23.5810   33.7680    9.3580 C.3      12 GLL5        0.0000 
     52 CA         22.8780   30.9720   11.5800 C.3       8 GLP5        0.0000 
     53 NZ         23.0085   34.3060   13.5805 N.4       3 LYC4        0.0000 
     54 NZ         22.7300   34.4140   12.2140 N.4      11 LYL4        0.0000 
     55 NZ         24.4230   33.6220   15.3170 N.4       7 LYP4        0.0000 
     56 N          23.0085   34.3060   13.5805 N.am      2 SEC2        0.0000 
     57 N          22.7300   34.4140   12.2140 N.am     10 SEL2        0.0000 
     58 N          23.2870   34.1980   14.9470 N.am      6 SEP2        0.0000 
     59 NZ         25.1640   36.9875   12.5470 N.4       3 LYC4        0.0000 
     60 NZ         24.2010   36.4160   11.9850 N.4      11 LYL4        0.0000 
     61 NZ         27.3020   37.6040   12.5010 N.4       7 LYP4        0.0000 
     62 N          25.1640   36.9875   12.5470 N.am      2 SEC2        0.0000 
     63 N          24.2010   36.4160   11.9850 N.am     10 SEL2        0.0000 
     64 N          26.1270   37.5590   13.1090 N.am      6 SEP2        0.0000 
     65 N          23.2480   37.3275   12.3965 N.am      2 SEC2        0.0000 
     66 N          22.2950   38.2390   12.8080 N.am      6 SEP2        0.0000 
     67 NZ         25.2690   33.6885   13.1775 N.4       3 LYC4        0.0000 
     68 NZ         25.1950   34.0620   11.9450 N.4      11 LYL4        0.0000 
     69 N          25.2690   33.6885   13.1775 N.am      2 SEC2        0.0000 
     70 N          25.1950   34.0620   11.9450 N.am     10 SEL2        0.0000 
     71 N          25.3430   33.3150   14.4100 N.am      6 SEP2        0.0000 
     72 N          26.3935   33.5195   11.5180 N.am      2 SEC2        0.0000 
     73 N          27.5920   32.9770   11.0910 N.am      6 SEP2        0.0000 
     74 CA         23.2470   41.4380    4.6768 C.3       4 GLC5        0.0000 
     75 CA         23.0290   42.7770    6.2580 C.3       8 GLP5        0.0000 
     76 CA         22.4625   41.0800    1.6652 C.3       4 GLC5        0.0000 
     77 CA         21.4600   42.0610    0.2350 C.3       8 GLP5        0.0000 
     78 CA         24.4880   41.6435    1.5910 C.3       4 GLC5        0.0000 
     79 CA         25.3580   40.0880    3.0480 C.3      12 GLL5        0.0000 
     80 CA         24.3010   43.0710    0.3210 C.3       8 GLP5        0.0000 
     81 CA         25.0528   38.5855    1.7592 C.3       4 GLC5        0.0000 
     82 CA         23.9920   40.3440    2.6740 C.3      12 GLL5        0.0000 
     83 CA         24.5500   36.7400    1.0380 C.3       8 GLP5        0.0000 
     84 CA         26.3173   37.1921    4.8516 C.3       4 GLC5        0.0000 
     85 CA         24.6090   38.8630    5.0760 C.3      12 GLL5        0.0000 
     86 CA         27.1430   35.3610    4.9170 C.3       8 GLP5        0.0000 
     87 CA         23.4733   40.8815    5.5787 C.3       4 GLC5        0.0000 
     88 CA         24.2666   37.5894    3.5626 C.3       4 GLC5        0.0000 
     89 CA         23.2260   39.1090    4.7230 C.3      12 GLL5        0.0000 
     90 CA         24.3460   32.4343    8.0903 C.3       4 GLC5        0.0000 
     91 CA         23.2530   34.2350    7.9290 C.3      12 GLL5        0.0000 
     92 CA         25.2750   30.8670    7.5370 C.3       8 GLP5        0.0000 
@<TRIPOS>BOND
@<TRIPOS>SUBSTRUCTURE
     1 ALC1        8 GROUP        1 X    ALC  0     ROOT ALC X 1
     2 SEC2        1 GROUP        1 X    SEC  0     **** SEC X 2
     3 LYC4       53 GROUP        1 X    LYC  0     **** LYC X 4
     4 GLC5       18 GROUP        1 X    GLC  0     **** GLC X 6
     5 ALP1       10 GROUP        1 Y    ALP  0     ROOT ALP Y 8
     6 SEP2        3 GROUP        1 Y    SEP  0     **** SEP Y 9
     7 LYP4       55 GROUP        1 Y    LYP  0     **** LYP Y 11
     8 GLP5       20 GROUP        1 Y    GLP  0     **** GLP Y 13
     9 ALL1        9 GROUP        1 Z    ALL  0     ROOT ALL Z 15
    10 SEL2        2 GROUP        1 Z    SEL  0     **** SEL Z 16
    11 LYL4       54 GROUP        1 Z    LYL  0     **** LYL Z 18
    12 GLL5       19 GROUP        1 Z    GLL  0     **** GLL Z 20
@<TRIPOS>SET

