#    Name: 2isj_FMN_6_ligand
#    Modification time : Tue Mar 25 18:36:36 2014

@<TRIPOS>MOLECULE
2isj_FMN_6_ligand
   50    52     1     0     0
SMALL
NO_CHARGES


@<TRIPOS>ATOM
      1 N1         19.6940   38.4980    5.9560 N.2       1 FMN505      0.0000 
      2 C2         18.4110   38.7540    5.6350 C.2       1 FMN505      0.0000 
      3 O2         17.5120   38.3590    6.3750 O.2       1 FMN505      0.0000 
      4 N3         18.0850   39.4590    4.4830 N.am      1 FMN505      0.0000 
      5 C4         19.1190   39.9330    3.6110 C.2       1 FMN505      0.0000 
      6 O4         18.8290   40.5460    2.6130 O.2       1 FMN505      0.0000 
      7 C4A        20.4920   39.6610    3.9660 C.2       1 FMN505      0.0000 
      8 N5         21.5760   40.1240    3.1360 N.2       1 FMN505      0.0000 
      9 C5A        22.9380   39.8540    3.5170 C.ar      1 FMN505      0.0000 
     10 C6         23.9920   40.3440    2.6740 C.ar      1 FMN505      0.0000 
     11 C7         25.3580   40.0880    3.0480 C.ar      1 FMN505      0.0000 
     12 C7M        26.4360   40.6460    2.1000 C.3       1 FMN505      0.0000 
     13 C8         25.6600   39.3460    4.2510 C.ar      1 FMN505      0.0000 
     14 C8M        27.0880   39.0210    4.7420 C.3       1 FMN505      0.0000 
     15 C9         24.6090   38.8630    5.0760 C.ar      1 FMN505      0.0000 
     16 C9A        23.2260   39.1090    4.7230 C.ar      1 FMN505      0.0000 
     17 N10        22.0940   38.6430    5.5430 N.pl3     1 FMN505      0.0000 
     18 C10        20.7390   38.9300    5.1560 C.2       1 FMN505      0.0000 
     19 C1'        22.3760   37.8770    6.7810 C.3       1 FMN505      0.0000 
     20 C2'        22.6630   36.3610    6.5530 C.3       1 FMN505      0.0000 
     21 O2'        21.5200   35.6870    5.9840 O.3       1 FMN505      0.0000 
     22 C3'        23.0240   35.7850    7.8980 C.3       1 FMN505      0.0000 
     23 O3'        24.2570   36.4250    8.3230 O.3       1 FMN505      0.0000 
     24 C4'        23.2530   34.2350    7.9290 C.3       1 FMN505      0.0000 
     25 O4'        22.0570   33.5840    7.4850 O.3       1 FMN505      0.0000 
     26 C5'        23.5810   33.7680    9.3580 C.3       1 FMN505      0.0000 
     27 O5'        23.7620   34.9520   10.1260 O.3       1 FMN505      0.0000 
     28 P          24.0840   35.0050   11.6450 P.3       1 FMN505      0.0000 
     29 O1P        22.7300   34.4140   12.2140 O.co2     1 FMN505      0.0000 
     30 O2P        24.2010   36.4160   11.9850 O.co2     1 FMN505      0.0000 
     31 O3P        25.1950   34.0620   11.9450 O.co2     1 FMN505      0.0000 
     32 H          17.1101   39.6503    4.2394 H         1 FMN505      0.0000 
     33 H          23.7810   40.8573    1.8364 H         1 FMN505      0.0000 
     34 H          24.8167   38.3395    5.9229 H         1 FMN505      0.0000 
     35 H          21.5233   37.9502    7.4827 H         1 FMN505      0.0000 
     36 H          23.2509   38.3035    7.3078 H         1 FMN505      0.0000 
     37 H          23.5273   36.2989    5.9123 H         1 FMN505      0.0000 
     38 H          22.2424   36.0170    8.6114 H         1 FMN505      0.0000 
     39 H          24.0843   34.0144    7.2947 H         1 FMN505      0.0000 
     40 H          24.4772   33.1659    9.3100 H         1 FMN505      0.0000 
     41 H          22.7505   33.1715    9.7082 H         1 FMN505      0.0000 
     42 H          27.3590   40.4356    2.4223 H         1 FMN505      0.0000 
     43 H          26.3534   40.2657    1.1788 H         1 FMN505      0.0000 
     44 H          26.3755   41.6404    2.0131 H         1 FMN505      0.0000 
     45 H          27.5979   38.4827    4.0710 H         1 FMN505      0.0000 
     46 H          27.6185   39.8505    4.9165 H         1 FMN505      0.0000 
     47 H          27.0776   38.4954    5.5926 H         1 FMN505      0.0000 
     48 H          21.5129   34.7834    6.4123 H         1 FMN505      0.0000 
     49 H          24.4766   36.0046    9.2034 H         1 FMN505      0.0000 
     50 H          21.5158   33.4437    8.3141 H         1 FMN505      0.0000 
@<TRIPOS>BOND
     1    2    1 1    
     2   18    1 2    
     3    3    2 2    
     4    4    2 am   
     5    5    4 am   
     6   32    4 1    
     7    6    5 2    
     8    7    5 1    
     9    8    7 2    
    10   18    7 1    
    11    9    8 1    
    12   10    9 ar   
    13   16    9 ar   
    14   11   10 ar   
    15   33   10 1    
    16   12   11 1    
    17   13   11 ar   
    18   42   12 1    
    19   43   12 1    
    20   44   12 1    
    21   14   13 1    
    22   15   13 ar   
    23   45   14 1    
    24   46   14 1    
    25   47   14 1    
    26   16   15 ar   
    27   34   15 1    
    28   17   16 1    
    29   18   17 1    
    30   19   17 1    
    31   20   19 1    
    32   35   19 1    
    33   36   19 1    
    34   21   20 1    
    35   22   20 1    
    36   37   20 1    
    37   48   21 1    
    38   23   22 1    
    39   24   22 1    
    40   38   22 1    
    41   49   23 1    
    42   25   24 1    
    43   26   24 1    
    44   39   24 1    
    45   50   25 1    
    46   27   26 1    
    47   40   26 1    
    48   41   26 1    
    49   28   27 1    
    50   29   28 ar   
    51   30   28 ar   
    52   31   28 ar   
@<TRIPOS>SUBSTRUCTURE
     1 FMN505      1 GROUP   
@<TRIPOS>SET

