#    Name: 3u81_SAH_1_INTS_M
#    Modification time : Mon Mar 24 21:43:06 2014

@<TRIPOS>MOLECULE
3u81_SAH_1_INTS_M
   75     0    15     0     0
SMALL
NO_CHARGES


@<TRIPOS>ATOM
      1 OD1       -10.5950  -10.5615   16.8560 O.co2     3 ASC3        0.0000 
      2 OD1       -10.4680  -11.2790   15.7000 O.co2    13 ASL3        0.0000 
      3 OD1       -10.7220   -9.8440   18.0120 O.co2     8 ASP3        0.0000 
      4 O         -11.1230  -12.5685   15.5495 O.2       1 ALC1        0.0000 
      5 O         -10.4680  -11.2790   15.7000 O.2      11 ALL1        0.0000 
      6 O         -11.7780  -13.8580   15.3990 O.2       6 ALP1        0.0000 
      7 O          -9.2500  -11.6470   15.1205 O.2       1 ALC1        0.0000 
      8 O          -8.0320  -12.0150   14.5410 O.2       6 ALP1        0.0000 
      9 O         -10.5950  -10.5615   16.8560 O.2       1 ALC1        0.0000 
     10 O         -10.7220   -9.8440   18.0120 O.2       6 ALP1        0.0000 
     11 CA         -8.9200  -10.8605   14.7180 C.3       5 GLC5        0.0000 
     12 CA        -11.0360  -10.3730   14.6820 C.3      15 GLL5        0.0000 
     13 CA         -6.8040  -11.3480   14.7540 C.3      10 GLP5        0.0000 
     14 CA        -13.5655  -12.8915   15.8525 C.3       5 GLC5        0.0000 
     15 CA        -13.4020  -10.7470   15.5390 C.3      15 GLL5        0.0000 
     16 CA        -13.7290  -15.0360   16.1660 C.3      10 GLP5        0.0000 
     17 NZ         -8.9705   -8.2620   16.3725 N.4       4 LYC4        0.0000 
     18 NZ         -9.1370   -9.0000   15.1970 N.4      14 LYL4        0.0000 
     19 NZ         -8.8040   -7.5240   17.5480 N.4       9 LYP4        0.0000 
     20 N          -8.9705   -8.2620   16.3725 N.am      2 SEC2        0.0000 
     21 N          -9.1370   -9.0000   15.1970 N.am     12 SEL2        0.0000 
     22 N          -8.8040   -7.5240   17.5480 N.am      7 SEP2        0.0000 
     23 CA        -16.8030  -10.6745   12.9460 C.3       5 GLC5        0.0000 
     24 CA        -17.3410  -12.1260   14.5500 C.3      15 GLL5        0.0000 
     25 CA        -16.2650   -9.2230   11.3420 C.3      10 GLP5        0.0000 
     26 O         -16.4065  -13.6015   12.9675 O.2       1 ALC1        0.0000 
     27 O         -16.9300  -12.3690   13.2170 O.2      11 ALL1        0.0000 
     28 O         -15.8830  -14.8340   12.7180 O.2       6 ALP1        0.0000 
     29 O         -18.6395  -14.4875   13.1675 O.2       1 ALC1        0.0000 
     30 O         -19.2770  -13.6460   13.9760 O.2      11 ALL1        0.0000 
     31 O         -18.0020  -15.3290   12.3590 O.2       6 ALP1        0.0000 
     32 CA        -15.6940  -14.6150   15.9435 C.3       5 GLC5        0.0000 
     33 CA        -17.6590  -14.1940   15.7210 C.3      15 GLL5        0.0000 
     34 CA        -16.7120  -14.6460   17.6525 C.3       5 GLC5        0.0000 
     35 CA        -15.7650  -15.0980   19.5840 C.3      10 GLP5        0.0000 
     36 CA        -19.8085  -18.0910   16.6550 C.3       5 GLC5        0.0000 
     37 CA        -19.0320  -17.9020   18.5580 C.3      15 GLL5        0.0000 
     38 CA        -20.5850  -18.2800   14.7520 C.3      10 GLP5        0.0000 
     39 CA        -19.4895  -19.8570   17.7840 C.3       5 GLC5        0.0000 
     40 CA        -19.9470  -21.8120   17.0100 C.3      10 GLP5        0.0000 
     41 CA        -17.7080  -19.4440   19.3540 C.3       5 GLC5        0.0000 
     42 CA        -16.3840  -20.9860   20.1500 C.3      10 GLP5        0.0000 
     43 CA        -17.6480  -17.5050   19.8510 C.3       5 GLC5        0.0000 
     44 CA        -16.2640  -17.1080   21.1440 C.3      10 GLP5        0.0000 
     45 O         -18.5845  -19.2545   20.2195 O.2       1 ALC1        0.0000 
     46 O         -19.7970  -18.2710   19.6210 O.2      11 ALL1        0.0000 
     47 O         -17.3720  -20.2380   20.8180 O.2       6 ALP1        0.0000 
     48 O         -20.1310  -19.5830   20.3085 O.2       1 ALC1        0.0000 
     49 O         -20.4650  -20.8950   20.9960 O.2       6 ALP1        0.0000 
     50 N         -18.1620  -20.2050   18.2215 N.am      2 SEC2        0.0000 
     51 N         -18.2590  -18.7820   17.9360 N.am     12 SEL2        0.0000 
     52 N         -18.0650  -21.6280   18.5070 N.am      7 SEP2        0.0000 
     53 CA        -16.8305  -18.3610   14.9505 C.3       5 GLC5        0.0000 
     54 CA        -17.5390  -18.4040   16.8640 C.3      15 GLL5        0.0000 
     55 CA        -16.1220  -18.3180   13.0370 C.3      10 GLP5        0.0000 
     56 CA        -19.0620  -18.3420   15.8080 C.3       5 GLC5        0.0000 
     57 CA        -18.7430  -20.1080   16.9370 C.3       5 GLC5        0.0000 
     58 CA        -16.9615  -19.6950   18.5070 C.3       5 GLC5        0.0000 
     59 N         -17.9695  -17.7110   14.9225 N.am      2 SEC2        0.0000 
     60 N         -17.4590  -17.1710   16.3320 N.am     12 SEL2        0.0000 
     61 N         -18.4800  -18.2510   13.5130 N.am      7 SEP2        0.0000 
     62 CA        -12.9142  -10.1803   13.4697 C.3       5 GLC5        0.0000 
     63 CA        -12.3690   -9.7400   15.1090 C.3      15 GLL5        0.0000 
     64 CA        -14.1260  -10.3040   12.0440 C.3      10 GLP5        0.0000 
     65 CA        -14.1597  -10.3148   13.8323 C.3       5 GLC5        0.0000 
     66 CA        -14.9057  -13.4090   16.1092 C.3       5 GLC5        0.0000 
     67 CA        -15.9120  -11.1900   16.5110 C.3      15 GLL5        0.0000 
     68 CA        -15.8328  -12.6800   17.9432 C.3       5 GLC5        0.0000 
     69 CA        -16.2530  -12.3740   15.5940 C.3      15 GLL5        0.0000 
     70 CA        -15.5830  -13.5780   19.8340 C.3      10 GLP5        0.0000 
     71 CA        -19.4420  -15.2188   15.0715 C.3       5 GLC5        0.0000 
     72 CA        -20.8330  -16.7820   14.7720 C.3      10 GLP5        0.0000 
     73 CA        -19.7345  -16.6025   16.1435 C.3       5 GLC5        0.0000 
     74 CA        -18.2330  -16.2800   16.9540 C.3      15 GLL5        0.0000 
     75 CA        -17.2005  -15.7605   18.5495 C.3       5 GLC5        0.0000 
@<TRIPOS>BOND
@<TRIPOS>SUBSTRUCTURE
     1 ALC1        4 GROUP        1 X    ALC  0     ROOT ALC X 1
     2 SEC2       20 GROUP        1 X    SEC  0     **** SEC X 2
     3 ASC3        1 GROUP        1 X    ASC  0     **** ASC X 3
     4 LYC4       17 GROUP        1 X    LYC  0     **** LYC X 4
     5 GLC5       11 GROUP        1 X    GLC  0     **** GLC X 6
     6 ALP1        6 GROUP        1 Y    ALP  0     ROOT ALP Y 8
     7 SEP2       22 GROUP        1 Y    SEP  0     **** SEP Y 9
     8 ASP3        3 GROUP        1 Y    ASP  0     **** ASP Y 10
     9 LYP4       19 GROUP        1 Y    LYP  0     **** LYP Y 11
    10 GLP5       13 GROUP        1 Y    GLP  0     **** GLP Y 13
    11 ALL1        5 GROUP        1 Z    ALL  0     ROOT ALL Z 15
    12 SEL2       21 GROUP        1 Z    SEL  0     **** SEL Z 16
    13 ASL3        2 GROUP        1 Z    ASL  0     **** ASL Z 17
    14 LYL4       18 GROUP        1 Z    LYL  0     **** LYL Z 18
    15 GLL5       12 GROUP        1 Z    GLL  0     **** GLL Z 20
@<TRIPOS>SET

