#    Name: 3u81_SAH_1_ligand
#    Modification time : Mon Mar 24 21:43:06 2014

@<TRIPOS>MOLECULE
3u81_SAH_1_ligand
   46    48     1     0     0
SMALL
NO_CHARGES


@<TRIPOS>ATOM
      1 N         -10.4680  -11.2790   15.7000 N.4       1 SAH222      0.0000 
      2 CA        -11.0360  -10.3730   14.6820 C.3       1 SAH222      0.0000 
      3 CB        -12.3690   -9.7400   15.1090 C.3       1 SAH222      0.0000 
      4 CG        -13.4020  -10.7470   15.5390 C.3       1 SAH222      0.0000 
      5 SD        -14.9850   -9.9040   15.7020 S.3       1 SAH222      0.0000 
      6 C         -10.0190   -9.2890   14.3760 C.2       1 SAH222      0.0000 
      7 O          -9.1370   -9.0000   15.1970 O.co2     1 SAH222      0.0000 
      8 OXT       -10.1590   -8.7140   13.2960 O.co2     1 SAH222      0.0000 
      9 C5'       -15.9120  -11.1900   16.5110 C.3       1 SAH222      0.0000 
     10 C4'       -16.2530  -12.3740   15.5940 C.3       1 SAH222      0.0000 
     11 O4'       -16.6740  -13.4540   16.4250 O.3       1 SAH222      0.0000 
     12 C3'       -17.3410  -12.1260   14.5500 C.3       1 SAH222      0.0000 
     13 O3'       -16.9300  -12.3690   13.2170 O.3       1 SAH222      0.0000 
     14 C2'       -18.4430  -13.1170   15.0210 C.3       1 SAH222      0.0000 
     15 O2'       -19.2770  -13.6460   13.9760 O.3       1 SAH222      0.0000 
     16 C1'       -17.6590  -14.1940   15.7210 C.3       1 SAH222      0.0000 
     17 N9        -18.4020  -14.9730   16.7120 N.pl3     1 SAH222      0.0000 
     18 C8        -19.2800  -14.4600   17.6290 C.2       1 SAH222      0.0000 
     19 N7        -19.6960  -15.4220   18.4940 N.2       1 SAH222      0.0000 
     20 C5        -19.0390  -16.5660   18.0760 C.ar      1 SAH222      0.0000 
     21 C6        -19.0320  -17.9020   18.5580 C.ar      1 SAH222      0.0000 
     22 N6        -19.7970  -18.2710   19.6210 N.pl3     1 SAH222      0.0000 
     23 N1        -18.2590  -18.7820   17.9360 N.ar      1 SAH222      0.0000 
     24 C2        -17.5390  -18.4040   16.8640 C.ar      1 SAH222      0.0000 
     25 N3        -17.4590  -17.1710   16.3320 N.ar      1 SAH222      0.0000 
     26 C4        -18.2330  -16.2800   16.9540 C.ar      1 SAH222      0.0000 
     27 H         -11.2076  -10.9278   13.7571 H         1 SAH222      0.0000 
     28 H         -12.7586   -9.1470   14.2658 H         1 SAH222      0.0000 
     29 H         -12.1718   -9.0366   15.9341 H         1 SAH222      0.0000 
     30 H         -13.2495  -11.1359   16.5118 H         1 SAH222      0.0000 
     31 H         -13.6123  -11.4889   14.8136 H         1 SAH222      0.0000 
     32 H         -16.7885  -10.6741   16.8685 H         1 SAH222      0.0000 
     33 H         -15.2761  -11.4710   17.3349 H         1 SAH222      0.0000 
     34 H         -15.3374  -12.6650   15.0699 H         1 SAH222      0.0000 
     35 H         -17.7317  -11.1416   14.7230 H         1 SAH222      0.0000 
     36 H         -19.0145  -12.5942   15.7854 H         1 SAH222      0.0000 
     37 H         -17.1919  -14.8166   14.9947 H         1 SAH222      0.0000 
     38 H         -19.5655  -13.5267   17.6534 H         1 SAH222      0.0000 
     39 H         -19.6884  -19.2142   19.9350 H         1 SAH222      0.0000 
     40 H         -20.4004  -17.5665   19.9945 H         1 SAH222      0.0000 
     41 H         -16.9547  -19.1850   16.3711 H         1 SAH222      0.0000 
     42 H          -9.4691  -11.3024   15.6604 H         1 SAH222      0.0000 
     43 H         -10.7182  -10.9995   16.6270 H         1 SAH222      0.0000 
     44 H         -10.7882  -12.2188   15.5808 H         1 SAH222      0.0000 
     45 H         -16.5453  -13.2919   13.2291 H         1 SAH222      0.0000 
     46 H         -18.6824  -14.2593   13.4560 H         1 SAH222      0.0000 
@<TRIPOS>BOND
     1    2    1 1    
     2   42    1 1    
     3   43    1 1    
     4   44    1 1    
     5    3    2 1    
     6    6    2 1    
     7   27    2 1    
     8    4    3 1    
     9   28    3 1    
    10   29    3 1    
    11    5    4 1    
    12   30    4 1    
    13   31    4 1    
    14    9    5 1    
    15    7    6 ar   
    16    8    6 ar   
    17   10    9 1    
    18   32    9 1    
    19   33    9 1    
    20   11   10 1    
    21   12   10 1    
    22   34   10 1    
    23   16   11 1    
    24   13   12 1    
    25   14   12 1    
    26   35   12 1    
    27   45   13 1    
    28   15   14 1    
    29   16   14 1    
    30   36   14 1    
    31   46   15 1    
    32   17   16 1    
    33   37   16 1    
    34   18   17 1    
    35   26   17 1    
    36   19   18 2    
    37   38   18 1    
    38   20   19 1    
    39   21   20 ar   
    40   26   20 ar   
    41   22   21 1    
    42   23   21 ar   
    43   39   22 1    
    44   40   22 1    
    45   24   23 ar   
    46   25   24 ar   
    47   41   24 1    
    48   26   25 ar   
@<TRIPOS>SUBSTRUCTURE
     1 SAH222      1 GROUP   
@<TRIPOS>SET

