#    Name: 2igx_A1T_1_INTS_M
#    Modification time : Tue Mar 25 18:01:34 2014

@<TRIPOS>MOLECULE
2igx_A1T_1_INTS_M
   83     0     9     0     0
SMALL
NO_CHARGES


@<TRIPOS>ATOM
      1 CA         51.5910   57.7640    9.3690 C.3       3 GLC5        0.0000 
      2 CA         52.0070   59.6580    9.1430 C.3       9 GLL5        0.0000 
      3 CA         51.1750   55.8700    9.5950 C.3       6 GLP5        0.0000 
      4 CA         50.0160   60.1145    9.7465 C.3       3 GLC5        0.0000 
      5 CA         48.0250   60.5710   10.3500 C.3       6 GLP5        0.0000 
      6 CA         52.3465   61.4445    8.0190 C.3       3 GLC5        0.0000 
      7 CA         52.6860   63.2310    6.8950 C.3       6 GLP5        0.0000 
      8 CA         53.0795   61.1550    7.0675 C.3       3 GLC5        0.0000 
      9 CA         52.2580   59.6210    7.6400 C.3       9 GLL5        0.0000 
     10 CA         53.9010   62.6890    6.4950 C.3       6 GLP5        0.0000 
     11 CA         49.0945   58.3340    7.1300 C.3       3 GLC5        0.0000 
     12 CA         50.9330   59.4290    6.9130 C.3       9 GLL5        0.0000 
     13 CA         47.2560   57.2390    7.3470 C.3       6 GLP5        0.0000 
     14 CA         51.1780   60.7635    4.0060 C.3       3 GLC5        0.0000 
     15 CA         51.1620   59.3880    5.4110 C.3       9 GLL5        0.0000 
     16 CA         51.1940   62.1390    2.6010 C.3       6 GLP5        0.0000 
     17 CA         52.0560   58.2740    3.8145 C.3       3 GLC5        0.0000 
     18 CA         52.9500   57.1600    2.2180 C.3       6 GLP5        0.0000 
     19 CA         48.3360   59.1105    3.1420 C.3       3 GLC5        0.0000 
     20 CA         49.8370   59.4690    4.6680 C.3       9 GLL5        0.0000 
     21 CA         46.8350   58.7520    1.6160 C.3       6 GLP5        0.0000 
     22 CA         48.5465   58.3540    6.0075 C.3       3 GLC5        0.0000 
     23 CA         48.3430   60.9215    5.0180 C.3       3 GLC5        0.0000 
     24 CA         46.8490   62.3740    5.3680 C.3       6 GLP5        0.0000 
     25 CA         49.8455   60.7895    3.4595 C.3       3 GLC5        0.0000 
     26 CA         49.8540   62.1100    2.2510 C.3       6 GLP5        0.0000 
     27 OD1        63.6945   59.2180   12.3575 O.co2     2 ASC3        0.0000 
     28 OD1        62.0310   59.7210   13.1010 O.co2     8 ASL3        0.0000 
     29 OD1        65.3580   58.7150   11.6140 O.co2     5 ASP3        0.0000 
     30 O          62.5205   59.2065   11.8210 O.2       1 ALC1        0.0000 
     31 O          62.0310   59.7210   13.1010 O.2       7 ALL1        0.0000 
     32 O          63.0100   58.6920   10.5410 O.2       4 ALP1        0.0000 
     33 CA         59.1365   56.7775   12.0975 C.3       3 GLC5        0.0000 
     34 CA         59.9160   58.6410   12.7110 C.3       9 GLL5        0.0000 
     35 CA         58.3570   54.9140   11.4840 C.3       6 GLP5        0.0000 
     36 CA         63.1140   62.3900    5.0125 C.3       3 GLC5        0.0000 
     37 CA         61.3620   63.4100    5.6110 C.3       9 GLL5        0.0000 
     38 CA         64.8660   61.3700    4.4140 C.3       6 GLP5        0.0000 
     39 CA         62.8175   63.5055    3.0720 C.3       3 GLC5        0.0000 
     40 CA         61.6870   64.2310    4.5230 C.3       9 GLL5        0.0000 
     41 CA         63.9480   62.7800    1.6210 C.3       6 GLP5        0.0000 
     42 CA         57.6870   66.9945    1.9200 C.3       3 GLC5        0.0000 
     43 CA         58.8460   68.3520    3.1450 C.3       9 GLL5        0.0000 
     44 CA         56.5280   65.6370    0.6950 C.3       6 GLP5        0.0000 
     45 CA         57.2965   70.1160    1.4855 C.3       3 GLC5        0.0000 
     46 CA         59.0660   69.2430    1.9100 C.3       9 GLL5        0.0000 
     47 CA         55.5270   70.9890    1.0610 C.3       6 GLP5        0.0000 
     48 CA         58.0640   67.5245    0.1800 C.3       3 GLC5        0.0000 
     49 CA         59.8910   68.5040    0.8570 C.3       9 GLL5        0.0000 
     50 CA         56.2370   66.5450   -0.4970 C.3       6 GLP5        0.0000 
     51 CA         63.0400   67.4595    1.6385 C.3       3 GLC5        0.0000 
     52 CA         61.1900   67.9310    1.4430 C.3       9 GLL5        0.0000 
     53 CA         64.8900   66.9880    1.8340 C.3       6 GLP5        0.0000 
     54 CA         54.3180   60.3565   12.6803 C.3       3 GLC5        0.0000 
     55 CA         55.0440   61.0990   10.8850 C.3       9 GLL5        0.0000 
     56 CA         53.2610   60.2020   14.3040 C.3       6 GLP5        0.0000 
     57 CA         55.5930   59.8505    9.0422 C.3       3 GLC5        0.0000 
     58 CA         55.7060   59.9230   11.2280 C.3       9 GLL5        0.0000 
     59 CA         55.8110   59.1900    7.0280 C.3       6 GLP5        0.0000 
     60 CA         53.9718   59.4147    7.7097 C.3       3 GLC5        0.0000 
     61 CA         51.8667   61.3197    6.5285 C.3       3 GLC5        0.0000 
     62 CA         51.3904   57.5473    6.6719 C.3       3 GLC5        0.0000 
     63 CA         51.4020   55.6380    7.0000 C.3       6 GLP5        0.0000 
     64 CA         53.5274   59.8498   12.2300 C.3       3 GLC5        0.0000 
     65 CA         54.0100   58.6050   10.2670 C.3       9 GLL5        0.0000 
     66 CA         54.8024   59.3438    8.5920 C.3       3 GLC5        0.0000 
     67 CA         53.8350   61.0220   10.1970 C.3       9 GLL5        0.0000 
     68 CA         65.8970   57.6715   17.2040 C.3       3 GLC5        0.0000 
     69 CA         64.1620   58.5240   15.7460 C.3       9 GLL5        0.0000 
     70 CA         67.5990   56.8820   17.9710 C.3       6 GLP5        0.0000 
     71 CA         65.5684   60.1226   15.1131 C.3       3 GLC5        0.0000 
     72 CA         67.3510   61.1600   15.1360 C.3       6 GLP5        0.0000 
     73 CA         60.0880   59.3795    6.0225 C.3       3 GLC5        0.0000 
     74 CA         59.6340   60.1690    8.0060 C.3       9 GLL5        0.0000 
     75 CA         60.3630   58.1240    4.5230 C.3       6 GLP5        0.0000 
     76 CA         57.4581   59.8762    7.8678 C.3       3 GLC5        0.0000 
     77 CA         57.9800   65.5120    5.3708 C.3       3 GLC5        0.0000 
     78 CA         59.0440   64.0300    5.3530 C.3       9 GLL5        0.0000 
     79 CA         56.7570   66.5880    5.9320 C.3       6 GLP5        0.0000 
     80 CA         58.1397   67.3602    4.6795 C.3       3 GLC5        0.0000 
     81 CA         60.1990   67.9130    3.7090 C.3       9 GLL5        0.0000 
     82 CA         61.4498   67.8773   -0.6240 C.3       3 GLC5        0.0000 
     83 CA         62.3590   67.5370   -2.3980 C.3       6 GLP5        0.0000 
@<TRIPOS>BOND
@<TRIPOS>SUBSTRUCTURE
     1 ALC1       30 GROUP        1 X    ALC  0     ROOT ALC X 1
     2 ASC3       27 GROUP        1 X    ASC  0     **** ASC X 3
     3 GLC5        1 GROUP        1 X    GLC  0     **** GLC X 6
     4 ALP1       32 GROUP        1 Y    ALP  0     ROOT ALP Y 8
     5 ASP3       29 GROUP        1 Y    ASP  0     **** ASP Y 10
     6 GLP5        3 GROUP        1 Y    GLP  0     **** GLP Y 13
     7 ALL1       31 GROUP        1 Z    ALL  0     ROOT ALL Z 15
     8 ASL3       28 GROUP        1 Z    ASL  0     **** ASL Z 17
     9 GLL5        2 GROUP        1 Z    GLL  0     **** GLL Z 20
@<TRIPOS>SET

