#    Name: 2igx_A1T_1_ligand
#    Modification time : Tue Mar 25 18:01:34 2014

@<TRIPOS>MOLECULE
2igx_A1T_1_ligand
   98   103     1     0     0
SMALL
NO_CHARGES


@<TRIPOS>ATOM
      1 O25        56.8700   60.2970   13.1870 O.2       1 A1T330      0.0000 
      2 C23        56.9890   60.0360   11.9960 C.2       1 A1T330      0.0000 
      3 C26        55.7060   59.9230   11.2280 C.ar      1 A1T330      0.0000 
      4 C30        55.0440   61.0990   10.8850 C.ar      1 A1T330      0.0000 
      5 C34        53.8350   61.0220   10.1970 C.ar      1 A1T330      0.0000 
      6 C36        53.3200   59.7580    9.8930 C.ar      1 A1T330      0.0000 
      7 C38        52.0070   59.6580    9.1430 C.3       1 A1T330      0.0000 
      8 C40        52.2580   59.6210    7.6400 C.3       1 A1T330      0.0000 
      9 C43        50.9330   59.4290    6.9130 C.3       1 A1T330      0.0000 
     10 C46        51.1620   59.3880    5.4110 C.3       1 A1T330      0.0000 
     11 C48        49.8370   59.4690    4.6680 C.3       1 A1T330      0.0000 
     12 C33        54.0100   58.6050   10.2670 C.ar      1 A1T330      0.0000 
     13 N29        55.1760   58.7060   10.9360 N.ar      1 A1T330      0.0000 
     14 N22        58.1960   59.8610   11.4570 N.am      1 A1T330      0.0000 
     15 C24        59.3360   60.0230   12.3800 C.3       1 A1T330      0.0000 
     16 C28        60.4290   60.9290   11.8100 C.3       1 A1T330      0.0000 
     17 C32        61.5300   61.0750   12.8710 C.3       1 A1T330      0.0000 
     18 N35        62.0310   59.7210   13.1010 N.4       1 A1T330      0.0000 
     19 C37        63.3790   59.7170   13.6820 C.3       1 A1T330      0.0000 
     20 C39        63.4400   59.5760   15.1870 C.ar      1 A1T330      0.0000 
     21 C42        64.1620   58.5240   15.7460 C.ar      1 A1T330      0.0000 
     22 C45        64.2280   58.3980   17.1280 C.ar      1 A1T330      0.0000 
     23 C47        63.5600   59.3310   17.9200 C.ar      1 A1T330      0.0000 
     24 C44        62.8540   60.3780   17.3190 C.ar      1 A1T330      0.0000 
     25 N41        62.8160   60.4830   15.9780 N.ar      1 A1T330      0.0000 
     26 C31        61.0720   58.7950   13.7060 C.3       1 A1T330      0.0000 
     27 C27        59.9160   58.6410   12.7110 C.3       1 A1T330      0.0000 
     28 C21        58.5200   59.4620   10.0830 C.3       1 A1T330      0.0000 
     29 C20        58.8650   60.5590    9.1030 C.ar      1 A1T330      0.0000 
     30 C18        58.4600   61.9010    9.2250 C.ar      1 A1T330      0.0000 
     31 C16        58.8340   62.8420    8.2580 C.ar      1 A1T330      0.0000 
     32 C19        59.6340   60.1690    8.0060 C.ar      1 A1T330      0.0000 
     33 C17        59.9920   61.1010    7.0380 C.ar      1 A1T330      0.0000 
     34 C15        59.6100   62.4400    7.1600 C.ar      1 A1T330      0.0000 
     35 C14        60.0310   63.3330    6.0430 C.ar      1 A1T330      0.0000 
     36 C11        59.0440   64.0300    5.3530 C.ar      1 A1T330      0.0000 
     37 C7         59.3620   64.8420    4.2660 C.ar      1 A1T330      0.0000 
     38 C12        61.3620   63.4100    5.6110 C.ar      1 A1T330      0.0000 
     39 C8         61.6870   64.2310    4.5230 C.ar      1 A1T330      0.0000 
     40 C4         60.6870   64.9520    3.8500 C.ar      1 A1T330      0.0000 
     41 C2         61.0430   65.8210    2.6670 C.2       1 A1T330      0.0000 
     42 O1         61.5570   65.2670    1.7080 O.2       1 A1T330      0.0000 
     43 N3         60.8160   67.1420    2.6240 N.am      1 A1T330      0.0000 
     44 C6         60.1990   67.9130    3.7090 C.3       1 A1T330      0.0000 
     45 C10        58.8460   68.3520    3.1450 C.3       1 A1T330      0.0000 
     46 C13        59.0660   69.2430    1.9100 C.3       1 A1T330      0.0000 
     47 C9         59.8910   68.5040    0.8570 C.3       1 A1T330      0.0000 
     48 C5         61.1900   67.9310    1.4430 C.3       1 A1T330      0.0000 
     49 H          55.4397   62.0074   11.1346 H         1 A1T330      0.0000 
     50 H          53.3371   61.8636    9.9214 H         1 A1T330      0.0000 
     51 H          51.3851   60.5188    9.3809 H         1 A1T330      0.0000 
     52 H          51.4853   58.7507    9.4412 H         1 A1T330      0.0000 
     53 H          52.9208   58.7970    7.4056 H         1 A1T330      0.0000 
     54 H          52.7093   60.5546    7.3270 H         1 A1T330      0.0000 
     55 H          50.2672   60.2535    7.1553 H         1 A1T330      0.0000 
     56 H          50.4780   58.4959    7.2354 H         1 A1T330      0.0000 
     57 H          51.6667   58.4598    5.1476 H         1 A1T330      0.0000 
     58 H          51.7912   60.2272    5.1183 H         1 A1T330      0.0000 
     59 H          53.6100   57.6832   10.0215 H         1 A1T330      0.0000 
     60 H          58.9886   60.4579   13.3174 H         1 A1T330      0.0000 
     61 H          60.0158   61.8981   11.5894 H         1 A1T330      0.0000 
     62 H          60.8446   60.4799   10.9245 H         1 A1T330      0.0000 
     63 H          61.0929   61.4891   13.7600 H         1 A1T330      0.0000 
     64 H          62.2966   61.7169   12.4797 H         1 A1T330      0.0000 
     65 H          62.1984   59.2974   12.0083 H         1 A1T330      0.0000 
     66 H          63.9168   60.6550   13.3994 H         1 A1T330      0.0000 
     67 H          63.9840   58.8923   13.2315 H         1 A1T330      0.0000 
     68 H          64.6401   57.8492   15.1412 H         1 A1T330      0.0000 
     69 H          64.7546   57.6381   17.5574 H         1 A1T330      0.0000 
     70 H          63.5852   59.2512   18.9423 H         1 A1T330      0.0000 
     71 H          62.3681   61.0606   17.9268 H         1 A1T330      0.0000 
     72 H          60.6775   59.1882   14.6303 H         1 A1T330      0.0000 
     73 H          61.5143   57.8243   13.8692 H         1 A1T330      0.0000 
     74 H          60.2827   58.1804   11.8033 H         1 A1T330      0.0000 
     75 H          59.1432   58.0250   13.1513 H         1 A1T330      0.0000 
     76 H          57.6651   58.8694    9.6509 H         1 A1T330      0.0000 
     77 H          59.3747   58.7284   10.0950 H         1 A1T330      0.0000 
     78 H          57.8883   62.1882   10.0270 H         1 A1T330      0.0000 
     79 H          58.5437   63.8181    8.3501 H         1 A1T330      0.0000 
     80 H          59.9355   59.1901    7.9150 H         1 A1T330      0.0000 
     81 H          60.5459   60.8039    6.2193 H         1 A1T330      0.0000 
     82 H          58.0562   63.9445    5.6515 H         1 A1T330      0.0000 
     83 H          58.6235   65.3564    3.7744 H         1 A1T330      0.0000 
     84 H          62.0888   62.8723    6.0852 H         1 A1T330      0.0000 
     85 H          62.6642   64.3072    4.2139 H         1 A1T330      0.0000 
     86 H          60.7735   68.7847    3.9430 H         1 A1T330      0.0000 
     87 H          60.0307   67.3042    4.5726 H         1 A1T330      0.0000 
     88 H          58.3065   68.9136    3.8964 H         1 A1T330      0.0000 
     89 H          58.2749   67.4794    2.8561 H         1 A1T330      0.0000 
     90 H          59.5900   70.1450    2.2126 H         1 A1T330      0.0000 
     91 H          58.1009   69.5116    1.4904 H         1 A1T330      0.0000 
     92 H          60.1408   69.1926    0.0462 H         1 A1T330      0.0000 
     93 H          59.2971   67.6856    0.4428 H         1 A1T330      0.0000 
     94 H          61.6594   67.3129    0.6936 H         1 A1T330      0.0000 
     95 H          61.8355   68.7528    1.7113 H         1 A1T330      0.0000 
     96 H          49.9653   59.4475    3.6765 H         1 A1T330      0.0000 
     97 H          49.2328   58.7073    4.9020 H         1 A1T330      0.0000 
     98 H          49.3425   60.3116    4.8814 H         1 A1T330      0.0000 
@<TRIPOS>BOND
     1    2    1 2    
     2    3    2 1    
     3   14    2 am   
     4    4    3 ar   
     5   13    3 ar   
     6    5    4 ar   
     7   49    4 1    
     8    6    5 ar   
     9   50    5 1    
    10    7    6 1    
    11   12    6 ar   
    12    8    7 1    
    13   51    7 1    
    14   52    7 1    
    15    9    8 1    
    16   53    8 1    
    17   54    8 1    
    18   10    9 1    
    19   55    9 1    
    20   56    9 1    
    21   11   10 1    
    22   57   10 1    
    23   58   10 1    
    24   96   11 1    
    25   97   11 1    
    26   98   11 1    
    27   13   12 ar   
    28   59   12 1    
    29   15   14 1    
    30   28   14 1    
    31   16   15 1    
    32   27   15 1    
    33   60   15 1    
    34   17   16 1    
    35   61   16 1    
    36   62   16 1    
    37   18   17 1    
    38   63   17 1    
    39   64   17 1    
    40   19   18 1    
    41   26   18 1    
    42   65   18 1    
    43   20   19 1    
    44   66   19 1    
    45   67   19 1    
    46   21   20 ar   
    47   25   20 ar   
    48   22   21 ar   
    49   68   21 1    
    50   23   22 ar   
    51   69   22 1    
    52   24   23 ar   
    53   70   23 1    
    54   25   24 ar   
    55   71   24 1    
    56   27   26 1    
    57   72   26 1    
    58   73   26 1    
    59   74   27 1    
    60   75   27 1    
    61   29   28 1    
    62   76   28 1    
    63   77   28 1    
    64   30   29 ar   
    65   32   29 ar   
    66   31   30 ar   
    67   78   30 1    
    68   34   31 ar   
    69   79   31 1    
    70   33   32 ar   
    71   80   32 1    
    72   34   33 ar   
    73   81   33 1    
    74   35   34 1    
    75   36   35 ar   
    76   38   35 ar   
    77   37   36 ar   
    78   82   36 1    
    79   40   37 ar   
    80   83   37 1    
    81   39   38 ar   
    82   84   38 1    
    83   40   39 ar   
    84   85   39 1    
    85   41   40 1    
    86   42   41 2    
    87   43   41 am   
    88   44   43 1    
    89   48   43 1    
    90   45   44 1    
    91   86   44 1    
    92   87   44 1    
    93   46   45 1    
    94   88   45 1    
    95   89   45 1    
    96   47   46 1    
    97   90   46 1    
    98   91   46 1    
    99   48   47 1    
   100   92   47 1    
   101   93   47 1    
   102   94   48 1    
   103   95   48 1    
@<TRIPOS>SUBSTRUCTURE
     1 A1T330      1 GROUP   
@<TRIPOS>SET

