#    Name: 3sj7_NDP_1_INTS_M
#    Modification time : Mon Mar 24 17:42:32 2014

@<TRIPOS>MOLECULE
3sj7_NDP_1_INTS_M
   97     0    12     0     0
SMALL
NO_CHARGES


@<TRIPOS>ATOM
      1 CA         -4.3225   40.6305   19.8090 C.3       4 GLC5        0.0000 
      2 CA         -6.2480   40.5140   20.9320 C.3      12 GLL5        0.0000 
      3 CA         -2.3970   40.7470   18.6860 C.3       8 GLP5        0.0000 
      4 CA         -9.3550   41.0980   22.0085 C.3       4 GLC5        0.0000 
      5 CA         -7.7110   40.7770   20.6150 C.3      12 GLL5        0.0000 
      6 CA        -10.9990   41.4190   23.4020 C.3       8 GLP5        0.0000 
      7 O          -9.2270   42.7810   20.2215 O.2       1 ALC1        0.0000 
      8 O          -7.8800   42.1470   20.2910 O.2       9 ALL1        0.0000 
      9 O         -10.5740   43.4150   20.1520 O.2       5 ALP1        0.0000 
     10 CA         -4.7555   40.3630   18.0000 C.3       4 GLC5        0.0000 
     11 CA         -6.5990   40.0440   18.6930 C.3      12 GLL5        0.0000 
     12 CA         -2.9120   40.6820   17.3070 C.3       8 GLP5        0.0000 
     13 CA         -5.8935   38.1845   12.4500 C.3       4 GLC5        0.0000 
     14 CA         -5.5550   37.7920   14.5330 C.3      12 GLL5        0.0000 
     15 CA         -6.2320   38.5770   10.3670 C.3       8 GLP5        0.0000 
     16 O          -5.3025   36.3315   12.6625 O.2       1 ALC1        0.0000 
     17 O          -5.3060   36.5770   14.0010 O.2       9 ALL1        0.0000 
     18 O          -5.2990   36.0860   11.3240 O.2       5 ALP1        0.0000 
     19 O          -4.2520   35.3030   14.5230 O.2       1 ALC1        0.0000 
     20 O          -3.1980   34.0290   15.0450 O.2       5 ALP1        0.0000 
     21 N          -4.7675   39.0070   12.5065 N.am      2 SEC2        0.0000 
     22 N          -5.5240   38.9480   13.7590 N.am     10 SEL2        0.0000 
     23 N          -4.0110   39.0660   11.2540 N.am      6 SEP2        0.0000 
     24 CA         -7.5500   39.4100   14.5460 C.3       4 GLC5        0.0000 
     25 CA         -5.7560   40.1890   14.3290 C.3      12 GLL5        0.0000 
     26 CA         -9.3440   38.6310   14.7630 C.3       8 GLP5        0.0000 
     27 CA         -5.9940   39.3830   12.3480 C.3       4 GLC5        0.0000 
     28 CA         -4.0280   39.4980   14.0345 C.3       4 GLC5        0.0000 
     29 CA         -2.3000   38.8070   13.7400 C.3       8 GLP5        0.0000 
     30 CA         -4.3340   40.4355   15.8180 C.3       4 GLC5        0.0000 
     31 N          -4.6965   43.2620   26.0910 N.am      2 SEC2        0.0000 
     32 N          -4.5130   41.9030   25.6120 N.am     10 SEL2        0.0000 
     33 N          -4.8800   44.6210   26.5700 N.am      6 SEP2        0.0000 
     34 CA         -2.2030   42.9055   25.6735 C.3       4 GLC5        0.0000 
     35 CA         -1.9630   41.3190   24.5690 C.3      12 GLL5        0.0000 
     36 CA         -2.4430   44.4920   26.7780 C.3       8 GLP5        0.0000 
     37 CA          1.2130   41.6475   23.6640 C.3       4 GLC5        0.0000 
     38 CA         -0.5420   40.8970   24.2980 C.3      12 GLL5        0.0000 
     39 CA          2.9680   42.3980   23.0300 C.3       8 GLP5        0.0000 
     40 CA         -1.1490   38.4810   22.0565 C.3       4 GLC5        0.0000 
     41 CA         -0.5300   39.5240   23.6550 C.3      12 GLL5        0.0000 
     42 CA         -1.7680   37.4380   20.4580 C.3       8 GLP5        0.0000 
     43 N           1.5960   38.6335   22.2960 N.am      2 SEC2        0.0000 
     44 N           0.4450   39.4970   22.6450 N.am     10 SEL2        0.0000 
     45 N           2.7470   37.7700   21.9470 N.am      6 SEP2        0.0000 
     46 O          -0.2250   40.3820   21.7835 O.2       1 ALC1        0.0000 
     47 O           0.4450   39.4970   22.6450 O.2       9 ALL1        0.0000 
     48 O          -0.8950   41.2670   20.9220 O.2       5 ALP1        0.0000 
     49 CA          0.7740   36.6490   25.1945 C.3       4 GLC5        0.0000 
     50 CA         -0.1750   38.6240   24.8240 C.3      12 GLL5        0.0000 
     51 CA          1.7230   34.6740   25.5650 C.3       8 GLP5        0.0000 
     52 O           0.9375   36.6560   25.1930 O.2       1 ALC1        0.0000 
     53 O           0.2910   37.3400   24.4370 O.2       9 ALL1        0.0000 
     54 O           1.5840   35.9720   25.9490 O.2       5 ALP1        0.0000 
     55 CA          1.8715   40.9615   24.3215 C.3       4 GLC5        0.0000 
     56 CA          0.7750   39.5250   25.6130 C.3      12 GLL5        0.0000 
     57 N          -0.5025   39.4360   32.9885 N.am      2 SEC2        0.0000 
     58 N          -0.6230   38.5000   31.6550 N.am     10 SEL2        0.0000 
     59 N          -0.3820   40.3720   34.3220 N.am      6 SEP2        0.0000 
     60 N         -10.6725   38.9030   19.9640 N.am      2 SEC2        0.0000 
     61 N         -10.4410   38.5530   18.4710 N.am     10 SEL2        0.0000 
     62 N         -10.9040   39.2530   21.4570 N.am      6 SEP2        0.0000 
     63 N         -10.3825   40.8010   16.0620 N.am      2 SEC2        0.0000 
     64 N         -11.0860   40.5280   17.1960 N.am     10 SEL2        0.0000 
     65 N          -9.6790   41.0740   14.9280 N.am      6 SEP2        0.0000 
     66 N         -11.7030   40.0670   16.1470 N.am      2 SEC2        0.0000 
     67 N         -12.3200   39.6060   15.0980 N.am      6 SEP2        0.0000 
     68 N         -12.5220   40.7550   17.0330 N.am      2 SEC2        0.0000 
     69 N         -13.9580   40.9820   16.8700 N.am      6 SEP2        0.0000 
     70 NZ        -11.0320   39.9160   20.5690 N.4       3 LYC4        0.0000 
     71 NZ        -11.1600   40.5790   19.6810 N.4      11 LYL4        0.0000 
     72 NZ        -10.5390   39.0470   22.7150 N.4       7 LYP4        0.0000 
     73 N         -10.8670   41.9970   19.9165 N.am      2 SEC2        0.0000 
     74 N         -11.1600   40.5790   19.6810 N.am     10 SEL2        0.0000 
     75 N         -10.5740   43.4150   20.1520 N.am      6 SEP2        0.0000 
     76 N         -11.0320   39.9160   20.5690 N.am      2 SEC2        0.0000 
     77 N         -12.5865   40.7090   19.7260 N.am      2 SEC2        0.0000 
     78 N         -14.0130   40.8390   19.7710 N.am      6 SEP2        0.0000 
     79 CA         -3.9975   38.3245   14.4773 C.3       4 GLC5        0.0000 
     80 CA         -5.8350   37.8920   15.8960 C.3      12 GLL5        0.0000 
     81 CA         -4.4322   39.6005   16.7360 C.3       4 GLC5        0.0000 
     82 CA         -4.0655   36.8535   15.8473 C.3       4 GLC5        0.0000 
     83 CA         -2.4360   35.8650   16.4800 C.3       8 GLP5        0.0000 
     84 CA         -7.6132   38.5625   15.2936 C.3       4 GLC5        0.0000 
     85 CA          1.7200   37.9188   24.0948 C.3       4 GLC5        0.0000 
     86 CA          3.1400   36.7630   22.9710 C.3       8 GLP5        0.0000 
     87 CA         -0.7908   40.8558   28.5813 C.3       4 GLC5        0.0000 
     88 CA         -0.0640   39.1130   27.9280 C.3      12 GLL5        0.0000 
     89 CA         -1.6330   42.7630   28.5650 C.3       8 GLP5        0.0000 
     90 CA          1.6142   40.4227   28.6107 C.3       4 GLC5        0.0000 
     91 CA          3.1770   41.8970   28.6240 C.3       8 GLP5        0.0000 
     92 CA          3.4859   37.8299   27.9479 C.3       4 GLC5        0.0000 
     93 CA          2.5070   38.5520   28.7850 C.3      12 GLL5        0.0000 
     94 CA          4.8530   36.9430   27.5480 C.3       8 GLP5        0.0000 
     95 CA          2.6479   40.3069   28.4859 C.3       4 GLC5        0.0000 
     96 CA         -6.3425   41.8873   19.2518 C.3       4 GLC5        0.0000 
     97 CA         -5.5560   43.4470   18.6030 C.3       8 GLP5        0.0000 
@<TRIPOS>BOND
@<TRIPOS>SUBSTRUCTURE
     1 ALC1        7 GROUP        1 X    ALC  0     ROOT ALC X 1
     2 SEC2       21 GROUP        1 X    SEC  0     **** SEC X 2
     3 LYC4       70 GROUP        1 X    LYC  0     **** LYC X 4
     4 GLC5        1 GROUP        1 X    GLC  0     **** GLC X 6
     5 ALP1        9 GROUP        1 Y    ALP  0     ROOT ALP Y 8
     6 SEP2       23 GROUP        1 Y    SEP  0     **** SEP Y 9
     7 LYP4       72 GROUP        1 Y    LYP  0     **** LYP Y 11
     8 GLP5        3 GROUP        1 Y    GLP  0     **** GLP Y 13
     9 ALL1        8 GROUP        1 Z    ALL  0     ROOT ALL Z 15
    10 SEL2       22 GROUP        1 Z    SEL  0     **** SEL Z 16
    11 LYL4       71 GROUP        1 Z    LYL  0     **** LYL Z 18
    12 GLL5        2 GROUP        1 Z    GLL  0     **** GLL Z 20
@<TRIPOS>SET

