#    Name: 3sj7_NDP_1_ligand
#    Modification time : Mon Mar 24 17:42:32 2014

@<TRIPOS>MOLECULE
3sj7_NDP_1_ligand
   74    78     1     0     0
SMALL
NO_CHARGES


@<TRIPOS>ATOM
      1 PA         -6.4750   39.4530   24.6740 P.3       1 NDP245      0.0000 
      2 O1A        -7.1600   40.3890   25.6030 O.co2     1 NDP245      0.0000 
      3 O2A        -6.9340   38.0460   24.7130 O.co2     1 NDP245      0.0000 
      4 O5B        -6.6560   40.0750   23.2120 O.3       1 NDP245      0.0000 
      5 C5B        -6.1330   39.4730   22.0470 C.3       1 NDP245      0.0000 
      6 C4B        -6.2480   40.5140   20.9320 C.3       1 NDP245      0.0000 
      7 O4B        -5.6410   40.0450   19.7340 O.3       1 NDP245      0.0000 
      8 C3B        -7.7110   40.7770   20.6150 C.3       1 NDP245      0.0000 
      9 O3B        -7.8800   42.1470   20.2910 O.3       1 NDP245      0.0000 
     10 C2B        -7.9580   39.9750   19.3620 C.3       1 NDP245      0.0000 
     11 O2B        -8.9340   40.6360   18.5830 O.3       1 NDP245      0.0000 
     12 C1B        -6.5990   40.0440   18.6930 C.3       1 NDP245      0.0000 
     13 N9A        -6.3200   38.9500   17.7670 N.pl3     1 NDP245      0.0000 
     14 C8A        -6.2380   37.6040   18.0490 C.2       1 NDP245      0.0000 
     15 N7A        -5.9290   36.9610   16.8910 N.2       1 NDP245      0.0000 
     16 C5A        -5.8350   37.8920   15.8960 C.ar      1 NDP245      0.0000 
     17 C6A        -5.5550   37.7920   14.5330 C.ar      1 NDP245      0.0000 
     18 N6A        -5.3060   36.5770   14.0010 N.pl3     1 NDP245      0.0000 
     19 N1A        -5.5240   38.9480   13.7590 N.ar      1 NDP245      0.0000 
     20 C2A        -5.7560   40.1890   14.3290 C.ar      1 NDP245      0.0000 
     21 N3A        -6.0200   40.2660   15.6700 N.ar      1 NDP245      0.0000 
     22 C4A        -6.0700   39.1460   16.4340 C.ar      1 NDP245      0.0000 
     23 O3         -4.9130   39.4750   25.0240 O.3       1 NDP245      0.0000 
     24 PN         -4.0840   40.5130   25.9220 P.3       1 NDP245      0.0000 
     25 O1N        -4.5130   41.9030   25.6120 O.co2     1 NDP245      0.0000 
     26 O2N        -4.0230   40.0430   27.3430 O.co2     1 NDP245      0.0000 
     27 O5D        -2.6220   40.2760   25.2610 O.3       1 NDP245      0.0000 
     28 C5D        -1.9630   41.3190   24.5690 C.3       1 NDP245      0.0000 
     29 C4D        -0.5420   40.8970   24.2980 C.3       1 NDP245      0.0000 
     30 O4D         0.1400   40.7910   25.5310 O.3       1 NDP245      0.0000 
     31 C3D        -0.5300   39.5240   23.6550 C.3       1 NDP245      0.0000 
     32 O3D         0.4450   39.4970   22.6450 O.3       1 NDP245      0.0000 
     33 C2D        -0.1750   38.6240   24.8240 C.3       1 NDP245      0.0000 
     34 O2D         0.2910   37.3400   24.4370 O.3       1 NDP245      0.0000 
     35 C1D         0.7750   39.5250   25.6130 C.3       1 NDP245      0.0000 
     36 N1N         0.9790   39.1680   27.0340 N.pl3     1 NDP245      0.0000 
     37 C2N        -0.0640   39.1130   27.9280 C.2       1 NDP245      0.0000 
     38 C3N         0.1670   38.7840   29.2670 C.2       1 NDP245      0.0000 
     39 C7N        -0.9550   38.8030   30.2870 C.2       1 NDP245      0.0000 
     40 O7N        -0.6230   38.5000   31.6550 O.2       1 NDP245      0.0000 
     41 N7N        -2.2050   39.0850   29.8680 N.am      1 NDP245      0.0000 
     42 C4N         1.4640   38.4970   29.6900 C.3       1 NDP245      0.0000 
     43 C5N         2.5070   38.5520   28.7850 C.2       1 NDP245      0.0000 
     44 C6N         2.2520   38.9090   27.4580 C.2       1 NDP245      0.0000 
     45 P2B       -10.4520   40.0580   18.4800 P.3       1 NDP245      0.0000 
     46 O1X       -10.4410   38.5530   18.4710 O.co2     1 NDP245      0.0000 
     47 O2X       -11.0860   40.5280   17.1960 O.co2     1 NDP245      0.0000 
     48 O3X       -11.1600   40.5790   19.6810 O.co2     1 NDP245      0.0000 
     49 H          -6.6969   38.5979   21.7417 H         1 NDP245      0.0000 
     50 H          -5.0850   39.2114   22.1483 H         1 NDP245      0.0000 
     51 H          -5.8070   41.4318   21.2657 H         1 NDP245      0.0000 
     52 H          -8.3099   40.4312   21.3832 H         1 NDP245      0.0000 
     53 H          -8.1726   38.9937   19.6168 H         1 NDP245      0.0000 
     54 H          -6.5490   41.0012   18.1618 H         1 NDP245      0.0000 
     55 H          -6.3747   37.2061   18.9034 H         1 NDP245      0.0000 
     56 H          -5.3203   35.8064   14.6381 H         1 NDP245      0.0000 
     57 H          -5.1293   36.5553   13.0170 H         1 NDP245      0.0000 
     58 H          -5.7287   41.0344   13.7477 H         1 NDP245      0.0000 
     59 H          -1.9383   42.2454   25.1536 H         1 NDP245      0.0000 
     60 H          -2.4426   41.5390   23.6088 H         1 NDP245      0.0000 
     61 H          -0.0808   41.5917   23.6420 H         1 NDP245      0.0000 
     62 H          -1.5087   39.3016   23.3368 H         1 NDP245      0.0000 
     63 H          -1.1021   38.5711   25.4306 H         1 NDP245      0.0000 
     64 H           1.7117   39.5592   25.0814 H         1 NDP245      0.0000 
     65 H          -1.0286   39.3144   27.6184 H         1 NDP245      0.0000 
     66 H          -2.3071   39.2897   28.8945 H         1 NDP245      0.0000 
     67 H          -2.9189   39.0643   30.5680 H         1 NDP245      0.0000 
     68 H           1.4642   37.4602   30.2064 H         1 NDP245      0.0000 
     69 H           1.7146   39.1700   30.5988 H         1 NDP245      0.0000 
     70 H           3.4654   38.3333   29.0786 H         1 NDP245      0.0000 
     71 H           3.0486   38.9745   26.7970 H         1 NDP245      0.0000 
     72 H          -8.8662   42.3048   20.3405 H         1 NDP245      0.0000 
     73 H           0.0875   40.0910   21.9244 H         1 NDP245      0.0000 
     74 H           1.1261   37.1970   24.9682 H         1 NDP245      0.0000 
@<TRIPOS>BOND
     1    2    1 ar   
     2    3    1 ar   
     3    4    1 1    
     4   23    1 1    
     5    5    4 1    
     6    6    5 1    
     7   49    5 1    
     8   50    5 1    
     9    7    6 1    
    10    8    6 1    
    11   51    6 1    
    12   12    7 1    
    13    9    8 1    
    14   10    8 1    
    15   52    8 1    
    16   72    9 1    
    17   11   10 1    
    18   12   10 1    
    19   53   10 1    
    20   45   11 1    
    21   13   12 1    
    22   54   12 1    
    23   14   13 1    
    24   22   13 1    
    25   15   14 2    
    26   55   14 1    
    27   16   15 1    
    28   17   16 ar   
    29   22   16 ar   
    30   18   17 1    
    31   19   17 ar   
    32   56   18 1    
    33   57   18 1    
    34   20   19 ar   
    35   21   20 ar   
    36   58   20 1    
    37   22   21 ar   
    38   24   23 1    
    39   25   24 ar   
    40   26   24 ar   
    41   27   24 1    
    42   28   27 1    
    43   29   28 1    
    44   59   28 1    
    45   60   28 1    
    46   30   29 1    
    47   31   29 1    
    48   61   29 1    
    49   35   30 1    
    50   32   31 1    
    51   33   31 1    
    52   62   31 1    
    53   73   32 1    
    54   34   33 1    
    55   35   33 1    
    56   63   33 1    
    57   74   34 1    
    58   36   35 1    
    59   64   35 1    
    60   37   36 1    
    61   44   36 1    
    62   38   37 2    
    63   65   37 1    
    64   39   38 1    
    65   42   38 1    
    66   40   39 2    
    67   41   39 am   
    68   66   41 1    
    69   67   41 1    
    70   43   42 1    
    71   68   42 1    
    72   69   42 1    
    73   44   43 2    
    74   70   43 1    
    75   71   44 1    
    76   46   45 ar   
    77   47   45 ar   
    78   48   45 ar   
@<TRIPOS>SUBSTRUCTURE
     1 NDP245      1 GROUP   
@<TRIPOS>SET

