#    Name: 2x7f_824_4_INTS_M
#    Modification time : Tue Mar 25 05:16:23 2014

@<TRIPOS>MOLECULE
2x7f_824_4_INTS_M
   45     0     9     0     0
SMALL
NO_CHARGES


@<TRIPOS>ATOM
      1 O         -11.2620  -15.5150   30.0070 O.2       1 ALC1        0.0000 
      2 O         -10.6640  -14.6430   30.8050 O.2       7 ALL1        0.0000 
      3 O         -11.8600  -16.3870   29.2090 O.2       4 ALP1        0.0000 
      4 CA         -9.9930  -17.4715   29.0495 C.3       3 GLC5        0.0000 
      5 CA         -8.6770  -16.0190   29.9880 C.3       9 GLL5        0.0000 
      6 CA        -11.3090  -18.9240   28.1110 C.3       6 GLP5        0.0000 
      7 CA         -8.5240  -17.8425   30.2475 C.3       3 GLC5        0.0000 
      8 CA         -8.3710  -19.6660   30.5070 C.3       6 GLP5        0.0000 
      9 N          -9.3980  -17.4625   26.9390 N.am      2 SEC2        0.0000 
     10 N          -7.9940  -17.6670   27.5180 N.am      8 SEL2        0.0000 
     11 N         -10.8020  -17.2580   26.3600 N.am      5 SEP2        0.0000 
     12 O          -7.1715  -18.8995   25.5870 O.2       1 ALC1        0.0000 
     13 O          -6.4080  -18.9220   26.7550 O.2       7 ALL1        0.0000 
     14 O          -7.9350  -18.8770   24.4190 O.2       4 ALP1        0.0000 
     15 CA         -2.7655  -16.4610   30.5095 C.3       3 GLC5        0.0000 
     16 CA         -4.0130  -17.7510   30.6860 C.3       9 GLL5        0.0000 
     17 CA         -1.5180  -15.1710   30.3330 C.3       6 GLP5        0.0000 
     18 CA        -10.7145  -15.7215   32.3945 C.3       3 GLC5        0.0000 
     19 CA         -9.3850  -15.1320   31.0210 C.3       9 GLL5        0.0000 
     20 CA        -12.2870  -16.5180   33.1750 C.3       6 GLP5        0.0000 
     21 CA         -4.6045  -15.8090   29.6747 C.3       3 GLC5        0.0000 
     22 CA         -6.2410  -17.1590   29.8890 C.3       9 GLL5        0.0000 
     23 CA         -3.4930  -14.4930   28.9530 C.3       6 GLP5        0.0000 
     24 CA         -5.5953  -16.9155   27.0565 C.3       3 GLC5        0.0000 
     25 CA         -6.1530  -17.8700   28.7080 C.3       9 GLL5        0.0000 
     26 CA         -5.6540  -15.5840   25.5280 C.3       6 GLP5        0.0000 
     27 CA         -6.9538  -18.9565   29.5460 C.3       3 GLC5        0.0000 
     28 CA         -5.8818  -20.1995   28.8725 C.3       3 GLC5        0.0000 
     29 CA         -6.2270  -22.1520   29.1600 C.3       6 GLP5        0.0000 
     30 CA         -4.0901  -16.4455   28.9905 C.3       3 GLC5        0.0000 
     31 CA         -1.8948  -17.0817   29.5442 C.3       3 GLC5        0.0000 
     32 CA         -2.5760  -19.1480   29.4150 C.3       9 GLL5        0.0000 
     33 CA         -3.8282  -20.9831   29.9887 C.3       3 GLC5        0.0000 
     34 CA         -3.8380  -18.5490   29.4710 C.3       9 GLL5        0.0000 
     35 CA         -5.1140  -22.5790   30.1020 C.3       6 GLP5        0.0000 
     36 CA         -1.1655  -22.0865   30.6015 C.3       3 GLC5        0.0000 
     37 CA         -1.8780  -19.9260   30.3080 C.3       9 GLL5        0.0000 
     38 CA         -1.0890  -24.0010   31.0660 C.3       6 GLP5        0.0000 
     39 CA         -0.2453  -17.3867   27.7330 C.3       3 GLC5        0.0000 
     40 CA         -0.6580  -19.3420   27.7540 C.3       9 GLL5        0.0000 
     41 CA          0.8220  -15.6840   27.5410 C.3       6 GLP5        0.0000 
     42 CA         -1.9123  -19.4252   25.8740 C.3       3 GLC5        0.0000 
     43 CA         -2.5120  -19.7610   23.8230 C.3       6 GLP5        0.0000 
     44 CA         -7.3680  -18.1499   30.6361 C.3       3 GLC5        0.0000 
     45 CA         -5.1910  -17.0910   30.9040 C.3       9 GLL5        0.0000 
@<TRIPOS>BOND
@<TRIPOS>SUBSTRUCTURE
     1 ALC1        1 GROUP        1 X    ALC  0     ROOT ALC X 1
     2 SEC2        9 GROUP        1 X    SEC  0     **** SEC X 2
     3 GLC5        4 GROUP        1 X    GLC  0     **** GLC X 6
     4 ALP1        3 GROUP        1 Y    ALP  0     ROOT ALP Y 8
     5 SEP2       11 GROUP        1 Y    SEP  0     **** SEP Y 9
     6 GLP5        6 GROUP        1 Y    GLP  0     **** GLP Y 13
     7 ALL1        2 GROUP        1 Z    ALL  0     ROOT ALL Z 15
     8 SEL2       10 GROUP        1 Z    SEL  0     **** SEL Z 16
     9 GLL5        5 GROUP        1 Z    GLL  0     **** GLL Z 20
@<TRIPOS>SET

