#    Name: 2x7f_824_4_ligand
#    Modification time : Tue Mar 25 05:16:23 2014

@<TRIPOS>MOLECULE
2x7f_824_4_ligand
   37    41     1     0     0
SMALL
NO_CHARGES


@<TRIPOS>ATOM
      1 O3        -10.6640  -14.6430   30.8050 O.3       1 824500      0.0000 
      2 C19        -9.3850  -15.1320   31.0210 C.ar      1 824500      0.0000 
      3 C20        -8.8990  -14.7180   32.2070 C.ar      1 824500      0.0000 
      4 C18        -7.6010  -15.0770   32.6330 C.ar      1 824500      0.0000 
      5 C16        -6.7330  -15.9030   31.8170 C.ar      1 824500      0.0000 
      6 C15        -7.2950  -16.3820   30.4510 C.ar      1 824500      0.0000 
      7 C17        -8.6770  -16.0190   29.9880 C.ar      1 824500      0.0000 
      8 C13        -6.2410  -17.1590   29.8890 C.ar      1 824500      0.0000 
      9 C14        -5.1910  -17.0910   30.9040 C.ar      1 824500      0.0000 
     10 N2         -5.5050  -16.3620   31.9660 N.pl3     1 824500      0.0000 
     11 C4         -6.1530  -17.8700   28.7080 C.ar      1 824500      0.0000 
     12 C5         -6.9680  -18.0940   27.6720 C.2       1 824500      0.0000 
     13 O1         -7.9940  -17.6670   27.5180 O.2       1 824500      0.0000 
     14 C3         -4.9200  -18.6240   28.4620 C.ar      1 824500      0.0000 
     15 C6         -5.1730  -19.2110   27.2790 C.2       1 824500      0.0000 
     16 O2         -4.4880  -19.9350   26.7240 O.2       1 824500      0.0000 
     17 N1         -6.4080  -18.9220   26.7550 N.am      1 824500      0.0000 
     18 C2         -3.8380  -18.5490   29.4710 C.ar      1 824500      0.0000 
     19 C1         -4.0130  -17.7510   30.6860 C.ar      1 824500      0.0000 
     20 C7         -2.5760  -19.1480   29.4150 C.ar      1 824500      0.0000 
     21 C8         -1.8780  -19.9260   30.3080 C.ar      1 824500      0.0000 
     22 C9         -0.6060  -20.4180   29.9660 C.ar      1 824500      0.0000 
     23 C10        -0.0090  -20.1370   28.7450 C.ar      1 824500      0.0000 
     24 C11        -0.6580  -19.3420   27.7540 C.ar      1 824500      0.0000 
     25 C12        -1.9670  -18.8370   28.0960 C.ar      1 824500      0.0000 
     26 H          -9.4685  -14.1212   32.8423 H         1 824500      0.0000 
     27 H          -7.2486  -14.7525   33.5415 H         1 824500      0.0000 
     28 H          -9.0615  -16.2831   29.1976 H         1 824500      0.0000 
     29 H          -4.9200  -16.1943   32.7318 H         1 824500      0.0000 
     30 H          -6.7694  -19.2290   25.9529 H         1 824500      0.0000 
     31 H          -3.2329  -17.7144   31.3419 H         1 824500      0.0000 
     32 H          -2.2736  -20.1558   31.2287 H         1 824500      0.0000 
     33 H          -0.1015  -21.0121   30.6568 H         1 824500      0.0000 
     34 H           0.9349  -20.5076   28.5313 H         1 824500      0.0000 
     35 H          -0.2428  -19.1435   26.8812 H         1 824500      0.0000 
     36 H          -2.4863  -18.2672   27.4468 H         1 824500      0.0000 
     37 H         -11.2315  -15.4548   30.6677 H         1 824500      0.0000 
@<TRIPOS>BOND
     1    2    1 1    
     2   37    1 1    
     3    3    2 ar   
     4    7    2 ar   
     5    4    3 ar   
     6   26    3 1    
     7    5    4 ar   
     8   27    4 1    
     9    6    5 ar   
    10   10    5 1    
    11    7    6 ar   
    12    8    6 1    
    13   28    7 1    
    14    9    8 ar   
    15   11    8 ar   
    16   10    9 1    
    17   19    9 ar   
    18   29   10 1    
    19   12   11 1    
    20   14   11 ar   
    21   13   12 2    
    22   17   12 am   
    23   15   14 1    
    24   18   14 ar   
    25   16   15 2    
    26   17   15 am   
    27   30   17 1    
    28   19   18 ar   
    29   20   18 1    
    30   31   19 1    
    31   21   20 ar   
    32   25   20 ar   
    33   22   21 ar   
    34   32   21 1    
    35   23   22 ar   
    36   33   22 1    
    37   24   23 ar   
    38   34   23 1    
    39   25   24 ar   
    40   35   24 1    
    41   36   25 1    
@<TRIPOS>SUBSTRUCTURE
     1 824500      1 GROUP   
@<TRIPOS>SET

