#    Name: 3tam_M06_1_INTS_M
#    Modification time : Mon Mar 24 19:27:15 2014

@<TRIPOS>MOLECULE
3tam_M06_1_INTS_M
   86     0     6     0     0
SMALL
NO_CHARGES


@<TRIPOS>ATOM
      1 CA         10.7205   17.6805   20.4900 C.3       2 GLC5        0.0000 
      2 CA         10.2250   15.8730   20.5460 C.3       6 GLL5        0.0000 
      3 CA         11.2160   19.4880   20.4340 C.3       4 GLP5        0.0000 
      4 CA          9.9090   16.0705   18.4980 C.3       2 GLC5        0.0000 
      5 CA          9.5930   16.2680   16.4500 C.3       4 GLP5        0.0000 
      6 CA         11.8380   14.7335   20.9750 C.3       2 GLC5        0.0000 
      7 CA         13.4510   13.5940   21.4040 C.3       4 GLP5        0.0000 
      8 CA          9.8360   16.7495   22.1370 C.3       2 GLC5        0.0000 
      9 CA          9.4470   17.6260   23.7280 C.3       4 GLP5        0.0000 
     10 CA         12.2430   13.0925   13.4785 C.3       2 GLC5        0.0000 
     11 CA         10.3260   12.7320   14.5600 C.3       6 GLL5        0.0000 
     12 CA         14.1600   13.4530   12.3970 C.3       4 GLP5        0.0000 
     13 CA          8.2380   14.6200   14.7625 C.3       2 GLC5        0.0000 
     14 CA          8.9730   12.7600   14.3940 C.3       6 GLL5        0.0000 
     15 CA          7.5030   16.4800   15.1310 C.3       4 GLP5        0.0000 
     16 CA          9.7805   10.0650   16.5450 C.3       2 GLC5        0.0000 
     17 CA         10.0440   11.9130   16.8010 C.3       6 GLL5        0.0000 
     18 CA          9.5170    8.2170   16.2890 C.3       4 GLP5        0.0000 
     19 CA         11.4530   10.2580   15.5100 C.3       2 GLC5        0.0000 
     20 CA         12.3960   12.2560   15.8910 C.3       6 GLL5        0.0000 
     21 CA         10.5100    8.2600   15.1290 C.3       4 GLP5        0.0000 
     22 CA         13.2780   12.8545   14.1440 C.3       2 GLC5        0.0000 
     23 CA         13.0580   14.0055   16.1595 C.3       2 GLC5        0.0000 
     24 CA         13.7200   15.7550   16.4280 C.3       4 GLP5        0.0000 
     25 CA         13.0785   12.1150   17.6945 C.3       2 GLC5        0.0000 
     26 CA         13.7610   11.9740   19.4980 C.3       4 GLP5        0.0000 
     27 CA         14.1090   10.9140   15.8885 C.3       2 GLC5        0.0000 
     28 CA         15.8220    9.5720   15.8860 C.3       4 GLP5        0.0000 
     29 CA         12.9630   11.0035   14.3900 C.3       2 GLC5        0.0000 
     30 CA         13.5300    9.7510   12.8890 C.3       4 GLP5        0.0000 
     31 CA          8.8040   14.8805   18.9625 C.3       2 GLC5        0.0000 
     32 CA         10.1850   14.1810   20.4870 C.3       6 GLL5        0.0000 
     33 CA          7.4230   15.5800   17.4380 C.3       4 GLP5        0.0000 
     34 CA          9.9975   14.9255   17.8380 C.3       2 GLC5        0.0000 
     35 CA         10.4020   13.5830   19.2260 C.3       6 GLL5        0.0000 
     36 CA          8.1905   10.0405   14.1885 C.3       2 GLC5        0.0000 
     37 CA          6.4720   11.0820   14.4480 C.3       6 GLL5        0.0000 
     38 CA          9.9090    8.9990   13.9290 C.3       4 GLP5        0.0000 
     39 CA          4.8035   11.8580   14.3925 C.3       2 GLC5        0.0000 
     40 CA          3.1350   12.6340   14.3370 C.3       4 GLP5        0.0000 
     41 N           7.0710   10.3660   11.6965 N.am      1 SEC2        0.0000 
     42 N           6.5790    9.4780   13.0210 N.am      5 SEL2        0.0000 
     43 N           7.5630   11.2540   10.3720 N.am      3 SEP2        0.0000 
     44 CA          5.7090    5.7455   16.7790 C.3       2 GLC5        0.0000 
     45 CA          5.6820    7.2510   15.7350 C.3       6 GLL5        0.0000 
     46 CA          5.7360    4.2400   17.8230 C.3       4 GLP5        0.0000 
     47 CA          4.9965    6.3840   17.6200 C.3       2 GLC5        0.0000 
     48 CA          5.5270    8.1440   16.8230 C.3       6 GLL5        0.0000 
     49 CA          4.4660    4.6240   18.4170 C.3       4 GLP5        0.0000 
     50 CA          3.4545    8.5255   17.2985 C.3       2 GLC5        0.0000 
     51 CA          1.3820    8.9070   17.7740 C.3       4 GLP5        0.0000 
     52 CA          5.2380   10.5875   18.2715 C.3       2 GLC5        0.0000 
     53 CA          5.7690    9.5060   16.5260 C.3       6 GLL5        0.0000 
     54 CA          4.7070   11.6690   20.0170 C.3       4 GLP5        0.0000 
     55 CA          7.0190   14.0295   16.2310 C.3       2 GLC5        0.0000 
     56 CA          6.6150   12.4790   15.0240 C.3       6 GLL5        0.0000 
     57 CA          5.0450   12.8095   15.3015 C.3       2 GLC5        0.0000 
     58 CA          3.4750   13.1400   15.5790 C.3       4 GLP5        0.0000 
     59 CA         11.5360   11.3455   22.9330 C.3       2 GLC5        0.0000 
     60 CA          9.6830   11.1460   22.6000 C.3       6 GLL5        0.0000 
     61 CA         13.3890   11.5450   23.2660 C.3       4 GLP5        0.0000 
     62 CA          8.1805    9.9765   22.5365 C.3       2 GLC5        0.0000 
     63 CA          6.6780    8.8070   22.4730 C.3       4 GLP5        0.0000 
     64 CA          9.7492   11.5990   12.6340 C.3       2 GLC5        0.0000 
     65 CA          9.8490   10.4520   10.7910 C.3       4 GLP5        0.0000 
     66 CA          9.8500   10.8153   14.3590 C.3       2 GLC5        0.0000 
     67 CA          9.9597   14.2380   16.2212 C.3       2 GLC5        0.0000 
     68 CA         10.8920   12.2740   15.8080 C.3       6 GLL5        0.0000 
     69 CA          8.4180   12.3015   20.4190 C.3       2 GLC5        0.0000 
     70 CA         10.3600   12.1910   19.1510 C.3       6 GLL5        0.0000 
     71 CA          6.6040   12.8230   21.1340 C.3       4 GLP5        0.0000 
     72 CA         11.9175   11.9247   20.0505 C.3       2 GLC5        0.0000 
     73 CA          9.9160   11.9710   21.5020 C.3       6 GLL5        0.0000 
     74 CA         12.0272   12.9280   19.6773 C.3       2 GLC5        0.0000 
     75 CA          8.4488   13.3525   20.4952 C.3       2 GLC5        0.0000 
     76 CA          7.7335    8.9575   16.0695 C.3       2 GLC5        0.0000 
     77 CA          4.2260    8.7640   15.0480 C.3       2 GLC5        0.0000 
     78 CA          6.1310    9.8900   15.1740 C.3       6 GLL5        0.0000 
     79 CA          2.5020    7.8300   14.2460 C.3       4 GLP5        0.0000 
     80 CA          7.5608    7.9573   16.2840 C.3       2 GLC5        0.0000 
     81 CA          4.0533    7.7637   15.2625 C.3       2 GLC5        0.0000 
     82 CA         10.6537    9.6870   21.5669 C.3       2 GLC5        0.0000 
     83 CA         11.4610    7.9660   21.3940 C.3       4 GLP5        0.0000 
     84 CA          8.7030   12.3425   23.5969 C.3       2 GLC5        0.0000 
     85 CA          7.5990   12.7680   25.1020 C.3       4 GLP5        0.0000 
     86 CA          8.2055   12.3700   21.6129 C.3       2 GLC5        0.0000 
@<TRIPOS>BOND
@<TRIPOS>SUBSTRUCTURE
     1 SEC2       41 GROUP        1 X    SEC  0     ROOT SEC X 2
     2 GLC5        1 GROUP        1 X    GLC  0     **** GLC X 6
     3 SEP2       43 GROUP        1 Y    SEP  0     ROOT SEP Y 9
     4 GLP5        3 GROUP        1 Y    GLP  0     **** GLP Y 13
     5 SEL2       42 GROUP        1 Z    SEL  0     ROOT SEL Z 16
     6 GLL5        2 GROUP        1 Z    GLL  0     **** GLL Z 20
@<TRIPOS>SET

