#    Name: 3tam_M06_1_ligand
#    Modification time : Mon Mar 24 19:27:15 2014

@<TRIPOS>MOLECULE
3tam_M06_1_ligand
   42    45     1     0     0
SMALL
NO_CHARGES


@<TRIPOS>ATOM
      1 C          10.8920   12.2740   15.8080 C.2       1 M06561      0.0000 
      2 N           8.0650   12.4240   15.3740 N.am      1 M06561      0.0000 
      3 O          10.6010   11.5280   17.9940 O.3       1 M06561      0.0000 
      4 CL         10.2250   15.8730   20.5460 Cl        1 M06561      0.0000 
      5 C1         10.3260   12.7320   14.5600 C.2       1 M06561      0.0000 
      6 C2          8.9730   12.7600   14.3940 C.2       1 M06561      0.0000 
      7 C3          8.5070   11.9540   16.6470 C.2       1 M06561      0.0000 
      8 C4         10.0440   11.9130   16.8010 C.2       1 M06561      0.0000 
      9 C5         10.3600   12.1910   19.1510 C.ar      1 M06561      0.0000 
     10 C6         12.3960   12.2560   15.8910 C.3       1 M06561      0.0000 
     11 C7         10.1040   11.3690   20.2570 C.ar      1 M06561      0.0000 
     12 C8          9.9160   11.9710   21.5020 C.ar      1 M06561      0.0000 
     13 C9          9.9460   13.4050   21.6650 C.ar      1 M06561      0.0000 
     14 C10        10.1850   14.1810   20.4870 C.ar      1 M06561      0.0000 
     15 C11        10.4020   13.5830   19.2260 C.ar      1 M06561      0.0000 
     16 O12         7.7480   11.5940   17.5800 O.2       1 M06561      0.0000 
     17 C13         6.4720   11.0820   14.4480 C.2       1 M06561      0.0000 
     18 N14         6.7570   10.8120   13.1260 N.pl3     1 M06561      0.0000 
     19 N15         6.5790    9.4780   13.0210 N.2       1 M06561      0.0000 
     20 C16         6.2210    8.8770   14.1930 C.ar      1 M06561      0.0000 
     21 C17         6.1310    9.8900   15.1740 C.ar      1 M06561      0.0000 
     22 N18         5.9940    7.5660   14.4010 N.ar      1 M06561      0.0000 
     23 C19         5.6820    7.2510   15.7350 C.ar      1 M06561      0.0000 
     24 C20         5.5270    8.1440   16.8230 C.ar      1 M06561      0.0000 
     25 C21         5.7690    9.5060   16.5260 C.ar      1 M06561      0.0000 
     26 C22         6.6150   12.4790   15.0240 C.3       1 M06561      0.0000 
     27 C23         9.6830   11.1460   22.6000 C.1       1 M06561      0.0000 
     28 N24         9.4950   10.4750   23.4920 N.1       1 M06561      0.0000 
     29 H          10.9719   13.0282   13.8219 H         1 M06561      0.0000 
     30 H           8.5878   13.0601   13.4482 H         1 M06561      0.0000 
     31 H          10.0570   10.3612   20.1522 H         1 M06561      0.0000 
     32 H           9.8075   13.8245   22.5499 H         1 M06561      0.0000 
     33 H          10.5807   14.1508   18.4121 H         1 M06561      0.0000 
     34 H           7.0121   11.4228   12.4707 H         1 M06561      0.0000 
     35 H           5.5435    6.2064   15.9604 H         1 M06561      0.0000 
     36 H           5.2684    7.8374   17.7245 H         1 M06561      0.0000 
     37 H           5.6945   10.2188   17.2389 H         1 M06561      0.0000 
     38 H           6.4396   13.1894   14.2769 H         1 M06561      0.0000 
     39 H           6.0279   12.5686   15.8848 H         1 M06561      0.0000 
     40 H          12.7993   11.6623   15.1946 H         1 M06561      0.0000 
     41 H          12.7861   13.1675   15.7607 H         1 M06561      0.0000 
     42 H          12.7150   11.9248   16.7790 H         1 M06561      0.0000 
@<TRIPOS>BOND
     1    5    1 1    
     2    8    1 2    
     3   10    1 1    
     4    6    2 1    
     5    7    2 am   
     6   26    2 1    
     7    8    3 1    
     8    9    3 1    
     9   14    4 1    
    10    6    5 2    
    11   29    5 1    
    12   30    6 1    
    13    8    7 1    
    14   16    7 2    
    15   11    9 ar   
    16   15    9 ar   
    17   40   10 1    
    18   41   10 1    
    19   42   10 1    
    20   12   11 ar   
    21   31   11 1    
    22   13   12 ar   
    23   27   12 1    
    24   14   13 ar   
    25   32   13 1    
    26   15   14 ar   
    27   33   15 1    
    28   18   17 1    
    29   21   17 2    
    30   26   17 1    
    31   19   18 1    
    32   34   18 1    
    33   20   19 2    
    34   21   20 ar   
    35   22   20 ar   
    36   25   21 ar   
    37   23   22 ar   
    38   24   23 ar   
    39   35   23 1    
    40   25   24 ar   
    41   36   24 1    
    42   37   25 1    
    43   38   26 1    
    44   39   26 1    
    45   28   27 3    
@<TRIPOS>SUBSTRUCTURE
     1 M06561      1 GROUP   
@<TRIPOS>SET

