#    Name: 3EPW_2_CAVITY_N1_ALL.mol2
#    Modification time : Mon Mar 10 13:54:22 2014

@<TRIPOS>MOLECULE
3EPW_2_CAVITY_N1_ALL.mol2
   76     0     5     0     0
SMALL
NO_CHARGES


@<TRIPOS>ATOM
      1 CZ         12.7780   12.7282   65.3282 C.ar      3 PHE5        0.0000 
      2 O          11.3534   13.1097   65.6018 O.2       1 ALA2        0.0000 
      3 CZ         12.3186   11.7753   64.2647 C.ar      3 PHE5        0.0000 
      4 CZ         10.8939   12.1568   64.5383 C.ar      3 PHE5        0.0000 
      5 CZ         13.2838   10.4410   62.9276 C.ar      3 PHE5        0.0000 
      6 CZ         11.8591   10.8225   63.2012 C.ar      3 PHE5        0.0000 
      7 N          12.8243    9.4881   61.8641 N.2       1 ALA2        0.0000 
      8 CA         15.9636   12.0067   58.2513 C.3       4 GLY6        0.0000 
      9 O          14.5389   12.3882   58.5250 O.2       1 ALA2        0.0000 
     10 CA         15.5041   11.0538   57.1878 C.3       4 GLY6        0.0000 
     11 CA         14.0795   11.4353   57.4615 C.3       4 GLY6        0.0000 
     12 N          16.4693    9.7195   55.8507 N.2       1 ALA2        0.0000 
     13 DU         15.0447   10.1010   56.1244 H         5 CUB7        0.0000 
     14 CA         13.6201   10.4825   56.3980 C.3       4 GLY6        0.0000 
     15 N          16.0099    8.7666   54.7872 N.2       1 ALA2        0.0000 
     16 N          14.5853    9.1481   55.0609 N.2       1 ALA2        0.0000 
     17 N          13.1606    9.5296   55.3345 N.2       1 ALA2        0.0000 
     18 CA         16.0602   13.1005   57.2295 C.3       4 GLY6        0.0000 
     19 O          14.6356   13.4820   57.5031 O.2       1 ALA2        0.0000 
     20 CA         15.6008   12.1477   56.1660 C.3       4 GLY6        0.0000 
     21 O          14.1762   12.5292   56.4397 O.2       1 ALA2        0.0000 
     22 DU         15.1413   11.1948   55.1025 H         5 CUB7        0.0000 
     23 CA         13.7167   11.5763   55.3762 C.3       4 GLY6        0.0000 
     24 CA         12.2921   11.9579   55.6498 C.3       4 GLY6        0.0000 
     25 DU         14.6819   10.2420   54.0390 H         5 CUB7        0.0000 
     26 CA         13.2573   10.6235   54.3127 C.3       4 GLY6        0.0000 
     27 N          14.0292    7.1014   55.0192 N.2       1 ALA2        0.0000 
     28 CZ         13.8398   12.4877   62.9692 C.ar      3 PHE5        0.0000 
     29 CZ         12.4152   12.8692   63.2429 C.ar      3 PHE5        0.0000 
     30 CZ         14.8050   11.1533   61.6321 C.ar      3 PHE5        0.0000 
     31 CZ         13.3804   11.5348   61.9057 C.ar      3 PHE5        0.0000 
     32 CZ         15.7702    9.8190   60.2950 C.ar      3 PHE5        0.0000 
     33 CZ         14.3456   10.2005   60.5686 C.ar      3 PHE5        0.0000 
     34 CA         12.9210   10.5820   60.8422 C.3       4 GLY6        0.0000 
     35 CA         16.7354    8.4846   58.9578 C.3       4 GLY6        0.0000 
     36 CA         15.3108    8.8661   59.2315 C.3       4 GLY6        0.0000 
     37 CA         13.8862    9.2476   59.5051 C.3       4 GLY6        0.0000 
     38 CA         16.2760    7.5318   57.8944 C.3       4 GLY6        0.0000 
     39 CA         14.8289   15.6698   55.4595 C.3       4 GLY6        0.0000 
     40 N          14.1258    8.1953   53.9974 N.2       1 ALA2        0.0000 
     41 O          14.9017   12.2472   60.6103 O.2       1 ALA2        0.0000 
     42 CZ         13.4771   12.6287   60.8839 C.ar      3 PHE5        0.0000 
     43 CA         15.8669   10.9128   59.2731 C.3       4 GLY6        0.0000 
     44 CA         14.4423   11.2943   59.5468 C.3       4 GLY6        0.0000 
     45 N          16.8321    9.5785   57.9360 N.2       1 ALA2        0.0000 
     46 CA         15.4075    9.9600   58.2097 C.3       4 GLY6        0.0000 
     47 CA         13.9828   10.3415   58.4833 C.3       4 GLY6        0.0000 
     48 N          16.3727    8.6256   56.8725 N.2       1 ALA2        0.0000 
     49 CA         14.9480    9.0071   57.1462 C.3       4 GLY6        0.0000 
     50 CA         13.5234    9.3886   57.4198 C.3       4 GLY6        0.0000 
     51 N          17.3379    7.2913   55.5354 N.2       1 ALA2        0.0000 
     52 CA         15.9132    7.6728   55.8091 C.3       4 GLY6        0.0000 
     53 CA         14.4886    8.0543   56.0827 C.3       4 GLY6        0.0000 
     54 CA         15.4538    6.7199   54.7456 C.3       4 GLY6        0.0000 
     55 N          11.0634    9.8281   68.6673 N.2       1 ALA2        0.0000 
     56 NZ         12.0286    8.4937   67.3301 N.2       2 LYS4        0.0000 
     57 N          10.6040    8.8752   67.6038 N.2       1 ALA2        0.0000 
     58 O          11.7161   12.9687   67.6871 O.2       1 ALA2        0.0000 
     59 CZ         12.6813   11.6343   66.3500 C.ar      3 PHE5        0.0000 
     60 O          11.2567   12.0158   66.6236 O.2       1 ALA2        0.0000 
     61 CZ         12.2219   10.6814   65.2865 C.ar      3 PHE5        0.0000 
     62 NZ         10.7973   11.0630   65.5601 N.2       2 LYS4        0.0000 
     63 CZ         13.0441   11.4933   68.4353 C.ar      3 PHE5        0.0000 
     64 NZ         11.6195   11.8748   68.7089 N.2       2 LYS4        0.0000 
     65 CZ         12.5847   10.5404   67.3718 C.ar      3 PHE5        0.0000 
     66 NZ         11.1600   10.9219   67.6454 N.2       2 LYS4        0.0000 
     67 N           9.7354   11.3034   67.9191 N.2       1 ALA2        0.0000 
     68 NZ         12.1252    9.5876   66.3083 N.2       2 LYS4        0.0000 
     69 NZ         10.7006    9.9691   66.5820 N.2       2 LYS4        0.0000 
     70 N           9.2760   10.3506   66.8556 N.2       1 ALA2        0.0000 
     71 CA         16.1569   14.1944   56.2077 C.3       4 GLY6        0.0000 
     72 O          14.7322   14.5759   56.4813 O.2       1 ALA2        0.0000 
     73 O          13.3076   14.9574   56.7549 O.2       1 ALA2        0.0000 
     74 CA         15.6974   13.2416   55.1442 C.3       4 GLY6        0.0000 
     75 CA         14.2728   13.6231   55.4178 C.3       4 GLY6        0.0000 
     76 O          12.8482   14.0046   55.6915 O.2       1 ALA2        0.0000 
@<TRIPOS>BOND
@<TRIPOS>SUBSTRUCTURE
     1 ALA2        2 GROUP   
     2 LYS4       56 GROUP   
     3 PHE5        1 GROUP   
     4 GLY6        8 GROUP   
     5 CUB7       13 GROUP   
@<TRIPOS>SET

