#    Name: 3epw_JMQ_2_INTS_M
#    Modification time : Tue Mar 25 02:19:01 2014

@<TRIPOS>MOLECULE
3epw_JMQ_2_INTS_M
   45     0     9     0     0
SMALL
NO_CHARGES


@<TRIPOS>ATOM
      1 CA          8.9255   10.9090   65.1090 C.3       3 GLC5        0.0000 
      2 CA         10.4750   10.8680   65.6970 C.3       9 GLL5        0.0000 
      3 CA          7.3760   10.9500   64.5210 C.3       6 GLP5        0.0000 
      4 CA         10.1540   12.1400   63.8910 C.3       3 GLC5        0.0000 
      5 CA          9.8330   13.4120   62.0850 C.3       6 GLP5        0.0000 
      6 CA         11.4295    9.7325   60.6380 C.3       3 GLC5        0.0000 
      7 CA         12.7150    9.7950   61.8850 C.3       9 GLL5        0.0000 
      8 CA         10.1440    9.6700   59.3910 C.3       6 GLP5        0.0000 
      9 N          14.4890   14.1660   60.6915 N.am      2 SEC2        0.0000 
     10 N          14.3950   12.8940   61.5760 N.am      8 SEL2        0.0000 
     11 N          14.5830   15.4380   59.8070 N.am      5 SEP2        0.0000 
     12 N          15.1535   14.1015   61.6170 N.am      2 SEC2        0.0000 
     13 N          15.9120   15.3090   61.6580 N.am      5 SEP2        0.0000 
     14 N          11.1250    9.0840   63.3925 N.am      2 SEC2        0.0000 
     15 N          12.0130    9.9910   62.9810 N.am      8 SEL2        0.0000 
     16 N          10.2370    8.1770   63.8040 N.am      5 SEP2        0.0000 
     17 CA         14.0140    9.9335   66.0120 C.3       3 GLC5        0.0000 
     18 CA         12.3690    9.2670   66.1540 C.3       9 GLL5        0.0000 
     19 CA         15.6590   10.6000   65.8700 C.3       6 GLP5        0.0000 
     20 O          12.5410    6.2305   68.2820 O.2       1 ALC1        0.0000 
     21 O          12.3320    7.0560   67.1050 O.2       7 ALL1        0.0000 
     22 O          12.7500    5.4050   69.4590 O.2       4 ALP1        0.0000 
     23 N          10.2275    8.6365   70.1340 N.am      2 SEC2        0.0000 
     24 N          11.3810    8.1120   69.3160 N.am      8 SEL2        0.0000 
     25 N           9.0740    9.1610   70.9520 N.am      5 SEP2        0.0000 
     26 O          12.1895    7.5600   70.1290 O.2       1 ALC1        0.0000 
     27 O          11.3810    8.1120   69.3160 O.2       7 ALL1        0.0000 
     28 O          12.9980    7.0080   70.9420 O.2       4 ALP1        0.0000 
     29 N          11.6910   14.0310   67.9115 N.am      2 SEC2        0.0000 
     30 N          11.0950   12.6440   68.0960 N.am      8 SEL2        0.0000 
     31 N          12.2870   15.4180   67.7270 N.am      5 SEP2        0.0000 
     32 O          10.3230   12.7450   69.1560 O.2       1 ALC1        0.0000 
     33 O          11.0950   12.6440   68.0960 O.2       7 ALL1        0.0000 
     34 O           9.5510   12.8460   70.2160 O.2       4 ALP1        0.0000 
     35 CA          9.6564   12.8664   65.8515 C.3       3 GLC5        0.0000 
     36 CA          7.8870   13.6610   66.5720 C.3       6 GLP5        0.0000 
     37 CA         14.0808    9.4552   67.5687 C.3       3 GLC5        0.0000 
     38 CA         12.1850    9.0390   68.5680 C.3       9 GLL5        0.0000 
     39 CA         15.6640   10.1950   67.1960 C.3       6 GLP5        0.0000 
     40 CA         13.6463   11.0245   68.1815 C.3       3 GLC5        0.0000 
     41 CA         11.3200   10.1970   68.0460 C.3       9 GLL5        0.0000 
     42 CA         15.6300   11.1730   68.1940 C.3       6 GLP5        0.0000 
     43 CA         11.9899   10.4947   70.2047 C.3       3 GLC5        0.0000 
     44 CA         12.0050   11.5550   68.2920 C.3       9 GLL5        0.0000 
     45 CA         12.1010   10.4030   72.1100 C.3       6 GLP5        0.0000 
@<TRIPOS>BOND
@<TRIPOS>SUBSTRUCTURE
     1 ALC1       20 GROUP        1 X    ALC  0     ROOT ALC X 1
     2 SEC2        9 GROUP        1 X    SEC  0     **** SEC X 2
     3 GLC5        1 GROUP        1 X    GLC  0     **** GLC X 6
     4 ALP1       22 GROUP        1 Y    ALP  0     ROOT ALP Y 8
     5 SEP2       11 GROUP        1 Y    SEP  0     **** SEP Y 9
     6 GLP5        3 GROUP        1 Y    GLP  0     **** GLP Y 13
     7 ALL1       21 GROUP        1 Z    ALL  0     ROOT ALL Z 15
     8 SEL2       10 GROUP        1 Z    SEL  0     **** SEL Z 16
     9 GLL5        2 GROUP        1 Z    GLL  0     **** GLL Z 20
@<TRIPOS>SET

