#    Name: 3epw_JMQ_2_ligand
#    Modification time : Tue Mar 25 02:19:01 2014

@<TRIPOS>MOLECULE
3epw_JMQ_2_ligand
   37    39     1     0     0
SMALL
NO_CHARGES


@<TRIPOS>ATOM
      1 C1         10.4750   10.8680   65.6970 C.3       1 JMQ1003     0.0000 
      2 C2         12.7150    9.7950   61.8850 C.ar      1 JMQ1003     0.0000 
      3 C8         11.8820   12.8930   65.0120 C.2       1 JMQ1003     0.0000 
      4 C9         11.4640   11.6330   64.8030 C.2       1 JMQ1003     0.0000 
      5 O6         14.3950   12.8940   61.5760 O.3       1 JMQ1003     0.0000 
      6 C6         13.6410   12.0230   62.0290 C.ar      1 JMQ1003     0.0000 
      7 N1         13.5500   10.7940   61.3780 N.ar      1 JMQ1003     0.0000 
      8 N3         12.0130    9.9910   62.9810 N.ar      1 JMQ1003     0.0000 
      9 C4         12.0810   11.1860   63.6360 C.ar      1 JMQ1003     0.0000 
     10 C5         12.8980   12.2140   63.1870 C.ar      1 JMQ1003     0.0000 
     11 N7         12.7380   13.2340   64.0440 N.pl3     1 JMQ1003     0.0000 
     12 N4'        11.0890    9.8420   66.6100 N.4       1 JMQ1003     0.0000 
     13 C1'        12.3690    9.2670   66.1540 C.3       1 JMQ1003     0.0000 
     14 C2'        12.8100    8.3920   67.3150 C.3       1 JMQ1003     0.0000 
     15 O2'        12.3320    7.0560   67.1050 O.3       1 JMQ1003     0.0000 
     16 C3'        12.1850    9.0390   68.5680 C.3       1 JMQ1003     0.0000 
     17 O3'        11.3810    8.1120   69.3160 O.3       1 JMQ1003     0.0000 
     18 C4'        11.3200   10.1970   68.0460 C.3       1 JMQ1003     0.0000 
     19 C5'        12.0050   11.5550   68.2920 C.3       1 JMQ1003     0.0000 
     20 O5'        11.0950   12.6440   68.0960 O.3       1 JMQ1003     0.0000 
     21 H           9.7247   10.3771   65.0415 H         1 JMQ1003     0.0000 
     22 H           9.9104   11.6093   66.3013 H         1 JMQ1003     0.0000 
     23 H          12.6718    8.8905   61.3599 H         1 JMQ1003     0.0000 
     24 H          11.6036   13.4620   65.7507 H         1 JMQ1003     0.0000 
     25 H          13.1860   14.1033   63.9682 H         1 JMQ1003     0.0000 
     26 H          10.3704    8.9468   66.6451 H         1 JMQ1003     0.0000 
     27 H          13.0968   10.0317   65.9941 H         1 JMQ1003     0.0000 
     28 H          12.2283    8.6577   65.2885 H         1 JMQ1003     0.0000 
     29 H          13.8660    8.4518   67.3977 H         1 JMQ1003     0.0000 
     30 H          12.9777    9.4639   69.1491 H         1 JMQ1003     0.0000 
     31 H          10.3837   10.1532   68.5785 H         1 JMQ1003     0.0000 
     32 H          12.8665   11.6168   67.6085 H         1 JMQ1003     0.0000 
     33 H          12.4058   11.5396   69.3178 H         1 JMQ1003     0.0000 
     34 H          14.0804   13.0467   60.6391 H         1 JMQ1003     0.0000 
     35 H          12.2192    6.6744   68.0225 H         1 JMQ1003     0.0000 
     36 H          11.8206    8.0529   70.2122 H         1 JMQ1003     0.0000 
     37 H          10.8862   12.9755   69.0161 H         1 JMQ1003     0.0000 
@<TRIPOS>BOND
     1    4    1 1    
     2   12    1 1    
     3   21    1 1    
     4   22    1 1    
     5    7    2 ar   
     6    8    2 ar   
     7   23    2 1    
     8    4    3 2    
     9   11    3 1    
    10   24    3 1    
    11    9    4 1    
    12    6    5 1    
    13   34    5 1    
    14    7    6 ar   
    15   10    6 ar   
    16    9    8 ar   
    17   10    9 ar   
    18   11   10 1    
    19   25   11 1    
    20   13   12 1    
    21   18   12 1    
    22   26   12 1    
    23   14   13 1    
    24   27   13 1    
    25   28   13 1    
    26   15   14 1    
    27   16   14 1    
    28   29   14 1    
    29   35   15 1    
    30   17   16 1    
    31   18   16 1    
    32   30   16 1    
    33   36   17 1    
    34   19   18 1    
    35   31   18 1    
    36   20   19 1    
    37   32   19 1    
    38   33   19 1    
    39   37   20 1    
@<TRIPOS>SUBSTRUCTURE
     1 JMQ1003     1 GROUP   
@<TRIPOS>SET

