#    Name: 2z6j_TUI_2_INTS_M
#    Modification time : Tue Mar 25 10:18:25 2014

@<TRIPOS>MOLECULE
2z6j_TUI_2_INTS_M
   68     0     9     0     0
SMALL
NO_CHARGES


@<TRIPOS>ATOM
      1 O           9.6710   30.2705   10.3565 O.2       1 ALC1        0.0000 
      2 O          10.5270   31.4210   10.3550 O.2       7 ALL1        0.0000 
      3 O           8.8150   29.1200   10.3580 O.2       4 ALP1        0.0000 
      4 CA         13.3220   33.5615   11.3045 C.3       3 GLC5        0.0000 
      5 CA         11.8660   33.6340    9.6190 C.3       9 GLL5        0.0000 
      6 CA         14.7780   33.4890   12.9900 C.3       6 GLP5        0.0000 
      7 CA         12.6810   31.8655    9.4150 C.3       3 GLC5        0.0000 
      8 CA         13.4960   30.0970    9.2110 C.3       6 GLP5        0.0000 
      9 CA         10.9275   36.4935    6.7200 C.3       3 GLC5        0.0000 
     10 CA         12.4860   35.4110    7.2730 C.3       9 GLL5        0.0000 
     11 CA          9.3690   37.5760    6.1670 C.3       6 GLP5        0.0000 
     12 N          14.7775   37.4685    6.0795 N.am      2 SEC2        0.0000 
     13 N          14.9370   36.0880    6.5650 N.am      8 SEL2        0.0000 
     14 N          14.6180   38.8490    5.5940 N.am      5 SEP2        0.0000 
     15 CA         15.4735   36.9735    8.0530 C.3       3 GLC5        0.0000 
     16 CA         16.2610   35.9070    6.4170 C.3       9 GLL5        0.0000 
     17 CA         14.6860   38.0400    9.6890 C.3       6 GLP5        0.0000 
     18 CA         14.0930   32.0025    8.3590 C.3       3 GLC5        0.0000 
     19 CA         14.6900   33.9080    7.5070 C.3       9 GLL5        0.0000 
     20 CA         10.2855   31.1305    7.0535 C.3       3 GLC5        0.0000 
     21 CA         10.9790   33.1660    7.4420 C.3       9 GLL5        0.0000 
     22 CA          9.5920   29.0950    6.6650 C.3       6 GLP5        0.0000 
     23 CA         12.2375   31.6315    8.3265 C.3       3 GLC5        0.0000 
     24 CA         10.5980   32.3040    5.6720 C.3       3 GLC5        0.0000 
     25 CA         10.2170   31.4420    3.9020 C.3       6 GLP5        0.0000 
     26 N          11.0160   30.7365    8.1715 N.am      2 SEC2        0.0000 
     27 N          10.5450   32.2510    8.1940 N.am      8 SEL2        0.0000 
     28 N          11.4870   29.2220    8.1490 N.am      5 SEP2        0.0000 
     29 O           9.5355   29.3105   12.6870 O.2       1 ALC1        0.0000 
     30 O          10.0820   30.8040   12.5040 O.2       7 ALL1        0.0000 
     31 O           8.9890   27.8170   12.8700 O.2       4 ALP1        0.0000 
     32 O           8.6470   29.9420   12.8775 O.2       1 ALC1        0.0000 
     33 O           7.2120   29.0800   13.2510 O.2       4 ALP1        0.0000 
     34 O           9.4485   29.9620   11.4310 O.2       1 ALC1        0.0000 
     35 CA         10.8710   32.6750   14.9295 C.3       3 GLC5        0.0000 
     36 CA         10.1460   30.9730   13.9450 C.3       9 GLL5        0.0000 
     37 CA         11.5960   34.3770   15.9140 C.3       6 GLP5        0.0000 
     38 CA          9.6645   30.4415   15.7295 C.3       3 GLC5        0.0000 
     39 CA          9.1830   29.9100   17.5140 C.3       6 GLP5        0.0000 
     40 CA         13.8905   29.4590   13.0170 C.3       3 GLC5        0.0000 
     41 CA         12.7980   28.6250   14.7090 C.3       9 GLL5        0.0000 
     42 CA         14.9830   30.2930   11.3250 C.3       6 GLP5        0.0000 
     43 CA         11.1345   29.7835   16.5555 C.3       3 GLC5        0.0000 
     44 CA         13.0860   29.6570   15.5970 C.3       9 GLL5        0.0000 
     45 CA         17.4895   29.0270   20.6640 C.3       3 GLC5        0.0000 
     46 CA         18.5580   28.9960   19.1630 C.3       9 GLL5        0.0000 
     47 CA         16.4210   29.0580   22.1650 C.3       6 GLP5        0.0000 
     48 CA         12.3033   35.3205   10.0590 C.3       3 GLC5        0.0000 
     49 CA         12.7940   36.7780   11.3000 C.3       6 GLP5        0.0000 
     50 CA         17.1668   34.0773    8.8893 C.3       3 GLC5        0.0000 
     51 CA         16.0590   33.7000    7.3540 C.3       9 GLL5        0.0000 
     52 CA         17.8770   33.9510   10.6980 C.3       6 GLP5        0.0000 
     53 CA         14.2429   35.5609    8.9977 C.3       3 GLC5        0.0000 
     54 CA         14.4830   36.5340   10.6490 C.3       6 GLP5        0.0000 
     55 CA         14.7525   27.9977   17.7327 C.3       3 GLC5        0.0000 
     56 CA         14.2250   29.6950   16.5620 C.3       9 GLL5        0.0000 
     57 CA         14.6630   26.5750   19.0810 C.3       6 GLP5        0.0000 
     58 CA         14.2015   28.7508   19.2195 C.3       3 GLC5        0.0000 
     59 CA         14.0690   30.3110   17.8080 C.3       9 GLL5        0.0000 
     60 CA         13.8000   27.1610   20.1840 C.3       6 GLP5        0.0000 
     61 CA         16.0880   29.5747   20.3458 C.3       3 GLC5        0.0000 
     62 CA         16.3730   29.8130   18.3510 C.3       9 GLL5        0.0000 
     63 CA         14.7223   31.2479   15.4987 C.3       3 GLC5        0.0000 
     64 CA         14.7840   32.9260   14.4220 C.3       6 GLP5        0.0000 
     65 CA         16.6545   31.6136   17.5849 C.3       3 GLC5        0.0000 
     66 CA         16.5270   29.2070   17.0990 C.3       9 GLL5        0.0000 
     67 CA         17.1680   33.5780   17.3570 C.3       6 GLP5        0.0000 
     68 CA         15.5565   28.0425   18.4030 C.3       3 GLC5        0.0000 
@<TRIPOS>BOND
@<TRIPOS>SUBSTRUCTURE
     1 ALC1        1 GROUP        1 X    ALC  0     ROOT ALC X 1
     2 SEC2       12 GROUP        1 X    SEC  0     **** SEC X 2
     3 GLC5        4 GROUP        1 X    GLC  0     **** GLC X 6
     4 ALP1        3 GROUP        1 Y    ALP  0     ROOT ALP Y 8
     5 SEP2       14 GROUP        1 Y    SEP  0     **** SEP Y 9
     6 GLP5        6 GROUP        1 Y    GLP  0     **** GLP Y 13
     7 ALL1        2 GROUP        1 Z    ALL  0     ROOT ALL Z 15
     8 SEL2       13 GROUP        1 Z    SEL  0     **** SEL Z 16
     9 GLL5        5 GROUP        1 Z    GLL  0     **** GLL Z 20
@<TRIPOS>SET

