#    Name: 2z6j_TUI_2_ligand
#    Modification time : Tue Mar 25 10:18:25 2014

@<TRIPOS>MOLECULE
2z6j_TUI_2_ligand
   50    53     1     0     0
SMALL
NO_CHARGES


@<TRIPOS>ATOM
      1 O21        11.4020   32.5290   12.1030 O.2       1 TUI502      0.0000 
      2 C19        10.7000   31.6220   11.6640 C.2       1 TUI502      0.0000 
      3 N20        10.5270   31.4210   10.3550 N.am      1 TUI502      0.0000 
      4 C22        10.8860   32.2980    9.4140 C.2       1 TUI502      0.0000 
      5 S23        11.8660   33.6340    9.6190 S.3       1 TUI502      0.0000 
      6 C24        11.7590   34.0920    8.0170 C.2       1 TUI502      0.0000 
      7 S27        12.4860   35.4110    7.2730 S.3       1 TUI502      0.0000 
      8 C28        14.1450   35.1240    7.0990 C.ar      1 TUI502      0.0000 
      9 N29        14.9370   36.0880    6.5650 N.ar      1 TUI502      0.0000 
     10 C30        16.2610   35.9070    6.4170 C.ar      1 TUI502      0.0000 
     11 C31        16.8540   34.7070    6.8070 C.ar      1 TUI502      0.0000 
     12 C32        16.0590   33.7000    7.3540 C.ar      1 TUI502      0.0000 
     13 C33        14.6900   33.9080    7.5070 C.ar      1 TUI502      0.0000 
     14 C25        10.9790   33.1660    7.4420 C.2       1 TUI502      0.0000 
     15 N26        10.5450   32.2510    8.1940 N.2       1 TUI502      0.0000 
     16 N18        10.0820   30.8040   12.5040 N.am      1 TUI502      0.0000 
     17 C17        10.1460   30.9730   13.9450 C.3       1 TUI502      0.0000 
     18 C15        11.3450   30.2230   14.4830 C.2       1 TUI502      0.0000 
     19 N16        12.1840   30.6510   15.4470 N.pl3     1 TUI502      0.0000 
     20 N14        11.6970   29.0130   14.0280 N.2       1 TUI502      0.0000 
     21 C13        12.7980   28.6250   14.7090 C.2       1 TUI502      0.0000 
     22 C12        13.0860   29.6570   15.5970 C.2       1 TUI502      0.0000 
     23 C3         14.2250   29.6950   16.5620 C.ar      1 TUI502      0.0000 
     24 C2         14.0690   30.3110   17.8080 C.ar      1 TUI502      0.0000 
     25 C1         15.1370   30.3700   18.7020 C.ar      1 TUI502      0.0000 
     26 C4         15.4590   29.1460   16.2070 C.ar      1 TUI502      0.0000 
     27 C5         16.5270   29.2070   17.0990 C.ar      1 TUI502      0.0000 
     28 C6         16.3730   29.8130   18.3510 C.ar      1 TUI502      0.0000 
     29 O7         17.4260   29.8780   19.2470 O.3       1 TUI502      0.0000 
     30 C8         18.5580   28.9960   19.1630 C.3       1 TUI502      0.0000 
     31 C9         19.8300   29.7520   18.8300 C.2       1 TUI502      0.0000 
     32 O11        20.0600   30.8450   19.3960 O.co2     1 TUI502      0.0000 
     33 O10        20.6160   29.2530   17.9970 O.co2     1 TUI502      0.0000 
     34 H          10.0730   30.5011   10.0411 H         1 TUI502      0.0000 
     35 H          16.8628   36.6494    6.0134 H         1 TUI502      0.0000 
     36 H          17.8597   34.5666    6.6935 H         1 TUI502      0.0000 
     37 H          16.4807   32.8112    7.6419 H         1 TUI502      0.0000 
     38 H          14.0972   33.1836    7.9103 H         1 TUI502      0.0000 
     39 H          10.7667   33.2329    6.4303 H         1 TUI502      0.0000 
     40 H           9.5134   29.9903   12.1694 H         1 TUI502      0.0000 
     41 H           9.2465   30.5812   14.4257 H         1 TUI502      0.0000 
     42 H          10.2474   32.0277   14.2116 H         1 TUI502      0.0000 
     43 H          12.1500   31.4700   15.9177 H         1 TUI502      0.0000 
     44 H          13.2878   27.8250   14.6191 H         1 TUI502      0.0000 
     45 H          13.1615   30.7217   18.0639 H         1 TUI502      0.0000 
     46 H          15.0206   30.8200   19.6160 H         1 TUI502      0.0000 
     47 H          15.5770   28.6993   15.2912 H         1 TUI502      0.0000 
     48 H          17.4381   28.8039   16.8380 H         1 TUI502      0.0000 
     49 H          18.4063   28.2260   18.3871 H         1 TUI502      0.0000 
     50 H          18.7184   28.4620   20.1154 H         1 TUI502      0.0000 
@<TRIPOS>BOND
     1    2    1 2    
     2    3    2 am   
     3   16    2 am   
     4    4    3 1    
     5   34    3 1    
     6    5    4 1    
     7   15    4 2    
     8    6    5 1    
     9    7    6 1    
    10   14    6 2    
    11    8    7 1    
    12    9    8 ar   
    13   13    8 ar   
    14   10    9 ar   
    15   11   10 ar   
    16   35   10 1    
    17   12   11 ar   
    18   36   11 1    
    19   13   12 ar   
    20   37   12 1    
    21   38   13 1    
    22   15   14 1    
    23   39   14 1    
    24   17   16 1    
    25   40   16 1    
    26   18   17 1    
    27   41   17 1    
    28   42   17 1    
    29   19   18 1    
    30   20   18 2    
    31   22   19 1    
    32   43   19 1    
    33   21   20 1    
    34   22   21 2    
    35   44   21 1    
    36   23   22 1    
    37   24   23 ar   
    38   26   23 ar   
    39   25   24 ar   
    40   45   24 1    
    41   28   25 ar   
    42   46   25 1    
    43   27   26 ar   
    44   47   26 1    
    45   28   27 ar   
    46   48   27 1    
    47   29   28 1    
    48   30   29 1    
    49   31   30 1    
    50   49   30 1    
    51   50   30 1    
    52   32   31 ar   
    53   33   31 ar   
@<TRIPOS>SUBSTRUCTURE
     1 TUI502      1 GROUP   
@<TRIPOS>SET

