#    Name: 3vs7_KS1_1_INTS_M
#    Modification time : Tue Mar 25 01:28:03 2014

@<TRIPOS>MOLECULE
3vs7_KS1_1_INTS_M
   59     0     9     0     0
SMALL
NO_CHARGES


@<TRIPOS>ATOM
      1 CA        -44.5750   -2.6085   14.0290 C.3       3 GLC5        0.0000 
      2 CA        -44.4380   -2.4550   16.1110 C.3       9 GLL5        0.0000 
      3 CA        -44.7120   -2.7620   11.9470 C.3       6 GLP5        0.0000 
      4 CA        -42.0780   -2.8925   14.2975 C.3       3 GLC5        0.0000 
      5 CA        -41.8620   -2.4520   16.3650 C.3       9 GLL5        0.0000 
      6 CA        -42.2940   -3.3330   12.2300 C.3       6 GLP5        0.0000 
      7 CA        -41.1950   -3.6225   14.1285 C.3       3 GLC5        0.0000 
      8 CA        -40.0960   -3.9120   16.0270 C.3       9 GLL5        0.0000 
      9 CA        -38.9730   -2.3270   14.9425 C.3       3 GLC5        0.0000 
     10 CA        -37.8500   -0.7420   13.8580 C.3       6 GLP5        0.0000 
     11 CA        -37.9410   -3.9145   15.6290 C.3       3 GLC5        0.0000 
     12 CA        -35.7860   -3.9170   15.2310 C.3       6 GLP5        0.0000 
     13 CA        -38.7155   -4.9265   17.0420 C.3       3 GLC5        0.0000 
     14 CA        -37.3350   -5.9410   18.0570 C.3       6 GLP5        0.0000 
     15 N         -38.0920   -3.9430   16.7690 N.am      2 SEC2        0.0000 
     16 N         -39.2060   -2.9950   16.4280 N.am      8 SEL2        0.0000 
     17 N         -36.9780   -4.8910   17.1100 N.am      5 SEP2        0.0000 
     18 CA        -38.5795   -2.9435   18.3255 C.3       3 GLC5        0.0000 
     19 CA        -39.6160   -1.7700   16.8160 C.3       9 GLL5        0.0000 
     20 CA        -37.5430   -4.1170   19.8350 C.3       6 GLP5        0.0000 
     21 O         -37.2115   -1.1810   16.9010 O.2       1 ALC1        0.0000 
     22 O         -38.6980   -0.8600   17.2200 O.2       7 ALL1        0.0000 
     23 O         -35.7250   -1.5020   16.5820 O.2       4 ALP1        0.0000 
     24 CA        -42.1355    0.7385   15.6330 C.3       3 GLC5        0.0000 
     25 CA        -41.2650    0.9930   17.6370 C.3       9 GLL5        0.0000 
     26 CA        -43.0060    0.4840   13.6290 C.3       6 GLP5        0.0000 
     27 CA        -42.0905    2.1955   15.7030 C.3       3 GLC5        0.0000 
     28 CA        -40.3120    1.7190   16.9330 C.3       9 GLL5        0.0000 
     29 CA        -43.8690    2.6720   14.4730 C.3       6 GLP5        0.0000 
     30 CA        -40.0520    4.8015   15.6330 C.3       3 GLC5        0.0000 
     31 CA        -38.9780    3.9030   16.9630 C.3       9 GLL5        0.0000 
     32 CA        -41.1260    5.7000   14.3030 C.3       6 GLP5        0.0000 
     33 CA        -40.8685    5.3520   17.1040 C.3       3 GLC5        0.0000 
     34 CA        -39.0470    4.9050   17.9330 C.3       9 GLL5        0.0000 
     35 CA        -42.6900    5.7990   16.2750 C.3       6 GLP5        0.0000 
     36 CA        -40.8835    2.5150   20.5760 C.3       3 GLC5        0.0000 
     37 CA        -40.4800    3.3820   18.6220 C.3       9 GLL5        0.0000 
     38 CA        -41.2870    1.6480   22.5300 C.3       6 GLP5        0.0000 
     39 CA        -41.5425    1.5725   20.6775 C.3       3 GLC5        0.0000 
     40 CA        -41.7980    1.4970   18.8250 C.3       9 GLL5        0.0000 
     41 CA        -43.9933   -0.7570   15.0090 C.3       3 GLC5        0.0000 
     42 CA        -45.5230   -1.5410   16.6670 C.3       9 GLL5        0.0000 
     43 CA        -46.1420   -3.8022   19.2110 C.3       3 GLC5        0.0000 
     44 CA        -46.5690   -2.4170   17.3490 C.3       9 GLL5        0.0000 
     45 CA        -45.9590   -4.4660   21.1070 C.3       6 GLP5        0.0000 
     46 CA        -44.2303   -5.3975   17.5810 C.3       3 GLC5        0.0000 
     47 CA        -46.0810   -3.8600   17.2810 C.3       9 GLL5        0.0000 
     48 CA        -43.0880   -6.9510   18.1590 C.3       6 GLP5        0.0000 
     49 CA        -42.2122   -0.7383   15.1030 C.3       3 GLC5        0.0000 
     50 CA        -39.0727   -1.1808   15.3302 C.3       3 GLC5        0.0000 
     51 CA        -40.9750   -1.4690   16.7890 C.3       9 GLL5        0.0000 
     52 CA        -40.3496   -1.6896   18.5138 C.3       3 GLC5        0.0000 
     53 CA        -40.1820   -1.5140   20.3310 C.3       6 GLP5        0.0000 
     54 CA        -40.8568   -0.1345   19.2810 C.3       3 GLC5        0.0000 
     55 CA        -41.4447    4.4817   17.1570 C.3       3 GLC5        0.0000 
     56 CA        -38.0168    5.7115   16.6700 C.3       3 GLC5        0.0000 
     57 CA        -37.0210    7.0190   15.8920 C.3       6 GLP5        0.0000 
     58 CA        -37.4144    4.0115   17.4521 C.3       3 GLC5        0.0000 
     59 CA        -35.5810    3.8580   17.3330 C.3       6 GLP5        0.0000 
@<TRIPOS>BOND
@<TRIPOS>SUBSTRUCTURE
     1 ALC1       21 GROUP        1 X    ALC  0     ROOT ALC X 1
     2 SEC2       15 GROUP        1 X    SEC  0     **** SEC X 2
     3 GLC5        1 GROUP        1 X    GLC  0     **** GLC X 6
     4 ALP1       23 GROUP        1 Y    ALP  0     ROOT ALP Y 8
     5 SEP2       17 GROUP        1 Y    SEP  0     **** SEP Y 9
     6 GLP5        3 GROUP        1 Y    GLP  0     **** GLP Y 13
     7 ALL1       22 GROUP        1 Z    ALL  0     ROOT ALL Z 15
     8 SEL2       16 GROUP        1 Z    SEL  0     **** SEL Z 16
     9 GLL5        2 GROUP        1 Z    GLL  0     **** GLL Z 20
@<TRIPOS>SET

