#    Name: 3vs7_KS1_1_ligand
#    Modification time : Tue Mar 25 01:28:03 2014

@<TRIPOS>MOLECULE
3vs7_KS1_1_ligand
   41    45     1     0     0
SMALL
NO_CHARGES


@<TRIPOS>ATOM
      1 CAI       -45.5230   -1.5410   16.6670 C.3       1 KS1601      0.0000 
      2 CAG       -46.5690   -2.4170   17.3490 C.3       1 KS1601      0.0000 
      3 CAH       -46.0810   -3.8600   17.2810 C.3       1 KS1601      0.0000 
      4 CAJ       -44.6640   -3.8280   16.7250 C.3       1 KS1601      0.0000 
      5 CAW       -44.4380   -2.4550   16.1110 C.3       1 KS1601      0.0000 
      6 NAX       -43.0830   -1.9350   16.4400 N.pl3     1 KS1601      0.0000 
      7 NAN       -43.0320   -0.6190   16.8930 N.2       1 KS1601      0.0000 
      8 C4        -41.8620   -2.4520   16.3650 C.ar      1 KS1601      0.0000 
      9 N3        -41.4100   -3.6640   15.9910 N.ar      1 KS1601      0.0000 
     10 C2        -40.0960   -3.9120   16.0270 C.ar      1 KS1601      0.0000 
     11 N1        -39.2060   -2.9950   16.4280 N.ar      1 KS1601      0.0000 
     12 C6        -39.6160   -1.7700   16.8160 C.ar      1 KS1601      0.0000 
     13 NAA       -38.6980   -0.8600   17.2200 N.pl3     1 KS1601      0.0000 
     14 C5        -40.9750   -1.4690   16.7890 C.ar      1 KS1601      0.0000 
     15 CAR       -41.7300   -0.3340   17.1260 C.2       1 KS1601      0.0000 
     16 CAP       -41.2650    0.9930   17.6370 C.ar      1 KS1601      0.0000 
     17 CAF       -40.3120    1.7190   16.9330 C.ar      1 KS1601      0.0000 
     18 CAS       -39.9190    2.9470   17.4560 C.ar      1 KS1601      0.0000 
     19 CAD       -38.9780    3.9030   16.9630 C.2       1 KS1601      0.0000 
     20 CAB       -39.0470    4.9050   17.9330 C.2       1 KS1601      0.0000 
     21 NAO       -39.9390    4.5800   18.9040 N.pl3     1 KS1601      0.0000 
     22 CAT       -40.4800    3.3820   18.6220 C.ar      1 KS1601      0.0000 
     23 NAM       -41.4060    2.6790   19.3080 N.ar      1 KS1601      0.0000 
     24 CAE       -41.7980    1.4970   18.8250 C.ar      1 KS1601      0.0000 
     25 H         -45.0925   -0.8666   17.3882 H         1 KS1601      0.0000 
     26 H         -45.9821   -0.9935   15.8609 H         1 KS1601      0.0000 
     27 H         -47.5074   -2.3287   16.8292 H         1 KS1601      0.0000 
     28 H         -46.6727   -2.1194   18.3782 H         1 KS1601      0.0000 
     29 H         -46.7153   -4.4240   16.6224 H         1 KS1601      0.0000 
     30 H         -46.0728   -4.2842   18.2679 H         1 KS1601      0.0000 
     31 H         -44.5568   -4.5856   15.9667 H         1 KS1601      0.0000 
     32 H         -43.9593   -3.9875   17.5240 H         1 KS1601      0.0000 
     33 H         -44.5700   -2.5302   15.0493 H         1 KS1601      0.0000 
     34 H         -39.7460   -4.8679   15.7277 H         1 KS1601      0.0000 
     35 H         -39.0583    0.0164   17.5396 H         1 KS1601      0.0000 
     36 H         -37.7412   -1.1451   17.1629 H         1 KS1601      0.0000 
     37 H         -39.9170    1.3676   16.0700 H         1 KS1601      0.0000 
     38 H         -38.4794    3.8524   16.2164 H         1 KS1601      0.0000 
     39 H         -38.5181    5.7193   17.8988 H         1 KS1601      0.0000 
     40 H         -40.1471    5.1298   19.6749 H         1 KS1601      0.0000 
     41 H         -42.5119    0.9214   19.3234 H         1 KS1601      0.0000 
@<TRIPOS>BOND
     1    2    1 1    
     2    5    1 1    
     3   25    1 1    
     4   26    1 1    
     5    3    2 1    
     6   27    2 1    
     7   28    2 1    
     8    4    3 1    
     9   29    3 1    
    10   30    3 1    
    11    5    4 1    
    12   31    4 1    
    13   32    4 1    
    14    6    5 1    
    15   33    5 1    
    16    7    6 1    
    17    8    6 1    
    18   15    7 2    
    19    9    8 ar   
    20   14    8 ar   
    21   10    9 ar   
    22   11   10 ar   
    23   34   10 1    
    24   12   11 ar   
    25   13   12 1    
    26   14   12 ar   
    27   35   13 1    
    28   36   13 1    
    29   15   14 1    
    30   16   15 1    
    31   17   16 ar   
    32   24   16 ar   
    33   18   17 ar   
    34   37   17 1    
    35   19   18 1    
    36   22   18 ar   
    37   20   19 2    
    38   38   19 1    
    39   21   20 1    
    40   39   20 1    
    41   22   21 1    
    42   40   21 1    
    43   23   22 ar   
    44   24   23 ar   
    45   41   24 1    
@<TRIPOS>SUBSTRUCTURE
     1 KS1601      1 GROUP   
@<TRIPOS>SET

