#    Name: 1ec3_MS3_1_INTS_M
#    Modification time : Mon Mar 24 23:26:17 2014

@<TRIPOS>MOLECULE
1ec3_MS3_1_INTS_M
   96     0     9     0     0
SMALL
NO_CHARGES


@<TRIPOS>ATOM
      1 CA          8.3205   21.0695    1.9060 C.3       3 GLC5        0.0000 
      2 CA          9.4040   22.8200    2.6310 C.3       9 GLL5        0.0000 
      3 CA          7.2370   19.3190    1.1810 C.3       6 GLP5        0.0000 
      4 CA         17.2685   24.3035    5.2765 C.3       3 GLC5        0.0000 
      5 CA         15.5920   23.0810    5.9630 C.3       9 GLL5        0.0000 
      6 CA         18.9450   25.5260    4.5900 C.3       6 GLP5        0.0000 
      7 O          17.6400   22.0695    5.1990 O.2       1 ALC1        0.0000 
      8 O          16.5820   20.9290    5.2320 O.2       7 ALL1        0.0000 
      9 O          18.6980   23.2100    5.1660 O.2       4 ALP1        0.0000 
     10 CA         17.8100   20.9050    3.7500 C.3       3 GLC5        0.0000 
     11 CA         16.7610   19.5050    4.9450 C.3       9 GLL5        0.0000 
     12 CA         18.8590   22.3050    2.5550 C.3       6 GLP5        0.0000 
     13 CA         15.9340   17.4460    1.0770 C.3       3 GLC5        0.0000 
     14 CA         16.7320   17.6340    3.0590 C.3       9 GLL5        0.0000 
     15 CA         15.1360   17.2580   -0.9050 C.3       6 GLP5        0.0000 
     16 CA         15.6190   16.1680    2.4460 C.3       3 GLC5        0.0000 
     17 CA         14.5060   14.7020    1.8330 C.3       6 GLP5        0.0000 
     18 CA         13.3250   19.1435    3.1285 C.3       3 GLC5        0.0000 
     19 CA         15.1190   19.4960    2.9270 C.3       9 GLL5        0.0000 
     20 CA         11.5310   18.7910    3.3300 C.3       6 GLP5        0.0000 
     21 CA         15.1275   18.3770    1.0110 C.3       3 GLC5        0.0000 
     22 CA         13.8250   20.3740    1.4570 C.3       3 GLC5        0.0000 
     23 CA         12.5310   21.2520   -0.0130 C.3       6 GLP5        0.0000 
     24 N          19.9045   20.2090    3.8140 N.am      2 SEC2        0.0000 
     25 N          19.1530   19.7580    4.9570 N.am      8 SEL2        0.0000 
     26 N          20.6560   20.6600    2.6710 N.am      5 SEP2        0.0000 
     27 O          16.9195   17.6540    6.7350 O.2       1 ALC1        0.0000 
     28 O          18.2680   18.1630    6.3790 O.2       7 ALL1        0.0000 
     29 O          15.5710   17.1450    7.0910 O.2       4 ALP1        0.0000 
     30 CA         18.1065   24.2890    8.2840 C.3       3 GLC5        0.0000 
     31 CA         16.4990   23.3290    8.3300 C.3       9 GLL5        0.0000 
     32 CA         19.7140   25.2490    8.2380 C.3       6 GLP5        0.0000 
     33 N          15.8815   25.7195    3.4585 N.am      2 SEC2        0.0000 
     34 N          15.1810   25.0700    4.5250 N.am      8 SEL2        0.0000 
     35 N          16.5820   26.3690    2.3920 N.am      5 SEP2        0.0000 
     36 O          15.6395   25.7695    5.7475 O.2       1 ALC1        0.0000 
     37 O          15.1810   25.0700    4.5250 O.2       7 ALL1        0.0000 
     38 O          16.0980   26.4690    6.9700 O.2       4 ALP1        0.0000 
     39 O          14.7735   25.8940    6.7660 O.2       1 ALC1        0.0000 
     40 O          13.4490   25.3190    6.5620 O.2       7 ALL1        0.0000 
     41 O          11.1045   26.6170    4.4175 O.2       1 ALC1        0.0000 
     42 O          10.3910   25.7350    5.5150 O.2       7 ALL1        0.0000 
     43 O          11.8180   27.4990    3.3200 O.2       4 ALP1        0.0000 
     44 CA         10.6470   27.6100    5.9110 C.3       3 GLC5        0.0000 
     45 CA          9.1760   26.0730    6.2960 C.3       9 GLL5        0.0000 
     46 CA         12.1180   29.1470    5.5260 C.3       6 GLP5        0.0000 
     47 CA          6.7740   26.6170    9.7080 C.3       3 GLC5        0.0000 
     48 CA          8.2210   27.2190    8.4920 C.3       9 GLL5        0.0000 
     49 CA          5.3270   26.0150   10.9240 C.3       6 GLP5        0.0000 
     50 CA         10.5040   27.0435   10.4885 C.3       3 GLC5        0.0000 
     51 CA         10.4960   26.1380    8.5530 C.3       9 GLL5        0.0000 
     52 CA         10.5120   27.9490   12.4240 C.3       6 GLP5        0.0000 
     53 CA         12.4215   25.7945    9.5680 C.3       3 GLC5        0.0000 
     54 CA         14.3470   25.4510   10.5830 C.3       6 GLP5        0.0000 
     55 N           9.3745   29.1925    5.2310 N.am      2 SEC2        0.0000 
     56 N           8.7040   27.9590    4.9540 N.am      8 SEL2        0.0000 
     57 N          10.0450   30.4260    5.5080 N.am      5 SEP2        0.0000 
     58 O           6.8590   25.1175    5.9110 O.2       1 ALC1        0.0000 
     59 O           7.0430   26.3810    5.1240 O.2       7 ALL1        0.0000 
     60 O           6.6750   23.8540    6.6980 O.2       4 ALP1        0.0000 
     61 CA          4.2465   23.4650    6.1625 C.3       3 GLC5        0.0000 
     62 CA          3.4020   24.3200    4.3310 C.3       9 GLL5        0.0000 
     63 CA          5.0910   22.6100    7.9940 C.3       6 GLP5        0.0000 
     64 CA         16.9675   21.2907   10.9967 C.3       3 GLC5        0.0000 
     65 CA         15.7160   19.5770   10.3940 C.3       9 GLL5        0.0000 
     66 CA         17.6200   22.9410   12.0060 C.3       6 GLP5        0.0000 
     67 CA         15.4240   19.6591   11.9369 C.3       3 GLC5        0.0000 
     68 CA         15.3020   19.1580   13.6110 C.3       6 GLP5        0.0000 
     69 CA         16.2635   22.1260   11.1000 C.3       3 GLC5        0.0000 
     70 CA         14.7770   20.6800   10.5380 C.3       9 GLL5        0.0000 
     71 CA         14.3315   19.1841    9.0239 C.3       3 GLC5        0.0000 
     72 CA         13.1170   18.2080    7.7850 C.3       6 GLP5        0.0000 
     73 CA         13.0420   20.8220   10.2265 C.3       3 GLC5        0.0000 
     74 CA         11.1770   20.3330   10.2590 C.3       6 GLP5        0.0000 
     75 CA          9.4770   23.5282    0.4630 C.3       3 GLC5        0.0000 
     76 CA          9.0470   23.7400   -1.5120 C.3       6 GLP5        0.0000 
     77 CA          8.3648   22.2677    4.2287 C.3       3 GLC5        0.0000 
     78 CA          8.0170   21.5580    5.8900 C.3       6 GLP5        0.0000 
     79 CA          6.7658   22.4183    1.5235 C.3       3 GLC5        0.0000 
     80 CA          8.0210   23.1350    2.5040 C.3       9 GLL5        0.0000 
     81 CA          5.7060   21.0480    0.7990 C.3       6 GLP5        0.0000 
     82 CA          8.4363   23.7643    0.3680 C.3       3 GLC5        0.0000 
     83 CA         10.5740   26.2625    0.5815 C.3       3 GLC5        0.0000 
     84 CA          8.6190   25.4440    1.6050 C.3       9 GLL5        0.0000 
     85 CA         11.8270   27.2460   -0.5090 C.3       6 GLP5        0.0000 
     86 CA          9.1840   24.5095    0.0800 C.3       3 GLC5        0.0000 
     87 CA         10.0230   25.1140    1.7390 C.3       9 GLL5        0.0000 
     88 CA         11.7035   22.3176    1.2050 C.3       3 GLC5        0.0000 
     89 CA         10.4100   23.8130    2.2450 C.3       9 GLL5        0.0000 
     90 CA         16.8265   20.7435    2.2980 C.3       3 GLC5        0.0000 
     91 CA         17.8260   22.1680    1.4280 C.3       6 GLP5        0.0000 
     92 CA         17.1175   22.6816   10.3227 C.3       3 GLC5        0.0000 
     93 CA         15.2101   24.0591    9.7327 C.3       3 GLC5        0.0000 
     94 CA         16.2580   22.0690    9.0200 C.3       9 GLL5        0.0000 
     95 CA         11.4247   27.7312    7.4755 C.3       3 GLC5        0.0000 
     96 CA         12.8550   28.9580    6.8510 C.3       6 GLP5        0.0000 
@<TRIPOS>BOND
@<TRIPOS>SUBSTRUCTURE
     1 ALC1        7 GROUP        1 X    ALC  0     ROOT ALC X 1
     2 SEC2       24 GROUP        1 X    SEC  0     **** SEC X 2
     3 GLC5        1 GROUP        1 X    GLC  0     **** GLC X 6
     4 ALP1        9 GROUP        1 Y    ALP  0     ROOT ALP Y 8
     5 SEP2       26 GROUP        1 Y    SEP  0     **** SEP Y 9
     6 GLP5        3 GROUP        1 Y    GLP  0     **** GLP Y 13
     7 ALL1        8 GROUP        1 Z    ALL  0     ROOT ALL Z 15
     8 SEL2       25 GROUP        1 Z    SEL  0     **** SEL Z 16
     9 GLL5        2 GROUP        1 Z    GLL  0     **** GLL Z 20
@<TRIPOS>SET

