#    Name: 1ec3_MS3_1_ligand
#    Modification time : Mon Mar 24 23:26:17 2014

@<TRIPOS>MOLECULE
1ec3_MS3_1_ligand
  108   111     1     0     0
SMALL
NO_CHARGES


@<TRIPOS>ATOM
      1 C01        16.2580   22.0690    9.0200 C.ar      1 MS3501      0.0000 
      2 C02        17.2040   20.9620    8.8780 C.ar      1 MS3501      0.0000 
      3 C03        16.9140   19.7040    9.5810 C.ar      1 MS3501      0.0000 
      4 C04        15.7160   19.5770   10.3940 C.ar      1 MS3501      0.0000 
      5 C05        14.7770   20.6800   10.5380 C.ar      1 MS3501      0.0000 
      6 C06        15.0370   21.9420    9.8500 C.ar      1 MS3501      0.0000 
      7 C07        10.4100   23.8130    2.2450 C.ar      1 MS3501      0.0000 
      8 C08         9.4040   22.8200    2.6310 C.ar      1 MS3501      0.0000 
      9 C09         8.0210   23.1350    2.5040 C.ar      1 MS3501      0.0000 
     10 C10         7.6300   24.4420    1.9920 C.ar      1 MS3501      0.0000 
     11 C11         8.6190   25.4440    1.6050 C.ar      1 MS3501      0.0000 
     12 C12        10.0230   25.1140    1.7390 C.ar      1 MS3501      0.0000 
     13 C13        11.8450   23.4500    2.4080 C.3       1 MS3501      0.0000 
     14 O14        12.1250   23.1500    3.7970 O.3       1 MS3501      0.0000 
     15 C15        12.2080   24.3230    4.6820 C.3       1 MS3501      0.0000 
     16 C16        13.3310   24.1430    5.6680 C.3       1 MS3501      0.0000 
     17 C17        14.6550   23.8250    5.0060 C.3       1 MS3501      0.0000 
     18 C18        15.5920   23.0810    5.9630 C.3       1 MS3501      0.0000 
     19 C19        15.4570   21.5490    5.7820 C.2       1 MS3501      0.0000 
     20 O20        14.4400   20.9420    6.1090 O.2       1 MS3501      0.0000 
     21 N21        16.5820   20.9290    5.2320 N.am      1 MS3501      0.0000 
     22 C22        16.7610   19.5050    4.9450 C.3       1 MS3501      0.0000 
     23 C23        16.5350   19.1420    3.4090 C.3       1 MS3501      0.0000 
     24 C24        16.7320   17.6340    3.0590 C.3       1 MS3501      0.0000 
     25 C25        15.1190   19.4960    2.9270 C.3       1 MS3501      0.0000 
     26 C26        18.1860   19.1630    5.4220 C.2       1 MS3501      0.0000 
     27 O27        19.1530   19.7580    4.9570 O.2       1 MS3501      0.0000 
     28 N28        18.2680   18.1630    6.3790 N.am      1 MS3501      0.0000 
     29 C29        19.7630   17.7430    6.9210 C.3       1 MS3501      0.0000 
     30 O30        15.3830   23.4530    7.3890 O.3       1 MS3501      0.0000 
     31 C31        16.4990   23.3290    8.3300 C.3       1 MS3501      0.0000 
     32 O32        15.1810   25.0700    4.5250 O.3       1 MS3501      0.0000 
     33 O33        13.4490   25.3190    6.5620 O.3       1 MS3501      0.0000 
     34 C34        10.9830   24.4830    5.5140 C.2       1 MS3501      0.0000 
     35 O35        10.5450   23.5130    6.1670 O.2       1 MS3501      0.0000 
     36 N36        10.3910   25.7350    5.5150 N.am      1 MS3501      0.0000 
     37 C37         9.1760   26.0730    6.2960 C.3       1 MS3501      0.0000 
     38 C38         9.4930   26.8710    7.6470 C.3       1 MS3501      0.0000 
     39 C39         8.2210   27.2190    8.4920 C.3       1 MS3501      0.0000 
     40 C40        10.4960   26.1380    8.5530 C.3       1 MS3501      0.0000 
     41 C41         8.2830   26.9130    5.3820 C.2       1 MS3501      0.0000 
     42 O42         8.7040   27.9590    4.9540 O.2       1 MS3501      0.0000 
     43 N43         7.0430   26.3810    5.1240 N.am      1 MS3501      0.0000 
     44 C44         6.0610   27.0570    4.2700 C.3       1 MS3501      0.0000 
     45 C45         4.9800   26.1070    3.7940 C.ar      1 MS3501      0.0000 
     46 C46         4.5590   26.1220    2.4130 C.ar      1 MS3501      0.0000 
     47 C47         3.5060   25.1750    2.0040 C.ar      1 MS3501      0.0000 
     48 C48         2.8930   24.2380    2.9630 C.ar      1 MS3501      0.0000 
     49 C49         3.4020   24.3200    4.3310 C.ar      1 MS3501      0.0000 
     50 N50         4.4050   25.2220    4.7190 N.ar      1 MS3501      0.0000 
     51 C51        19.9980   18.0340    8.4200 C.ar      1 MS3501      0.0000 
     52 C52        20.4810   19.3140    8.8350 C.ar      1 MS3501      0.0000 
     53 C53        20.6980   19.5820   10.2450 C.ar      1 MS3501      0.0000 
     54 C54        20.4220   18.5510   11.1980 C.ar      1 MS3501      0.0000 
     55 C55        19.9380   17.2790   10.7380 C.ar      1 MS3501      0.0000 
     56 N56        19.7390   17.0490    9.3780 N.ar      1 MS3501      0.0000 
     57 H          18.0192   21.0546    8.3236 H         1 MS3501      0.0000 
     58 H          17.5530   18.9306    9.4943 H         1 MS3501      0.0000 
     59 H          15.5288   18.6993   10.8729 H         1 MS3501      0.0000 
     60 H          13.9568   20.5764   11.1050 H         1 MS3501      0.0000 
     61 H          14.4105   22.7092    9.9313 H         1 MS3501      0.0000 
     62 H           9.7072   21.9259    2.9818 H         1 MS3501      0.0000 
     63 H           7.3089   22.4711    2.7615 H         1 MS3501      0.0000 
     64 H           6.6398   24.6640    1.9011 H         1 MS3501      0.0000 
     65 H           8.3300   26.3311    1.2580 H         1 MS3501      0.0000 
     66 H          10.7272   25.7862    1.4815 H         1 MS3501      0.0000 
     67 H          12.4671   24.2856    2.0593 H         1 MS3501      0.0000 
     68 H          12.0690   22.5830    1.7718 H         1 MS3501      0.0000 
     69 H          12.3836   25.2186    4.1294 H         1 MS3501      0.0000 
     70 H          13.0695   23.2660    6.3065 H         1 MS3501      0.0000 
     71 H          14.4347   23.1626    4.1613 H         1 MS3501      0.0000 
     72 H          16.6268   23.3363    5.6791 H         1 MS3501      0.0000 
     73 H          17.4210   21.5443    4.9840 H         1 MS3501      0.0000 
     74 H          16.0706   18.9165    5.5318 H         1 MS3501      0.0000 
     75 H          17.2381   19.7126    2.8126 H         1 MS3501      0.0000 
     76 H          17.5401   17.6579    6.7886 H         1 MS3501      0.0000 
     77 H          20.4786   18.2940    6.3109 H         1 MS3501      0.0000 
     78 H          19.8767   16.6781    6.7190 H         1 MS3501      0.0000 
     79 H          17.4356   23.2960    7.7960 H         1 MS3501      0.0000 
     80 H          16.4918   24.1512    9.0280 H         1 MS3501      0.0000 
     81 H          10.7924   26.5115    4.9470 H         1 MS3501      0.0000 
     82 H           8.6387   25.1803    6.5612 H         1 MS3501      0.0000 
     83 H           9.9531   27.8284    7.3550 H         1 MS3501      0.0000 
     84 H           6.7543   25.4719    5.5289 H         1 MS3501      0.0000 
     85 H           6.5548   27.4933    3.3877 H         1 MS3501      0.0000 
     86 H           5.5819   27.8846    4.8161 H         1 MS3501      0.0000 
     87 H           4.9558   26.7425    1.7518 H         1 MS3501      0.0000 
     88 H           3.1958   25.1678    1.0399 H         1 MS3501      0.0000 
     89 H           2.2013   23.6136    2.6991 H         1 MS3501      0.0000 
     90 H           2.9888   23.6738    5.0271 H         1 MS3501      0.0000 
     91 H          20.6738   20.0370    8.1558 H         1 MS3501      0.0000 
     92 H          21.0371   20.4808   10.5379 H         1 MS3501      0.0000 
     93 H          20.5650   18.7131   12.1836 H         1 MS3501      0.0000 
     94 H          19.7436   16.5491   11.4286 H         1 MS3501      0.0000 
     95 H          17.6563   17.3200    3.2762 H         1 MS3501      0.0000 
     96 H          16.0975   17.0494    3.5646 H         1 MS3501      0.0000 
     97 H          16.5829   17.4559    2.0863 H         1 MS3501      0.0000 
     98 H          14.9275   20.4728    3.0227 H         1 MS3501      0.0000 
     99 H          14.9859   19.2643    1.9634 H         1 MS3501      0.0000 
    100 H          14.4172   19.0075    3.4455 H         1 MS3501      0.0000 
    101 H           8.4551   27.7131    9.3293 H         1 MS3501      0.0000 
    102 H           7.5818   27.7940    7.9813 H         1 MS3501      0.0000 
    103 H           7.7213   26.3975    8.7665 H         1 MS3501      0.0000 
    104 H          11.3747   25.9975    8.0968 H         1 MS3501      0.0000 
    105 H          10.6801   26.6488    9.3928 H         1 MS3501      0.0000 
    106 H          10.1600   25.2365    8.8259 H         1 MS3501      0.0000 
    107 H          15.7699   25.4037    5.2611 H         1 MS3501      0.0000 
    108 H          14.3586   25.2431    6.9706 H         1 MS3501      0.0000 
@<TRIPOS>BOND
     1    2    1 ar   
     2    6    1 ar   
     3   31    1 1    
     4    3    2 ar   
     5   57    2 1    
     6    4    3 ar   
     7   58    3 1    
     8    5    4 ar   
     9   59    4 1    
    10    6    5 ar   
    11   60    5 1    
    12   61    6 1    
    13    8    7 ar   
    14   12    7 ar   
    15   13    7 1    
    16    9    8 ar   
    17   62    8 1    
    18   10    9 ar   
    19   63    9 1    
    20   11   10 ar   
    21   64   10 1    
    22   12   11 ar   
    23   65   11 1    
    24   66   12 1    
    25   14   13 1    
    26   67   13 1    
    27   68   13 1    
    28   15   14 1    
    29   16   15 1    
    30   34   15 1    
    31   69   15 1    
    32   17   16 1    
    33   33   16 1    
    34   70   16 1    
    35   18   17 1    
    36   32   17 1    
    37   71   17 1    
    38   19   18 1    
    39   30   18 1    
    40   72   18 1    
    41   20   19 2    
    42   21   19 am   
    43   22   21 1    
    44   73   21 1    
    45   23   22 1    
    46   26   22 1    
    47   74   22 1    
    48   24   23 1    
    49   25   23 1    
    50   75   23 1    
    51   95   24 1    
    52   96   24 1    
    53   97   24 1    
    54   98   25 1    
    55   99   25 1    
    56  100   25 1    
    57   27   26 2    
    58   28   26 am   
    59   29   28 1    
    60   76   28 1    
    61   51   29 1    
    62   77   29 1    
    63   78   29 1    
    64   31   30 1    
    65   79   31 1    
    66   80   31 1    
    67  107   32 1    
    68  108   33 1    
    69   35   34 2    
    70   36   34 am   
    71   37   36 1    
    72   81   36 1    
    73   38   37 1    
    74   41   37 1    
    75   82   37 1    
    76   39   38 1    
    77   40   38 1    
    78   83   38 1    
    79  101   39 1    
    80  102   39 1    
    81  103   39 1    
    82  104   40 1    
    83  105   40 1    
    84  106   40 1    
    85   42   41 2    
    86   43   41 am   
    87   44   43 1    
    88   84   43 1    
    89   45   44 1    
    90   85   44 1    
    91   86   44 1    
    92   46   45 ar   
    93   50   45 ar   
    94   47   46 ar   
    95   87   46 1    
    96   48   47 ar   
    97   88   47 1    
    98   49   48 ar   
    99   89   48 1    
   100   50   49 ar   
   101   90   49 1    
   102   52   51 ar   
   103   56   51 ar   
   104   53   52 ar   
   105   91   52 1    
   106   54   53 ar   
   107   92   53 1    
   108   55   54 ar   
   109   93   54 1    
   110   56   55 ar   
   111   94   55 1    
@<TRIPOS>SUBSTRUCTURE
     1 MS3501      1 GROUP   
@<TRIPOS>SET

