#    Name: 1foa_UD1_1_INTS_M
#    Modification time : Tue Mar 25 01:36:34 2014

@<TRIPOS>MOLECULE
1foa_UD1_1_INTS_M
   91     0    15     0     0
SMALL
NO_CHARGES


@<TRIPOS>ATOM
      1 CA         -1.8385   18.9835   15.2380 C.3       5 GLC5        0.0000 
      2 CA          0.1230   19.0250   14.6930 C.3      15 GLL5        0.0000 
      3 CA         -3.8000   18.9420   15.7830 C.3      10 GLP5        0.0000 
      4 CA          0.4645   21.0995   12.5275 C.3       5 GLC5        0.0000 
      5 CA          0.6140   20.4430   14.3350 C.3      15 GLL5        0.0000 
      6 CA          0.3150   21.7560   10.7200 C.3      10 GLP5        0.0000 
      7 CA          0.5805   23.2365   14.2705 C.3       5 GLC5        0.0000 
      8 CA         -0.3490   21.4330   14.9750 C.3      15 GLL5        0.0000 
      9 CA          1.5100   25.0400   13.5660 C.3      10 GLP5        0.0000 
     10 CA         -1.4475   21.1070   13.1580 C.3       5 GLC5        0.0000 
     11 CA         -2.5460   20.7810   11.3410 C.3      10 GLP5        0.0000 
     12 CA         -2.1640   21.1915   14.9020 C.3       5 GLC5        0.0000 
     13 CA         -3.9790   20.9500   14.8290 C.3      10 GLP5        0.0000 
     14 CA          3.9280   14.6585   16.3775 C.3       5 GLC5        0.0000 
     15 CA          5.0600   15.8860   16.2990 C.3      15 GLL5        0.0000 
     16 CA          2.7960   13.4310   16.4560 C.3      10 GLP5        0.0000 
     17 CA          6.6425   16.0590   16.7435 C.3       5 GLC5        0.0000 
     18 CA          8.2250   16.2320   17.1880 C.3      10 GLP5        0.0000 
     19 O           0.9790   15.9720   14.1860 O.2       1 ALC1        0.0000 
     20 O           0.7830   16.7640   15.2680 O.2      11 ALL1        0.0000 
     21 O           1.1750   15.1800   13.1040 O.2       6 ALP1        0.0000 
     22 N          -2.1105   19.2075   14.2920 N.am      2 SEC2        0.0000 
     23 N          -0.9180   18.6640   13.7880 N.am     12 SEL2        0.0000 
     24 N          -3.3030   19.7510   14.7960 N.am      7 SEP2        0.0000 
     25 O          -0.7995   17.4940   13.2935 O.2       1 ALC1        0.0000 
     26 O          -0.9180   18.6640   13.7880 O.2      11 ALL1        0.0000 
     27 O          -0.6810   16.3240   12.7990 O.2       6 ALP1        0.0000 
     28 O          -3.0300   21.2320    4.7730 O.2       1 ALC1        0.0000 
     29 O          -1.8460   21.0030    5.5350 O.2      11 ALL1        0.0000 
     30 O          -4.2140   21.4610    4.0110 O.2       6 ALP1        0.0000 
     31 CA          0.4725   20.5775    4.2530 C.3       5 GLC5        0.0000 
     32 CA          0.4750   21.3620    5.9670 C.3      15 GLL5        0.0000 
     33 CA          0.4700   19.7930    2.5390 C.3      10 GLP5        0.0000 
     34 CA         -0.3780   21.0295    3.9410 C.3       5 GLC5        0.0000 
     35 CA         -1.2310   20.6970    1.9150 C.3      10 GLP5        0.0000 
     36 CA          0.2015   19.1945    4.9380 C.3       5 GLC5        0.0000 
     37 CA          0.4510   20.2270    6.6940 C.3      15 GLL5        0.0000 
     38 CA         -0.0480   18.1620    3.1820 C.3      10 GLP5        0.0000 
     39 N          -4.1220   18.5430    6.1450 N.am      2 SEC2        0.0000 
     40 N          -2.9490   19.1990    6.3870 N.am     12 SEL2        0.0000 
     41 N          -5.2950   17.8870    5.9030 N.am      7 SEP2        0.0000 
     42 CA         -0.7935   20.0435    8.7290 C.3       5 GLC5        0.0000 
     43 CA         -0.6870   18.2260    7.6610 C.3      15 GLL5        0.0000 
     44 CA         -0.9000   21.8610    9.7970 C.3      10 GLP5        0.0000 
     45 CA          0.1935   17.7025    5.2520 C.3       5 GLC5        0.0000 
     46 CA          0.4350   17.2430    7.3220 C.3      15 GLL5        0.0000 
     47 O           0.9775   15.2165    6.7000 O.2       1 ALC1        0.0000 
     48 O           0.1130   16.4570    6.1900 O.2      11 ALL1        0.0000 
     49 O           1.8420   13.9760    7.2100 O.2       6 ALP1        0.0000 
     50 CA          0.4825   14.8445    9.9255 C.3       5 GLC5        0.0000 
     51 CA          0.5610   16.4640    8.6310 C.3      15 GLL5        0.0000 
     52 CA          0.4040   13.2250   11.2200 C.3      10 GLP5        0.0000 
     53 CA         -0.2350   15.7855   10.8360 C.3       5 GLC5        0.0000 
     54 CA          0.1350   17.4690    9.7070 C.3      15 GLL5        0.0000 
     55 CA         -0.6050   14.1020   11.9650 C.3      10 GLP5        0.0000 
     56 O           0.8070   14.6235    7.9530 O.2       1 ALC1        0.0000 
     57 O          -0.2280   15.2710    8.6960 O.2      11 ALL1        0.0000 
     58 NZ          4.8680   17.4245    7.8090 N.4       3 LYC4        0.0000 
     59 NZ          4.3820   19.0180    8.5410 N.4      13 LYL4        0.0000 
     60 NZ          5.3540   15.8310    7.0770 N.4       8 LYP4        0.0000 
     61 N           5.0955   20.1675    8.5615 N.am      2 SEC2        0.0000 
     62 N           4.3820   19.0180    8.5410 N.am     12 SEL2        0.0000 
     63 N           5.8090   21.3170    8.5820 N.am      7 SEP2        0.0000 
     64 NZ          4.2135   16.3740    8.9600 N.4       3 LYC4        0.0000 
     65 NZ          4.1600   17.1640   10.1120 N.4      13 LYL4        0.0000 
     66 Zn          4.7205   16.6655   10.8610 Zn        4 ZIC7        0.0000 
     67 Zn          4.1600   17.1640   10.1120 Zn       14 ZIL7        0.0000 
     68 Zn          5.2810   16.1670   11.6100 Zn        9 ZIP7        0.0000 
     69 N           5.2680   16.8490    8.8535 N.am      2 SEC2        0.0000 
     70 N           4.1600   17.1640   10.1120 N.am     12 SEL2        0.0000 
     71 N           6.3760   16.5340    7.5950 N.am      7 SEP2        0.0000 
     72 N           4.2135   16.3740    8.9600 N.am      2 SEC2        0.0000 
     73 N           4.2670   15.5840    7.8080 N.am      7 SEP2        0.0000 
     74 N           4.9790   20.4025    9.7755 N.am      2 SEC2        0.0000 
     75 N           4.1490   19.4880   10.9690 N.am     12 SEL2        0.0000 
     76 N           5.8535   21.4985   12.0260 N.am      2 SEC2        0.0000 
     77 N           5.4520   20.2380   13.0050 N.am     12 SEL2        0.0000 
     78 N           6.2550   22.7590   11.0470 N.am      7 SEP2        0.0000 
     79 N           5.5530   21.4210   13.4585 N.am      2 SEC2        0.0000 
     80 N           5.6540   22.6040   13.9120 N.am      7 SEP2        0.0000 
     81 Zn          5.0500   17.0075   12.1960 Zn        4 ZIC7        0.0000 
     82 Zn          4.8190   17.8480   12.7820 Zn       14 ZIL7        0.0000 
     83 N           5.8870   17.4905   11.8055 N.am      2 SEC2        0.0000 
     84 N           4.8190   17.8480   12.7820 N.am     12 SEL2        0.0000 
     85 N           6.9550   17.1330   10.8290 N.am      7 SEP2        0.0000 
     86 CA         -0.2185   21.3278    8.0637 C.3       5 GLC5        0.0000 
     87 CA          1.7025   21.4733    7.3122 C.3       5 GLC5        0.0000 
     88 CA          2.9420   22.1520    8.2940 C.3      10 GLP5        0.0000 
     89 CA          0.5150   19.7538   10.4108 C.3       5 GLC5        0.0000 
     90 CA         -1.7045   16.5513    8.2281 C.3       5 GLC5        0.0000 
     91 CA         -3.5200   15.7520    8.1260 C.3      10 GLP5        0.0000 
@<TRIPOS>BOND
@<TRIPOS>SUBSTRUCTURE
     1 ALC1       19 GROUP        1 X    ALC  0     ROOT ALC X 1
     2 SEC2       22 GROUP        1 X    SEC  0     **** SEC X 2
     3 LYC4       58 GROUP        1 X    LYC  0     **** LYC X 4
     4 ZIC7       66 GROUP        1 X    ZIC  0     **** ZIC X 5
     5 GLC5        1 GROUP        1 X    GLC  0     **** GLC X 6
     6 ALP1       21 GROUP        1 Y    ALP  0     ROOT ALP Y 8
     7 SEP2       24 GROUP        1 Y    SEP  0     **** SEP Y 9
     8 LYP4       60 GROUP        1 Y    LYP  0     **** LYP Y 11
     9 ZIP7       68 GROUP        1 Y    ZIP  0     **** ZIP Y 12
    10 GLP5        3 GROUP        1 Y    GLP  0     **** GLP Y 13
    11 ALL1       20 GROUP        1 Z    ALL  0     ROOT ALL Z 15
    12 SEL2       23 GROUP        1 Z    SEL  0     **** SEL Z 16
    13 LYL4       59 GROUP        1 Z    LYL  0     **** LYL Z 18
    14 ZIL7       67 GROUP        1 Z    ZIL  0     **** ZIL Z 19
    15 GLL5        2 GROUP        1 Z    GLL  0     **** GLL Z 20
@<TRIPOS>SET

