#    Name: 1foa_UD1_1_ligand
#    Modification time : Tue Mar 25 01:36:34 2014

@<TRIPOS>MOLECULE
1foa_UD1_1_ligand
   64    66     1     0     0
SMALL
NO_CHARGES


@<TRIPOS>ATOM
      1 C1'         2.9320   19.7170   14.6360 C.3       1 UD1449      0.0000 
      2 C2'         2.4840   18.4610   15.3710 C.3       1 UD1449      0.0000 
      3 C3'         1.2370   17.9610   14.6540 C.3       1 UD1449      0.0000 
      4 C4'         0.1230   19.0250   14.6930 C.3       1 UD1449      0.0000 
      5 C5'         0.6140   20.4430   14.3350 C.3       1 UD1449      0.0000 
      6 C6'        -0.3490   21.4330   14.9750 C.3       1 UD1449      0.0000 
      7 C7'         4.0990   17.0500   16.4860 C.2       1 UD1449      0.0000 
      8 C8'         5.0600   15.8860   16.2990 C.3       1 UD1449      0.0000 
      9 N2'         3.5340   17.4600   15.3490 N.am      1 UD1449      0.0000 
     10 O1'         3.0560   19.4260   13.2590 O.3       1 UD1449      0.0000 
     11 O3'         0.7830   16.7640   15.2680 O.3       1 UD1449      0.0000 
     12 O4'        -0.9180   18.6640   13.7880 O.3       1 UD1449      0.0000 
     13 O5'         1.9340   20.7200   14.8840 O.3       1 UD1449      0.0000 
     14 O6'        -0.2670   22.7120   14.3800 O.3       1 UD1449      0.0000 
     15 O7'         3.6890   17.3410   17.6290 O.2       1 UD1449      0.0000 
     16 N1         -0.7010   19.4610    6.8590 N.am      1 UD1449      0.0000 
     17 C2         -1.9080   19.8400    6.2690 C.2       1 UD1449      0.0000 
     18 N3         -1.8460   21.0030    5.5350 N.am      1 UD1449      0.0000 
     19 C4         -0.7270   21.8150    5.3290 C.2       1 UD1449      0.0000 
     20 C5          0.4750   21.3620    5.9670 C.2       1 UD1449      0.0000 
     21 C6          0.4510   20.2270    6.6940 C.2       1 UD1449      0.0000 
     22 O2         -2.9490   19.1990    6.3870 O.2       1 UD1449      0.0000 
     23 O4         -0.8320   22.8300    4.6370 O.2       1 UD1449      0.0000 
     24 C1B        -0.6870   18.2260    7.6610 C.3       1 UD1449      0.0000 
     25 C2B         0.4350   17.2430    7.3220 C.3       1 UD1449      0.0000 
     26 O2'         0.1130   16.4570    6.1900 O.3       1 UD1449      0.0000 
     27 C3B         0.5610   16.4640    8.6310 C.3       1 UD1449      0.0000 
     28 C4B         0.1350   17.4690    9.7070 C.3       1 UD1449      0.0000 
     29 O4B        -0.4970   18.5750    9.0160 O.3       1 UD1449      0.0000 
     30 O3B        -0.2280   15.2710    8.6960 O.3       1 UD1449      0.0000 
     31 C5B         1.2950   18.0340   10.4960 C.3       1 UD1449      0.0000 
     32 O5B         2.2190   18.6830    9.6100 O.3       1 UD1449      0.0000 
     33 PA          3.8010   18.5760    9.8270 P.3       1 UD1449      0.0000 
     34 O1A         4.3820   19.0180    8.5410 O.co2     1 UD1449      0.0000 
     35 O2A         4.1600   17.1640   10.1120 O.co2     1 UD1449      0.0000 
     36 O3A         4.1490   19.4880   10.9690 O.3       1 UD1449      0.0000 
     37 PB          4.4570   19.2630   12.5000 P.3       1 UD1449      0.0000 
     38 O1B         5.4520   20.2380   13.0050 O.co2     1 UD1449      0.0000 
     39 O2B         4.8190   17.8480   12.7820 O.co2     1 UD1449      0.0000 
     40 H           3.8756   20.0129   15.0688 H         1 UD1449      0.0000 
     41 H           2.2135   18.7348   16.3695 H         1 UD1449      0.0000 
     42 H           1.4926   17.7933   13.6138 H         1 UD1449      0.0000 
     43 H          -0.2662   19.0621   15.7127 H         1 UD1449      0.0000 
     44 H           0.5827   20.5709   13.2849 H         1 UD1449      0.0000 
     45 H          -0.1170   21.4681   16.0580 H         1 UD1449      0.0000 
     46 H          -1.3679   21.0055   14.8913 H         1 UD1449      0.0000 
     47 H           3.8086   17.0953   14.4240 H         1 UD1449      0.0000 
     48 H          -2.7608   21.3317    5.0619 H         1 UD1449      0.0000 
     49 H           1.3239   21.9233    5.8478 H         1 UD1449      0.0000 
     50 H           1.3316   19.8887    7.1652 H         1 UD1449      0.0000 
     51 H          -1.6298   17.6985    7.5513 H         1 UD1449      0.0000 
     52 H           1.3301   17.8287    7.2106 H         1 UD1449      0.0000 
     53 H           1.6171   16.2732    8.7930 H         1 UD1449      0.0000 
     54 H          -0.5613   17.0016   10.3661 H         1 UD1449      0.0000 
     55 H           1.7745   17.2098   11.0392 H         1 UD1449      0.0000 
     56 H           0.8953   18.7352   11.2396 H         1 UD1449      0.0000 
     57 H           5.8109   16.1199   15.6814 H         1 UD1449      0.0000 
     58 H           5.4707   15.6007   17.1650 H         1 UD1449      0.0000 
     59 H           4.6023   15.0847   15.9136 H         1 UD1449      0.0000 
     60 H           0.8821   16.0592   14.5655 H         1 UD1449      0.0000 
     61 H          -1.0291   17.6767   13.9021 H         1 UD1449      0.0000 
     62 H          -1.2126   23.0324   14.3242 H         1 UD1449      0.0000 
     63 H           0.7876   15.7189    6.1872 H         1 UD1449      0.0000 
     64 H           0.3077   14.5798    8.2110 H         1 UD1449      0.0000 
@<TRIPOS>BOND
     1    2    1 1    
     2   10    1 1    
     3   13    1 1    
     4   40    1 1    
     5    3    2 1    
     6    9    2 1    
     7   41    2 1    
     8    4    3 1    
     9   11    3 1    
    10   42    3 1    
    11    5    4 1    
    12   12    4 1    
    13   43    4 1    
    14    6    5 1    
    15   13    5 1    
    16   44    5 1    
    17   14    6 1    
    18   45    6 1    
    19   46    6 1    
    20    8    7 1    
    21    9    7 am   
    22   15    7 2    
    23   57    8 1    
    24   58    8 1    
    25   59    8 1    
    26   47    9 1    
    27   37   10 1    
    28   60   11 1    
    29   61   12 1    
    30   62   14 1    
    31   17   16 1    
    32   21   16 1    
    33   24   16 1    
    34   18   17 1    
    35   22   17 2    
    36   19   18 1    
    37   48   18 1    
    38   20   19 1    
    39   23   19 2    
    40   21   20 2    
    41   49   20 1    
    42   50   21 1    
    43   25   24 1    
    44   29   24 1    
    45   51   24 1    
    46   26   25 1    
    47   27   25 1    
    48   52   25 1    
    49   63   26 1    
    50   28   27 1    
    51   30   27 1    
    52   53   27 1    
    53   29   28 1    
    54   31   28 1    
    55   54   28 1    
    56   64   30 1    
    57   32   31 1    
    58   55   31 1    
    59   56   31 1    
    60   33   32 1    
    61   34   33 ar   
    62   35   33 ar   
    63   36   33 1    
    64   37   36 1    
    65   38   37 ar   
    66   39   37 ar   
@<TRIPOS>SUBSTRUCTURE
     1 UD1449      1 GROUP   
@<TRIPOS>SET

