#    Name: 4l0i_1UW_2_INTS_M
#    Modification time : Mon Apr  7 23:47:59 2014

@<TRIPOS>MOLECULE
4l0i_1UW_2_INTS_M
   50     0     6     0     0
SMALL
NO_CHARGES


@<TRIPOS>ATOM
      1 CA          9.5675   10.3900  -24.1005 C.3       2 GLC5        0.0000 
      2 CA         10.4550    8.7500  -24.7360 C.3       6 GLL5        0.0000 
      3 CA          8.6800   12.0300  -23.4650 C.3       4 GLP5        0.0000 
      4 CA         11.3335   10.1295  -23.7555 C.3       2 GLC5        0.0000 
      5 CA         12.2120   11.5090  -22.7750 C.3       4 GLP5        0.0000 
      6 CA          7.6805    7.9005  -24.9940 C.3       2 GLC5        0.0000 
      7 CA          9.5390    7.5270  -24.8880 C.3       6 GLL5        0.0000 
      8 CA          5.8220    8.2740  -25.1000 C.3       4 GLP5        0.0000 
      9 CA          9.5265    4.6165  -16.3230 C.3       2 GLC5        0.0000 
     10 CA          9.8910    6.4660  -17.2590 C.3       6 GLL5        0.0000 
     11 CA          9.1620    2.7670  -15.3870 C.3       4 GLP5        0.0000 
     12 CA         11.1545    7.5555  -17.4230 C.3       2 GLC5        0.0000 
     13 CA         12.4180    8.6450  -17.5870 C.3       4 GLP5        0.0000 
     14 CA         10.6600    8.3185  -12.9660 C.3       2 GLC5        0.0000 
     15 CA         10.5420    6.1260  -13.1930 C.3       6 GLL5        0.0000 
     16 CA         10.7780   10.5110  -12.7390 C.3       4 GLP5        0.0000 
     17 N           7.9860    9.2290  -14.6200 N.am      1 SEC2        0.0000 
     18 N           8.8110    8.0780  -14.2490 N.am      5 SEL2        0.0000 
     19 N           7.1610   10.3800  -14.9910 N.am      3 SEP2        0.0000 
     20 N           8.9005    8.6610  -12.9575 N.am      1 SEC2        0.0000 
     21 N           8.9900    9.2440  -11.6660 N.am      3 SEP2        0.0000 
     22 CA         10.3125    8.5370  -17.0835 C.3       2 GLC5        0.0000 
     23 CA          9.1640    7.2980  -16.3800 C.3       6 GLL5        0.0000 
     24 CA         11.4610    9.7760  -17.7870 C.3       4 GLP5        0.0000 
     25 CA         11.6835    7.3688  -23.8525 C.3       2 GLC5        0.0000 
     26 CA         13.3700    6.5990  -22.8930 C.3       4 GLP5        0.0000 
     27 CA         11.5730    6.2508  -22.0260 C.3       2 GLC5        0.0000 
     28 CA          9.2910    6.2820  -21.4870 C.3       6 GLL5        0.0000 
     29 CA          7.1810    8.7150  -19.8547 C.3       2 GLC5        0.0000 
     30 CA          8.4870    7.1150  -20.6910 C.3       6 GLL5        0.0000 
     31 CA          5.7800   10.2790  -19.7100 C.3       4 GLP5        0.0000 
     32 CA         10.3187    8.2930  -18.3852 C.3       2 GLC5        0.0000 
     33 CA          8.6770    7.1870  -19.3080 C.3       6 GLL5        0.0000 
     34 CA         10.2817    3.7492  -20.1683 C.3       2 GLC5        0.0000 
     35 CA         10.4540    5.6000  -19.4540 C.3       6 GLL5        0.0000 
     36 CA         10.2060    1.9370  -20.1940 C.3       4 GLP5        0.0000 
     37 CA         10.3373    3.8935  -15.2973 C.3       2 GLC5        0.0000 
     38 CA         11.0570    5.5020  -15.4470 C.3       6 GLL5        0.0000 
     39 CA         10.4827    3.7750  -14.2680 C.3       2 GLC5        0.0000 
     40 CA         12.1560    4.3840  -13.6020 C.3       6 GLL5        0.0000 
     41 CA         12.5008    3.9330  -11.3895 C.3       2 GLC5        0.0000 
     42 CA         11.4510    5.1820  -12.6960 C.3       6 GLL5        0.0000 
     43 CA         13.1980    3.0830   -9.6300 C.3       4 GLP5        0.0000 
     44 CA          9.0672    5.0860  -12.2988 C.3       2 GLC5        0.0000 
     45 CA          7.1380    4.5180  -11.6530 C.3       4 GLP5        0.0000 
     46 CA         10.7348    6.2935  -11.2767 C.3       2 GLC5        0.0000 
     47 CA         10.4730    6.9330   -9.6090 C.3       4 GLP5        0.0000 
     48 CA          9.8060    4.4965  -14.6335 C.3       2 GLC5        0.0000 
     49 CA         12.4894    6.3568  -12.1860 C.3       2 GLC5        0.0000 
     50 CA         13.8060    7.2590  -11.2010 C.3       4 GLP5        0.0000 
@<TRIPOS>BOND
@<TRIPOS>SUBSTRUCTURE
     1 SEC2       17 GROUP        1 X    SEC  0     ROOT SEC X 2
     2 GLC5        1 GROUP        1 X    GLC  0     **** GLC X 6
     3 SEP2       19 GROUP        1 Y    SEP  0     ROOT SEP Y 9
     4 GLP5        3 GROUP        1 Y    GLP  0     **** GLP Y 13
     5 SEL2       18 GROUP        1 Z    SEL  0     ROOT SEL Z 16
     6 GLL5        2 GROUP        1 Z    GLL  0     **** GLL Z 20
@<TRIPOS>SET

