#    Name: 4l0i_1UW_2_ligand
#    Modification time : Mon Apr  7 23:47:59 2014

@<TRIPOS>MOLECULE
4l0i_1UW_2_ligand
   36    38     1     0     0
SMALL
NO_CHARGES


@<TRIPOS>ATOM
      1 CAV        10.4550    8.7500  -24.7360 C.3       1 1UW1201     0.0000 
      2 CAS         9.5390    7.5270  -24.8880 C.3       1 1UW1201     0.0000 
      3 OAP         8.8420    7.3020  -23.6100 O.3       1 1UW1201     0.0000 
      4 CAG         9.1280    6.1540  -22.8980 C.2       1 1UW1201     0.0000 
      5 OAK         9.2030    5.0410  -23.4300 O.2       1 1UW1201     0.0000 
      6 CAI         9.2910    6.2820  -21.4870 C.ar      1 1UW1201     0.0000 
      7 CAO         8.4870    7.1150  -20.6910 C.ar      1 1UW1201     0.0000 
      8 CAM         8.6770    7.1870  -19.3080 C.ar      1 1UW1201     0.0000 
      9 CAN        10.2610    5.5230  -20.8310 C.ar      1 1UW1201     0.0000 
     10 CAL        10.4540    5.6000  -19.4540 C.ar      1 1UW1201     0.0000 
     11 CAH         9.6760    6.4330  -18.6590 C.ar      1 1UW1201     0.0000 
     12 CAA         9.8910    6.4660  -17.2590 C.2       1 1UW1201     0.0000 
     13 OAC        10.8640    5.6190  -16.7960 O.3       1 1UW1201     0.0000 
     14 CAF        11.0570    5.5020  -15.4470 C.ar      1 1UW1201     0.0000 
     15 CAR        11.9680    4.5380  -14.9680 C.ar      1 1UW1201     0.0000 
     16 CAU        12.1560    4.3840  -13.6020 C.ar      1 1UW1201     0.0000 
     17 CAT        11.4510    5.1820  -12.6960 C.ar      1 1UW1201     0.0000 
     18 CAQ        10.5420    6.1260  -13.1930 C.ar      1 1UW1201     0.0000 
     19 CAE        10.3580    6.3260  -14.5670 C.ar      1 1UW1201     0.0000 
     20 CAD         9.4220    7.2890  -15.0230 C.2       1 1UW1201     0.0000 
     21 OAJ         8.8110    8.0780  -14.2490 O.2       1 1UW1201     0.0000 
     22 CAB         9.1640    7.2980  -16.3800 C.2       1 1UW1201     0.0000 
     23 H          10.1511    6.6711  -25.1516 H         1 1UW1201     0.0000 
     24 H           8.8313    7.7260  -25.6857 H         1 1UW1201     0.0000 
     25 H           7.7478    7.6795  -21.1358 H         1 1UW1201     0.0000 
     26 H           8.0720    7.8077  -18.7418 H         1 1UW1201     0.0000 
     27 H          10.8591    4.8788  -21.3901 H         1 1UW1201     0.0000 
     28 H          11.1952    5.0223  -19.0131 H         1 1UW1201     0.0000 
     29 H          12.4850    3.9576  -15.6355 H         1 1UW1201     0.0000 
     30 H          12.8184    3.6783  -13.2483 H         1 1UW1201     0.0000 
     31 H          11.5940    5.0806  -11.6945 H         1 1UW1201     0.0000 
     32 H           9.9886    6.6939  -12.5222 H         1 1UW1201     0.0000 
     33 H           8.4342    7.9151  -16.7688 H         1 1UW1201     0.0000 
     34 H          11.1393    8.6147  -24.0195 H         1 1UW1201     0.0000 
     35 H          10.9510    8.9498  -25.5810 H         1 1UW1201     0.0000 
     36 H           9.9393    9.5729  -24.4972 H         1 1UW1201     0.0000 
@<TRIPOS>BOND
     1    2    1 1    
     2   34    1 1    
     3   35    1 1    
     4   36    1 1    
     5    3    2 1    
     6   23    2 1    
     7   24    2 1    
     8    4    3 1    
     9    5    4 2    
    10    6    4 1    
    11    7    6 ar   
    12    9    6 ar   
    13    8    7 ar   
    14   25    7 1    
    15   11    8 ar   
    16   26    8 1    
    17   10    9 ar   
    18   27    9 1    
    19   11   10 ar   
    20   28   10 1    
    21   12   11 1    
    22   13   12 1    
    23   22   12 2    
    24   14   13 1    
    25   15   14 ar   
    26   19   14 ar   
    27   16   15 ar   
    28   29   15 1    
    29   17   16 ar   
    30   30   16 1    
    31   18   17 ar   
    32   31   17 1    
    33   19   18 ar   
    34   32   18 1    
    35   20   19 1    
    36   21   20 2    
    37   22   20 1    
    38   33   22 1    
@<TRIPOS>SUBSTRUCTURE
     1 1UW1201     1 GROUP   
@<TRIPOS>SET

