#    Name: 4jpg_1OX_1_INTS_M
#    Modification time : Tue Mar 25 06:11:48 2014

@<TRIPOS>MOLECULE
4jpg_1OX_1_INTS_M
   38     0     6     0     0
SMALL
NO_CHARGES


@<TRIPOS>ATOM
      1 CA          6.9250   -1.0105    7.4575 C.3       2 GLC5        0.0000 
      2 CA          8.2520    0.5160    7.7930 C.3       6 GLL5        0.0000 
      3 CA          5.5980   -2.5370    7.1220 C.3       4 GLP5        0.0000 
      4 CA          8.5625   -1.1100    9.2380 C.3       2 GLC5        0.0000 
      5 CA          8.8730   -2.7360   10.6830 C.3       4 GLP5        0.0000 
      6 CA         11.6010    2.2710    6.9815 C.3       2 GLC5        0.0000 
      7 CA          9.3970    2.2380    6.5570 C.3       6 GLL5        0.0000 
      8 CA         13.8050    2.3040    7.4060 C.3       4 GLP5        0.0000 
      9 CA          6.2865    3.0225    7.5315 C.3       2 GLC5        0.0000 
     10 CA          8.0130    2.7200    8.4730 C.3       6 GLL5        0.0000 
     11 CA          4.5600    3.3250    6.5900 C.3       4 GLP5        0.0000 
     12 CA         12.6940    2.6650   16.3295 C.3       2 GLC5        0.0000 
     13 CA         11.2480    3.3220   14.9380 C.3       6 GLL5        0.0000 
     14 CA         14.1400    2.0080   17.7210 C.3       4 GLP5        0.0000 
     15 CA          5.7265    3.6450    8.4615 C.3       2 GLC5        0.0000 
     16 CA          6.8930    3.9650   10.3330 C.3       6 GLL5        0.0000 
     17 CA          6.5530    4.1340   12.3900 C.3       2 GLC5        0.0000 
     18 CA          6.2130    4.3030   14.4470 C.3       4 GLP5        0.0000 
     19 N           9.0495    5.3760    6.3480 N.am      1 SEC2        0.0000 
     20 N           8.9970    4.5030    7.4930 N.am      5 SEL2        0.0000 
     21 N           9.1020    6.2490    5.2030 N.am      3 SEP2        0.0000 
     22 CA          9.9943   -0.6125    7.5900 C.3       2 GLC5        0.0000 
     23 CA          9.0710    0.9120    6.7570 C.3       6 GLL5        0.0000 
     24 CA         11.3270   -1.9390    7.9050 C.3       4 GLP5        0.0000 
     25 CA         10.4770    1.0000    5.0750 C.3       2 GLC5        0.0000 
     26 CA         11.7200    0.4250    3.4930 C.3       4 GLP5        0.0000 
     27 CA          7.7343    3.1090    5.9283 C.3       2 GLC5        0.0000 
     28 CA          6.3440    3.5270    4.8510 C.3       4 GLP5        0.0000 
     29 CA          9.6543    3.5935    5.4138 C.3       2 GLC5        0.0000 
     30 CA          8.8520    3.1440    7.4540 C.3       6 GLL5        0.0000 
     31 CA         10.1840    4.4960    3.8220 C.3       4 GLP5        0.0000 
     32 CA          6.8549    1.1553    6.7438 C.3       2 GLC5        0.0000 
     33 CA          5.5400    1.2550    5.5070 C.3       4 GLP5        0.0000 
     34 CA         12.0028    1.5413   13.8155 C.3       2 GLC5        0.0000 
     35 CA         10.2650    2.4570   14.5020 C.3       6 GLL5        0.0000 
     36 CA         13.2490    0.1930   12.9110 C.3       4 GLP5        0.0000 
     37 CA          9.2287    2.7748   16.1330 C.3       2 GLC5        0.0000 
     38 CA          7.7010    2.6600   17.5460 C.3       4 GLP5        0.0000 
@<TRIPOS>BOND
@<TRIPOS>SUBSTRUCTURE
     1 SEC2       19 GROUP        1 X    SEC  0     ROOT SEC X 2
     2 GLC5        1 GROUP        1 X    GLC  0     **** GLC X 6
     3 SEP2       21 GROUP        1 Y    SEP  0     ROOT SEP Y 9
     4 GLP5        3 GROUP        1 Y    GLP  0     **** GLP Y 13
     5 SEL2       20 GROUP        1 Z    SEL  0     ROOT SEL Z 16
     6 GLL5        2 GROUP        1 Z    GLL  0     **** GLL Z 20
@<TRIPOS>SET

