#    Name: 4jpg_1OX_1_ligand
#    Modification time : Tue Mar 25 06:11:48 2014

@<TRIPOS>MOLECULE
4jpg_1OX_1_ligand
   33    36     1     0     0
SMALL
NO_CHARGES


@<TRIPOS>ATOM
      1 C1          9.0710    0.9120    6.7570 C.ar      1 1OX602      0.0000 
      2 C2          8.2520    0.5160    7.7930 C.ar      1 1OX602      0.0000 
      3 C3          9.3970    2.2380    6.5570 C.ar      1 1OX602      0.0000 
      4 C4          7.6780    1.3970    8.6860 C.ar      1 1OX602      0.0000 
      5 C5          8.2910    4.9170    8.5230 C.2       1 1OX602      0.0000 
      6 C6          8.8520    3.1440    7.4540 C.ar      1 1OX602      0.0000 
      7 C7          8.0130    2.7200    8.4730 C.ar      1 1OX602      0.0000 
      8 C8         11.3890    4.5480   14.3170 C.2       1 1OX602      0.0000 
      9 C9         10.5530    4.8940   13.2790 C.2       1 1OX602      0.0000 
     10 C10        11.2480    3.3220   14.9380 C.2       1 1OX602      0.0000 
     11 C11         7.5120    2.2620   11.9720 C.2       1 1OX602      0.0000 
     12 C12        10.2650    2.4570   14.5020 C.2       1 1OX602      0.0000 
     13 C13         7.7330    3.4710   11.4490 C.2       1 1OX602      0.0000 
     14 C14         9.5850    3.9920   12.8840 C.2       1 1OX602      0.0000 
     15 C15         8.4380    1.9020   13.0640 C.2       1 1OX602      0.0000 
     16 C16         6.8930    3.9650   10.3330 C.3       1 1OX602      0.0000 
     17 N17         8.9970    4.5030    7.4930 N.2       1 1OX602      0.0000 
     18 N18         8.7210    4.3380   11.8360 N.2       1 1OX602      0.0000 
     19 N19         7.6860    3.8680    9.1370 N.pl3     1 1OX602      0.0000 
     20 N20         9.4570    2.8050   13.4920 N.am      1 1OX602      0.0000 
     21 O21         8.3540    0.8140   13.6280 O.2       1 1OX602      0.0000 
     22 H           9.4545    0.1910    6.1071 H         1 1OX602      0.0000 
     23 H           8.0537   -0.5144    7.9092 H         1 1OX602      0.0000 
     24 H           9.9946    2.5331    5.8056 H         1 1OX602      0.0000 
     25 H           7.0757    1.1060    9.4191 H         1 1OX602      0.0000 
     26 H           8.1993    5.8491    8.8249 H         1 1OX602      0.0000 
     27 H          12.1214    5.2030   14.6325 H         1 1OX602      0.0000 
     28 H          10.6454    5.7973   12.8105 H         1 1OX602      0.0000 
     29 H          11.8661    3.0587   15.7129 H         1 1OX602      0.0000 
     30 H           6.8174    1.6189   11.7055 H         1 1OX602      0.0000 
     31 H          10.1656    1.5336   14.9723 H         1 1OX602      0.0000 
     32 H           6.6038    4.9957   10.5287 H         1 1OX602      0.0000 
     33 H           5.9962    3.3531   10.2590 H         1 1OX602      0.0000 
@<TRIPOS>BOND
     1    2    1 ar   
     2    3    1 ar   
     3   22    1 1    
     4    4    2 ar   
     5   23    2 1    
     6    6    3 ar   
     7   24    3 1    
     8    7    4 ar   
     9   25    4 1    
    10   17    5 2    
    11   19    5 1    
    12   26    5 1    
    13    7    6 ar   
    14   17    6 1    
    15   19    7 1    
    16    9    8 2    
    17   10    8 1    
    18   27    8 1    
    19   14    9 1    
    20   28    9 1    
    21   12   10 2    
    22   29   10 1    
    23   13   11 2    
    24   15   11 1    
    25   30   11 1    
    26   20   12 1    
    27   31   12 1    
    28   16   13 1    
    29   18   13 1    
    30   18   14 2    
    31   20   14 1    
    32   20   15 am   
    33   21   15 2    
    34   19   16 1    
    35   32   16 1    
    36   33   16 1    
@<TRIPOS>SUBSTRUCTURE
     1 1OX602      1 GROUP   
@<TRIPOS>SET

