#    Name: 4fxy_0W2_2_INTS_M
#    Modification time : Mon Mar 24 21:02:36 2014

@<TRIPOS>MOLECULE
4fxy_0W2_2_INTS_M
   83     0     6     0     0
SMALL
NO_CHARGES


@<TRIPOS>ATOM
      1 CA         48.5635  -30.9260  113.4250 C.3       2 GLC5        0.0000 
      2 CA         47.5510  -29.3540  114.3260 C.3       6 GLL5        0.0000 
      3 CA         49.5760  -32.4980  112.5240 C.3       4 GLP5        0.0000 
      4 CA         51.1405  -29.9010  115.8680 C.3       2 GLC5        0.0000 
      5 CA         49.9870  -31.8120  115.9300 C.3       6 GLL5        0.0000 
      6 CA         52.2940  -27.9900  115.8060 C.3       4 GLP5        0.0000 
      7 CA         44.1895  -25.1640  116.6790 C.3       2 GLC5        0.0000 
      8 CA         44.3690  -25.5250  118.6760 C.3       6 GLL5        0.0000 
      9 CA         44.0100  -24.8030  114.6820 C.3       4 GLP5        0.0000 
     10 N          45.5020  -26.8975  116.1820 N.am      1 SEC2        0.0000 
     11 N          46.3190  -26.7580  117.1980 N.am      5 SEL2        0.0000 
     12 N          44.6850  -27.0370  115.1660 N.am      3 SEP2        0.0000 
     13 CA         45.0180  -33.5835  116.0135 C.3       2 GLC5        0.0000 
     14 CA         46.7850  -33.5560  116.3920 C.3       6 GLL5        0.0000 
     15 CA         43.2510  -33.6110  115.6350 C.3       4 GLP5        0.0000 
     16 CA         47.5595  -33.2955  114.3105 C.3       2 GLC5        0.0000 
     17 CA         48.3340  -33.0350  112.2290 C.3       4 GLP5        0.0000 
     18 CA         47.5830  -31.8140  113.5835 C.3       2 GLC5        0.0000 
     19 CA         46.8320  -30.5930  114.9380 C.3       6 GLL5        0.0000 
     20 CA         42.5595  -31.7720  114.6625 C.3       2 GLC5        0.0000 
     21 CA         42.9600  -30.0810  114.7500 C.3       6 GLL5        0.0000 
     22 CA         42.1590  -33.4630  114.5750 C.3       4 GLP5        0.0000 
     23 CA         45.0035  -29.5805  111.2270 C.3       2 GLC5        0.0000 
     24 CA         44.5990  -30.5000  112.6740 C.3       6 GLL5        0.0000 
     25 CA         45.4080  -28.6610  109.7800 C.3       4 GLP5        0.0000 
     26 CA         44.3415  -28.4680  112.8050 C.3       2 GLC5        0.0000 
     27 CA         44.0840  -26.4360  112.9360 C.3       4 GLP5        0.0000 
     28 CA         42.9105  -30.2540  111.9355 C.3       2 GLC5        0.0000 
     29 CA         41.2220  -30.0080  111.1970 C.3       4 GLP5        0.0000 
     30 CA         43.6375  -32.0310  112.9035 C.3       2 GLC5        0.0000 
     31 CA         42.6760  -33.5620  113.1330 C.3       4 GLP5        0.0000 
     32 CA         45.4285  -31.8505  111.7350 C.3       2 GLC5        0.0000 
     33 CA         46.2580  -33.2010  110.7960 C.3       4 GLP5        0.0000 
     34 CA         50.2880  -28.3445  115.6370 C.3       2 GLC5        0.0000 
     35 CA         48.2820  -28.6990  115.4680 C.3       6 GLL5        0.0000 
     36 CA         48.1520  -26.7095  115.0700 C.3       2 GLC5        0.0000 
     37 CA         48.0220  -24.7200  114.6720 C.3       4 GLP5        0.0000 
     38 CA         41.4895  -26.8245  122.3740 C.3       2 GLC5        0.0000 
     39 CA         42.6720  -25.3940  121.1500 C.3       6 GLL5        0.0000 
     40 CA         40.3070  -28.2550  123.5980 C.3       4 GLP5        0.0000 
     41 CA         43.3675  -26.3825  122.8590 C.3       2 GLC5        0.0000 
     42 CA         44.0630  -27.3710  124.5680 C.3       4 GLP5        0.0000 
     43 CA         41.2460  -27.5330  121.4060 C.3       2 GLC5        0.0000 
     44 CA         43.0340  -26.7500  120.4780 C.3       6 GLL5        0.0000 
     45 CA         39.4580  -28.3160  122.3340 C.3       4 GLP5        0.0000 
     46 CA         44.2400  -28.1085  121.1315 C.3       2 GLC5        0.0000 
     47 CA         45.4460  -29.4670  121.7850 C.3       4 GLP5        0.0000 
     48 CA         42.9400  -25.4085  116.5145 C.3       2 GLC5        0.0000 
     49 CA         41.8700  -26.0140  118.3470 C.3       6 GLL5        0.0000 
     50 CA         40.0165  -26.2595  117.3495 C.3       2 GLC5        0.0000 
     51 CA         38.1630  -26.5050  116.3520 C.3       4 GLP5        0.0000 
     52 CA         40.5515  -23.8685  117.3870 C.3       2 GLC5        0.0000 
     53 CA         41.5110  -24.6580  118.9840 C.3       6 GLL5        0.0000 
     54 CA         39.5920  -23.0790  115.7900 C.3       4 GLP5        0.0000 
     55 CA         40.4935  -22.8165  120.4645 C.3       2 GLC5        0.0000 
     56 CA         41.3360  -24.8590  120.5290 C.3       6 GLL5        0.0000 
     57 CA         39.6510  -20.7740  120.4000 C.3       4 GLP5        0.0000 
     58 CA         40.3970  -26.5875  121.4315 C.3       2 GLC5        0.0000 
     59 CA         43.3340  -24.2240  116.7060 C.3       2 GLC5        0.0000 
     60 CA         42.6580  -23.6450  118.7300 C.3       6 GLL5        0.0000 
     61 CA         41.5155  -22.7215  117.3895 C.3       2 GLC5        0.0000 
     62 CA         40.3730  -21.7980  116.0490 C.3       4 GLP5        0.0000 
     63 CA         41.1545  -22.2095  119.5650 C.3       2 GLC5        0.0000 
     64 CA         50.8572  -27.8880  117.1877 C.3       2 GLC5        0.0000 
     65 CA         48.7580  -27.8090  118.1820 C.3       6 GLL5        0.0000 
     66 CA         49.6418  -25.8965  119.2018 C.3       2 GLC5        0.0000 
     67 CA         50.0830  -27.7630  118.9570 C.3       6 GLL5        0.0000 
     68 CA         49.8630  -24.0070  119.8340 C.3       4 GLP5        0.0000 
     69 CA         47.2092  -35.2555  115.3117 C.3       2 GLC5        0.0000 
     70 CA         46.7730  -36.7990  114.3180 C.3       4 GLP5        0.0000 
     71 CA         43.1950  -31.7745  116.1180 C.3       2 GLC5        0.0000 
     72 CA         43.6500  -29.9650  117.0810 C.3       6 GLL5        0.0000 
     73 CA         42.4295  -30.1000  112.8805 C.3       2 GLC5        0.0000 
     74 CA         43.9970  -31.9486  115.4183 C.3       2 GLC5        0.0000 
     75 CA         44.3140  -30.3030  114.3780 C.3       6 GLL5        0.0000 
     76 CA         44.1938  -22.4070  120.9410 C.3       2 GLC5        0.0000 
     77 CA         43.9970  -24.1650  119.3390 C.3       6 GLL5        0.0000 
     78 CA         44.4810  -20.5530  121.7770 C.3       4 GLP5        0.0000 
     79 CA         43.5690  -23.9393  122.8843 C.3       2 GLC5        0.0000 
     80 CA         43.8160  -24.3570  120.8710 C.3       6 GLL5        0.0000 
     81 CA         43.8940  -23.0030  124.7580 C.3       4 GLP5        0.0000 
     82 CA         39.6638  -24.7273  120.1792 C.3       2 GLC5        0.0000 
     83 CA         37.9040  -24.6960  120.6020 C.3       4 GLP5        0.0000 
@<TRIPOS>BOND
@<TRIPOS>SUBSTRUCTURE
     1 SEC2       10 GROUP        1 X    SEC  0     ROOT SEC X 2
     2 GLC5        1 GROUP        1 X    GLC  0     **** GLC X 6
     3 SEP2       12 GROUP        1 Y    SEP  0     ROOT SEP Y 9
     4 GLP5        3 GROUP        1 Y    GLP  0     **** GLP Y 13
     5 SEL2       11 GROUP        1 Z    SEL  0     ROOT SEL Z 16
     6 GLL5        2 GROUP        1 Z    GLL  0     **** GLL Z 20
@<TRIPOS>SET

