#    Name: 4fxy_0W2_2_ligand
#    Modification time : Mon Mar 24 21:02:36 2014

@<TRIPOS>MOLECULE
4fxy_0W2_2_ligand
   71    76     1     0     0
SMALL
NO_CHARGES


@<TRIPOS>ATOM
      1 C5         48.7580  -27.8090  118.1820 C.3       1 0W2701      0.0000 
      2 C6         46.5620  -26.6650  118.4020 C.2       1 0W2701      0.0000 
      3 N1         47.6760  -30.9370  116.1280 N.pl3     1 0W2701      0.0000 
      4 C2         47.5510  -29.3540  114.3260 C.3       1 0W2701      0.0000 
      5 N3         47.7060  -27.1420  118.9460 N.am      1 0W2701      0.0000 
      6 C4         48.3700  -29.2580  117.9020 C.2       1 0W2701      0.0000 
      7 C11        48.5760  -31.9790  116.0950 C.ar      1 0W2701      0.0000 
      8 C12        48.0790  -33.3130  116.2320 C.ar      1 0W2701      0.0000 
      9 C13        48.9330  -34.4230  116.2060 C.ar      1 0W2701      0.0000 
     10 C14        50.3240  -34.2300  116.0400 C.ar      1 0W2701      0.0000 
     11 C15        50.8470  -32.9170  115.9050 C.ar      1 0W2701      0.0000 
     12 C16        49.9870  -31.8120  115.9300 C.ar      1 0W2701      0.0000 
     13 C31        44.3690  -25.5250  118.6760 C.3       1 0W2701      0.0000 
     14 N4         45.6230  -26.0610  119.1870 N.am      1 0W2701      0.0000 
     15 O1         46.3190  -26.7580  117.1980 O.2       1 0W2701      0.0000 
     16 C66        50.0830  -27.7630  118.9570 C.3       1 0W2701      0.0000 
     17 O2         48.2250  -30.0320  118.8460 O.2       1 0W2701      0.0000 
     18 N2         48.1340  -29.6550  116.5930 N.am      1 0W2701      0.0000 
     19 F1         46.7850  -33.5560  116.3920 F         1 0W2701      0.0000 
     20 C1         46.8320  -30.5930  114.9380 C.3       1 0W2701      0.0000 
     21 C21        45.3670  -30.3580  115.3380 C.ar      1 0W2701      0.0000 
     22 C26        44.9770  -30.1810  116.7120 C.ar      1 0W2701      0.0000 
     23 C25        43.6500  -29.9650  117.0810 C.ar      1 0W2701      0.0000 
     24 C24        42.6280  -29.9110  116.1210 C.ar      1 0W2701      0.0000 
     25 C23        42.9600  -30.0810  114.7500 C.ar      1 0W2701      0.0000 
     26 C22        44.3140  -30.3030  114.3780 C.ar      1 0W2701      0.0000 
     27 CL1        44.5990  -30.5000  112.6740 Cl        1 0W2701      0.0000 
     28 C3         48.2820  -28.6990  115.4680 C.3       1 0W2701      0.0000 
     29 C36        43.9970  -24.1650  119.3390 C.3       1 0W2701      0.0000 
     30 C37        43.8160  -24.3570  120.8710 C.3       1 0W2701      0.0000 
     31 C38        42.6720  -25.3940  121.1500 C.3       1 0W2701      0.0000 
     32 C40        43.0340  -26.7500  120.4780 C.3       1 0W2701      0.0000 
     33 C32        43.2080  -26.5700  118.9340 C.3       1 0W2701      0.0000 
     34 C33        41.8700  -26.0140  118.3470 C.3       1 0W2701      0.0000 
     35 C34        41.5110  -24.6580  118.9840 C.3       1 0W2701      0.0000 
     36 C39        41.3360  -24.8590  120.5290 C.3       1 0W2701      0.0000 
     37 C35        42.6580  -23.6450  118.7300 C.3       1 0W2701      0.0000 
     38 H          48.9093  -27.3097  117.2347 H         1 0W2701      0.0000 
     39 H          46.8127  -28.6963  113.9238 H         1 0W2701      0.0000 
     40 H          48.2382  -29.6921  113.5825 H         1 0W2701      0.0000 
     41 H          47.8898  -27.0481  119.9779 H         1 0W2701      0.0000 
     42 H          48.5599  -35.3668  116.3057 H         1 0W2701      0.0000 
     43 H          50.9531  -35.0317  116.0169 H         1 0W2701      0.0000 
     44 H          51.8548  -32.7869  115.7897 H         1 0W2701      0.0000 
     45 H          50.3629  -30.8610  115.8293 H         1 0W2701      0.0000 
     46 H          44.4142  -25.3741  117.6070 H         1 0W2701      0.0000 
     47 H          45.7779  -25.9591  120.2187 H         1 0W2701      0.0000 
     48 H          46.9043  -31.3950  114.2267 H         1 0W2701      0.0000 
     49 H          45.7173  -30.2184  117.4329 H         1 0W2701      0.0000 
     50 H          43.4105  -29.8419  118.0794 H         1 0W2701      0.0000 
     51 H          41.6638  -29.7533  116.3937 H         1 0W2701      0.0000 
     52 H          42.2352  -30.0442  114.0403 H         1 0W2701      0.0000 
     53 H          47.8169  -27.7653  115.7047 H         1 0W2701      0.0000 
     54 H          49.3133  -28.5766  115.2122 H         1 0W2701      0.0000 
     55 H          44.7609  -23.4605  119.1566 H         1 0W2701      0.0000 
     56 H          43.5470  -23.4148  121.3197 H         1 0W2701      0.0000 
     57 H          44.7337  -24.7305  121.2950 H         1 0W2701      0.0000 
     58 H          42.5550  -25.5227  122.1829 H         1 0W2701      0.0000 
     59 H          42.2395  -27.4597  120.6597 H         1 0W2701      0.0000 
     60 H          43.9620  -27.1159  120.8939 H         1 0W2701      0.0000 
     61 H          43.4484  -27.4809  118.4914 H         1 0W2701      0.0000 
     62 H          41.0805  -26.7289  118.5483 H         1 0W2701      0.0000 
     63 H          41.9865  -25.8915  117.2763 H         1 0W2701      0.0000 
     64 H          40.6121  -24.2926  118.5786 H         1 0W2701      0.0000 
     65 H          41.0933  -23.9131  120.9803 H         1 0W2701      0.0000 
     66 H          40.5554  -25.5786  120.7027 H         1 0W2701      0.0000 
     67 H          42.7866  -23.5122  117.6639 H         1 0W2701      0.0000 
     68 H          42.4072  -22.6994  119.1921 H         1 0W2701      0.0000 
     69 H          50.8218  -28.2146  118.4567 H         1 0W2701      0.0000 
     70 H          50.3787  -26.8238  119.1317 H         1 0W2701      0.0000 
     71 H          50.0099  -28.2172  119.8449 H         1 0W2701      0.0000 
@<TRIPOS>BOND
     1    5    1 1    
     2    6    1 1    
     3   16    1 1    
     4   38    1 1    
     5    5    2 am   
     6   14    2 am   
     7   15    2 2    
     8    7    3 1    
     9   18    3 1    
    10   20    3 1    
    11   20    4 1    
    12   28    4 1    
    13   39    4 1    
    14   40    4 1    
    15   41    5 1    
    16   17    6 2    
    17   18    6 am   
    18    8    7 ar   
    19   12    7 ar   
    20    9    8 ar   
    21   19    8 1    
    22   10    9 ar   
    23   42    9 1    
    24   11   10 ar   
    25   43   10 1    
    26   12   11 ar   
    27   44   11 1    
    28   45   12 1    
    29   14   13 1    
    30   29   13 1    
    31   33   13 1    
    32   46   13 1    
    33   47   14 1    
    34   69   16 1    
    35   70   16 1    
    36   71   16 1    
    37   28   18 1    
    38   21   20 1    
    39   48   20 1    
    40   22   21 ar   
    41   26   21 ar   
    42   23   22 ar   
    43   49   22 1    
    44   24   23 ar   
    45   50   23 1    
    46   25   24 ar   
    47   51   24 1    
    48   26   25 ar   
    49   52   25 1    
    50   27   26 1    
    51   53   28 1    
    52   54   28 1    
    53   30   29 1    
    54   37   29 1    
    55   55   29 1    
    56   31   30 1    
    57   56   30 1    
    58   57   30 1    
    59   32   31 1    
    60   36   31 1    
    61   58   31 1    
    62   33   32 1    
    63   59   32 1    
    64   60   32 1    
    65   34   33 1    
    66   61   33 1    
    67   35   34 1    
    68   62   34 1    
    69   63   34 1    
    70   36   35 1    
    71   37   35 1    
    72   64   35 1    
    73   65   36 1    
    74   66   36 1    
    75   67   37 1    
    76   68   37 1    
@<TRIPOS>SUBSTRUCTURE
     1 0W2701      1 GROUP   
@<TRIPOS>SET

