#    Name: 2CDQ_2_CAVITY_N1_6.mol2
#    Modification time : Tue Mar 11 06:58:37 2014

@<TRIPOS>MOLECULE
2CDQ_2_CAVITY_N1_6.mol2
   62     0     6     0     0
SMALL
NO_CHARGES


@<TRIPOS>ATOM
      1 OG         67.2829   45.5042  148.7211 O.2       1 SER1        0.0000 
      2 OG         66.6326   43.4854  148.7571 O.2       1 SER1        0.0000 
      3 O          64.9605   44.0026  147.5585 O.2       2 ALA2        0.0000 
      4 CZ         69.2445   45.9751  148.0651 C.ar      4 PHE5        0.0000 
      5 CZ         68.0833   45.2243  147.4838 C.ar      4 PHE5        0.0000 
      6 OG         68.5942   43.9562  148.1011 O.2       1 SER1        0.0000 
      7 DU         66.9221   44.4735  146.9025 H         6 CUB7        0.0000 
      8 OG         67.4329   43.2054  147.5198 O.2       1 SER1        0.0000 
      9 N          67.9438   41.9374  148.1371 N.2       2 ALA2        0.0000 
     10 O          65.7609   43.7227  146.3212 O.2       2 ALA2        0.0000 
     11 O          66.2717   42.4547  146.9385 O.2       2 ALA2        0.0000 
     12 NZ         64.5997   42.9720  145.7399 N.2       3 LYS4        0.0000 
     13 CZ         68.8837   44.9444  146.2464 C.ar      4 PHE5        0.0000 
     14 CZ         69.3946   43.6763  146.8637 C.ar      4 PHE5        0.0000 
     15 DU         67.7225   44.1936  145.6651 H         6 CUB7        0.0000 
     16 CZ         68.2333   42.9255  146.2824 C.ar      4 PHE5        0.0000 
     17 N          68.7442   41.6575  146.8997 N.2       2 ALA2        0.0000 
     18 N          66.0505   44.7109  144.4665 N.2       2 ALA2        0.0000 
     19 N          66.5613   43.4428  145.0838 N.2       2 ALA2        0.0000 
     20 CA         67.0721   42.1748  145.7011 C.3       5 GLY6        0.0000 
     21 CA         67.5830   40.9067  146.3184 C.3       5 GLY6        0.0000 
     22 N          64.8892   43.9601  143.8852 N.2       2 ALA2        0.0000 
     23 CA         65.4001   42.6920  144.5025 C.3       5 GLY6        0.0000 
     24 NZ         63.7280   43.2093  143.3039 N.2       3 LYS4        0.0000 
     25 CZ         69.1733   45.9325  144.3918 C.ar      4 PHE5        0.0000 
     26 N          68.5229   43.9137  144.4278 N.2       2 ALA2        0.0000 
     27 CZ         69.0337   42.6456  145.0451 C.ar      4 PHE5        0.0000 
     28 CA         69.5446   41.3776  145.6624 C.3       5 GLY6        0.0000 
     29 N          70.0554   40.1095  146.2797 N.2       2 ALA2        0.0000 
     30 N          67.3617   43.1629  143.8465 N.2       2 ALA2        0.0000 
     31 CA         67.8725   41.8948  144.4638 C.3       5 GLY6        0.0000 
     32 CA         68.3834   40.6268  145.0811 C.3       5 GLY6        0.0000 
     33 N          68.8942   39.3587  145.6984 N.2       2 ALA2        0.0000 
     34 CA         66.2005   42.4121  143.2652 C.3       5 GLY6        0.0000 
     35 N          69.3233   43.6338  143.1904 N.2       2 ALA2        0.0000 
     36 CZ         69.8341   42.3657  143.8077 C.ar      4 PHE5        0.0000 
     37 CA         70.3450   41.0976  144.4250 C.3       5 GLY6        0.0000 
     38 CA         70.8558   39.8296  145.0424 C.3       5 GLY6        0.0000 
     39 CA         71.3666   38.5615  145.6597 C.3       5 GLY6        0.0000 
     40 N          68.1621   42.8830  142.6091 N.2       2 ALA2        0.0000 
     41 CA         68.6729   41.6149  143.2264 C.3       5 GLY6        0.0000 
     42 CA         69.1838   40.3469  143.8437 C.3       5 GLY6        0.0000 
     43 CA         69.6946   39.0788  144.4610 C.3       5 GLY6        0.0000 
     44 CA         70.2054   37.8107  145.0784 C.3       5 GLY6        0.0000 
     45 CA         70.7163   36.5427  145.6957 C.3       5 GLY6        0.0000 
     46 O          69.5550   35.7919  145.1144 O.2       2 ALA2        0.0000 
     47 CA         70.0659   34.5238  145.7317 C.3       5 GLY6        0.0000 
     48 O          68.3938   35.0411  144.5330 O.2       2 ALA2        0.0000 
     49 O          70.6345   42.0858  142.5704 O.2       2 ALA2        0.0000 
     50 CA         71.1454   40.8177  143.1877 C.3       5 GLY6        0.0000 
     51 N          71.6562   39.5497  143.8050 N.2       2 ALA2        0.0000 
     52 CA         69.4733   41.3350  141.9891 C.3       5 GLY6        0.0000 
     53 CA         69.9842   40.0669  142.6064 C.3       5 GLY6        0.0000 
     54 CA         70.4950   38.7989  143.2237 C.3       5 GLY6        0.0000 
     55 N          71.0058   37.5308  143.8410 N.2       2 ALA2        0.0000 
     56 N          71.5167   36.2628  144.4583 N.2       2 ALA2        0.0000 
     57 CA         72.0275   34.9947  145.0756 C.3       5 GLY6        0.0000 
     58 CA         69.8446   36.7800  143.2597 C.3       5 GLY6        0.0000 
     59 OG         70.3554   35.5120  143.8770 O.2       1 SER1        0.0000 
     60 OG         70.8663   34.2439  144.4943 O.2       1 SER1        0.0000 
     61 OG         69.1942   34.7612  143.2957 O.2       1 SER1        0.0000 
     62 N          72.8279   34.7148  143.8383 N.2       2 ALA2        0.0000 
@<TRIPOS>BOND
@<TRIPOS>SUBSTRUCTURE
     1 SER1        1 GROUP   
     2 ALA2        3 GROUP   
     3 LYS4       12 GROUP   
     4 PHE5        4 GROUP   
     5 GLY6       20 GROUP   
     6 CUB7        7 GROUP   
@<TRIPOS>SET

