#    Name: 2cdq_SAM_2_INTS_M
#    Modification time : Mon Mar 24 23:32:54 2014

@<TRIPOS>MOLECULE
2cdq_SAM_2_INTS_M
   41     0     9     0     0
SMALL
NO_CHARGES


@<TRIPOS>ATOM
      1 CA         65.2690   45.4075  142.1565 C.3       3 GLC5        0.0000 
      2 CA         64.7650   44.5880  144.1790 C.3       9 GLL5        0.0000 
      3 CA         65.7730   46.2270  140.1340 C.3       6 GLP5        0.0000 
      4 CA         65.4900   42.2390  141.6365 C.3       3 GLC5        0.0000 
      5 CA         64.7090   42.8780  143.5760 C.3       9 GLL5        0.0000 
      6 CA         66.2710   41.6000  139.6970 C.3       6 GLP5        0.0000 
      7 CA         65.5465   41.2125  143.7025 C.3       3 GLC5        0.0000 
      8 CA         66.3840   39.5470  143.8290 C.3       6 GLP5        0.0000 
      9 O          67.6280   43.6250  150.0325 O.2       1 ALC1        0.0000 
     10 O          66.4260   43.7430  148.8920 O.2       7 ALL1        0.0000 
     11 O          68.8300   43.5070  151.1730 O.2       4 ALP1        0.0000 
     12 N          70.0955   42.6065  149.5395 N.am      2 SEC2        0.0000 
     13 N          68.8620   42.8410  148.7070 N.am      8 SEL2        0.0000 
     14 N          71.3290   42.3720  150.3720 N.am      5 SEP2        0.0000 
     15 N          68.8460   43.1740  149.9400 N.am      2 SEC2        0.0000 
     16 N          68.8300   43.5070  151.1730 N.am      5 SEP2        0.0000 
     17 CA         67.0615   40.7415  145.3010 C.3       3 GLC5        0.0000 
     18 CA         67.7390   41.9360  146.7730 C.3       9 GLL5        0.0000 
     19 CA         69.5780   41.0445  140.9305 C.3       3 GLC5        0.0000 
     20 CA         70.5900   41.2510  142.7910 C.3       9 GLL5        0.0000 
     21 CA         68.5660   40.8380  139.0700 C.3       6 GLP5        0.0000 
     22 CA         72.6420   40.9705  142.3765 C.3       3 GLC5        0.0000 
     23 CA         74.6940   40.6900  141.9620 C.3       6 GLP5        0.0000 
     24 O          71.9105   40.8190  140.7265 O.2       1 ALC1        0.0000 
     25 O          71.3640   40.3500  142.1910 O.2       7 ALL1        0.0000 
     26 O          72.4570   41.2880  139.2620 O.2       4 ALP1        0.0000 
     27 N          70.4875   42.9810  140.8800 N.am      2 SEC2        0.0000 
     28 N          70.4090   42.4990  142.2240 N.am      8 SEL2        0.0000 
     29 N          70.5660   43.4630  139.5360 N.am      5 SEP2        0.0000 
     30 CA         69.7545   45.2575  141.6800 C.3       3 GLC5        0.0000 
     31 CA         69.6050   43.4330  142.8510 C.3       9 GLL5        0.0000 
     32 CA         69.9040   47.0820  140.5090 C.3       6 GLP5        0.0000 
     33 CA         68.8760   43.3700  141.1805 C.3       3 GLC5        0.0000 
     34 CA         68.1470   43.3070  139.5100 C.3       6 GLP5        0.0000 
     35 CA         71.2255   43.8610  141.4110 C.3       3 GLC5        0.0000 
     36 CA         72.8460   44.2890  139.9710 C.3       6 GLP5        0.0000 
     37 CA         70.0223   42.3145  147.3618 C.3       3 GLC5        0.0000 
     38 CA         72.0390   42.0720  147.6020 C.3       6 GLP5        0.0000 
     39 CA         70.7965   41.7478  145.9532 C.3       3 GLC5        0.0000 
     40 CA         69.1500   41.9010  144.6140 C.3       9 GLL5        0.0000 
     41 CA         67.9690   40.4853  144.0668 C.3       3 GLC5        0.0000 
@<TRIPOS>BOND
@<TRIPOS>SUBSTRUCTURE
     1 ALC1        9 GROUP        1 X    ALC  0     ROOT ALC X 1
     2 SEC2       12 GROUP        1 X    SEC  0     **** SEC X 2
     3 GLC5        1 GROUP        1 X    GLC  0     **** GLC X 6
     4 ALP1       11 GROUP        1 Y    ALP  0     ROOT ALP Y 8
     5 SEP2       14 GROUP        1 Y    SEP  0     **** SEP Y 9
     6 GLP5        3 GROUP        1 Y    GLP  0     **** GLP Y 13
     7 ALL1       10 GROUP        1 Z    ALL  0     ROOT ALL Z 15
     8 SEL2       13 GROUP        1 Z    SEL  0     **** SEL Z 16
     9 GLL5        2 GROUP        1 Z    GLL  0     **** GLL Z 20
@<TRIPOS>SET

