#    Name: 2cdq_SAM_2_ligand
#    Modification time : Mon Mar 24 23:32:54 2014

@<TRIPOS>MOLECULE
2cdq_SAM_2_ligand
   50    52     1     0     0
SMALL
NO_CHARGES


@<TRIPOS>ATOM
      1 N          62.2010   46.6830  142.8620 N.4       1 SAM1500     0.0000 
      2 CA         61.4200   46.1400  143.9730 C.3       1 SAM1500     0.0000 
      3 C          61.3360   47.1270  145.1450 C.2       1 SAM1500     0.0000 
      4 O          62.2580   47.9070  145.4040 O.co2     1 SAM1500     0.0000 
      5 OXT        60.3350   47.1780  145.8610 O.co2     1 SAM1500     0.0000 
      6 CB         61.9590   44.7650  144.4030 C.3       1 SAM1500     0.0000 
      7 CG         63.2660   44.7200  145.2060 C.3       1 SAM1500     0.0000 
      8 SD         64.7650   44.5880  144.1790 S.3       1 SAM1500     0.0000 
      9 CE         64.7090   42.8780  143.5760 C.3       1 SAM1500     0.0000 
     10 C5'        66.1310   44.5890  145.3770 C.3       1 SAM1500     0.0000 
     11 C4'        66.0800   43.6030  146.5480 C.3       1 SAM1500     0.0000 
     12 O4'        66.5100   42.3140  146.1570 O.3       1 SAM1500     0.0000 
     13 C3'        67.0300   44.0340  147.6520 C.3       1 SAM1500     0.0000 
     14 O3'        66.4260   43.7430  148.8920 O.3       1 SAM1500     0.0000 
     15 C2'        68.2720   43.1780  147.4700 C.3       1 SAM1500     0.0000 
     16 O2'        68.8620   42.8410  148.7070 O.3       1 SAM1500     0.0000 
     17 C1'        67.7390   41.9360  146.7730 C.3       1 SAM1500     0.0000 
     18 N9         68.6650   41.3360  145.7730 N.pl3     1 SAM1500     0.0000 
     19 C8         69.1740   40.0610  145.8340 C.2       1 SAM1500     0.0000 
     20 N7         69.9600   39.8320  144.7590 N.2       1 SAM1500     0.0000 
     21 C5         69.9580   40.9460  143.9950 C.ar      1 SAM1500     0.0000 
     22 C6         70.5900   41.2510  142.7910 C.ar      1 SAM1500     0.0000 
     23 N6         71.3640   40.3500  142.1910 N.pl3     1 SAM1500     0.0000 
     24 N1         70.4090   42.4990  142.2240 N.ar      1 SAM1500     0.0000 
     25 C2         69.6050   43.4330  142.8510 C.ar      1 SAM1500     0.0000 
     26 N3         68.9810   43.1230  144.0460 N.ar      1 SAM1500     0.0000 
     27 C4         69.1500   41.9010  144.6140 C.ar      1 SAM1500     0.0000 
     28 H          60.3783   45.9723  143.6214 H         1 SAM1500     0.0000 
     29 H          62.0861   44.1359  143.4859 H         1 SAM1500     0.0000 
     30 H          61.1631   44.2458  144.9945 H         1 SAM1500     0.0000 
     31 H          63.3479   43.8529  145.8405 H         1 SAM1500     0.0000 
     32 H          63.4536   45.6203  145.7675 H         1 SAM1500     0.0000 
     33 H          66.1465   45.6387  145.7036 H         1 SAM1500     0.0000 
     34 H          67.0040   44.4343  144.7268 H         1 SAM1500     0.0000 
     35 H          65.0879   43.5849  146.9507 H         1 SAM1500     0.0000 
     36 H          67.2769   45.0436  147.5184 H         1 SAM1500     0.0000 
     37 H          68.9252   43.6769  146.7968 H         1 SAM1500     0.0000 
     38 H          67.5281   41.1942  147.5564 H         1 SAM1500     0.0000 
     39 H          68.9892   39.4307  146.5464 H         1 SAM1500     0.0000 
     40 H          71.8006   40.6419  141.3400 H         1 SAM1500     0.0000 
     41 H          71.4392   39.4623  142.6452 H         1 SAM1500     0.0000 
     42 H          69.4699   44.3639  142.4265 H         1 SAM1500     0.0000 
     43 H          63.1392   46.8945  143.1360 H         1 SAM1500     0.0000 
     44 H          62.2566   46.0402  142.0980 H         1 SAM1500     0.0000 
     45 H          61.8022   47.5280  142.5057 H         1 SAM1500     0.0000 
     46 H          65.4883   42.6665  142.9862 H         1 SAM1500     0.0000 
     47 H          64.7228   42.2185  144.3276 H         1 SAM1500     0.0000 
     48 H          63.8815   42.6987  143.0439 H         1 SAM1500     0.0000 
     49 H          67.1210   43.2409  149.4068 H         1 SAM1500     0.0000 
     50 H          68.5313   41.9190  148.9086 H         1 SAM1500     0.0000 
@<TRIPOS>BOND
     1    2    1 1    
     2   43    1 1    
     3   44    1 1    
     4   45    1 1    
     5    3    2 1    
     6    6    2 1    
     7   28    2 1    
     8    4    3 ar   
     9    5    3 ar   
    10    7    6 1    
    11   29    6 1    
    12   30    6 1    
    13    8    7 1    
    14   31    7 1    
    15   32    7 1    
    16    9    8 1    
    17   10    8 1    
    18   46    9 1    
    19   47    9 1    
    20   48    9 1    
    21   11   10 1    
    22   33   10 1    
    23   34   10 1    
    24   12   11 1    
    25   13   11 1    
    26   35   11 1    
    27   17   12 1    
    28   14   13 1    
    29   15   13 1    
    30   36   13 1    
    31   49   14 1    
    32   16   15 1    
    33   17   15 1    
    34   37   15 1    
    35   50   16 1    
    36   18   17 1    
    37   38   17 1    
    38   19   18 1    
    39   27   18 1    
    40   20   19 2    
    41   39   19 1    
    42   21   20 1    
    43   22   21 ar   
    44   27   21 ar   
    45   23   22 1    
    46   24   22 ar   
    47   40   23 1    
    48   41   23 1    
    49   25   24 ar   
    50   26   25 ar   
    51   42   25 1    
    52   27   26 ar   
@<TRIPOS>SUBSTRUCTURE
     1 SAM1500     1 GROUP   
@<TRIPOS>SET

