#    Name: 3ke8_EIP_1_INTS_M
#    Modification time : Mon Mar 24 19:20:04 2014

@<TRIPOS>MOLECULE
3ke8_EIP_1_INTS_M
   41     0     9     0     0
SMALL
NO_CHARGES


@<TRIPOS>ATOM
      1 N         -26.2405    0.0895  -19.2745 N.am      2 SEC2        0.0000 
      2 N         -25.5670    0.8370  -18.2270 N.am      8 SEL2        0.0000 
      3 N         -26.9140   -0.6580  -20.3220 N.am      5 SEP2        0.0000 
      4 N         -26.4175    2.0365  -18.7500 N.am      2 SEC2        0.0000 
      5 N         -27.2680    3.2360  -19.2730 N.am      5 SEP2        0.0000 
      6 N         -24.3465    1.2010  -18.4175 N.am      2 SEC2        0.0000 
      7 N         -23.1260    1.5650  -18.6080 N.am      5 SEP2        0.0000 
      8 N         -23.7350    1.4200  -15.7880 N.am      2 SEC2        0.0000 
      9 N         -25.0480    0.8210  -15.7600 N.am      8 SEL2        0.0000 
     10 N         -22.4220    2.0190  -15.8160 N.am      5 SEP2        0.0000 
     11 N         -24.2460   -0.0680  -15.0760 N.am      2 SEC2        0.0000 
     12 N         -23.4440   -0.9570  -14.3920 N.am      5 SEP2        0.0000 
     13 N         -27.2040   -3.8960  -18.0345 N.am      2 SEC2        0.0000 
     14 N         -27.2270   -3.2190  -16.8750 N.am      8 SEL2        0.0000 
     15 N         -27.1810   -4.5730  -19.1940 N.am      5 SEP2        0.0000 
     16 N         -28.3795   -2.4160  -17.6540 N.am      2 SEC2        0.0000 
     17 N         -29.5320   -1.6130  -18.4330 N.am      5 SEP2        0.0000 
     18 N         -24.2950   -3.5600  -16.9215 N.am      2 SEC2        0.0000 
     19 N         -24.8590   -2.2850  -17.3010 N.am      8 SEL2        0.0000 
     20 N         -23.7310   -4.8350  -16.5420 N.am      5 SEP2        0.0000 
     21 N         -23.6100   -1.9780  -17.3530 N.am      2 SEC2        0.0000 
     22 N         -22.3610   -1.6710  -17.4050 N.am      5 SEP2        0.0000 
     23 CA        -27.3790   -3.7985  -13.4845 C.3       3 GLC5        0.0000 
     24 CA        -27.1080   -2.0970  -14.0400 C.3       9 GLL5        0.0000 
     25 CA        -27.6500   -5.5000  -12.9290 C.3       6 GLP5        0.0000 
     26 CA        -25.5230   -2.6560  -12.6680 C.3       3 GLC5        0.0000 
     27 CA        -23.9380   -3.2150  -11.2960 C.3       6 GLP5        0.0000 
     28 CA        -31.1510    1.8685  -13.1300 C.3       3 GLC5        0.0000 
     29 CA        -29.3120    1.2120  -14.1420 C.3       9 GLL5        0.0000 
     30 CA        -32.9900    2.5250  -12.1180 C.3       6 GLP5        0.0000 
     31 CA        -31.4000   -2.3970  -14.6835 C.3       3 GLC5        0.0000 
     32 CA        -30.1250   -1.1320  -14.6970 C.3       9 GLL5        0.0000 
     33 CA        -32.6750   -3.6620  -14.6700 C.3       6 GLP5        0.0000 
     34 O         -29.4340    2.6715  -12.3325 O.2       1 ALC1        0.0000 
     35 O         -29.7950    1.4330  -12.7780 O.2       7 ALL1        0.0000 
     36 O         -29.0730    3.9100  -11.8870 O.2       4 ALP1        0.0000 
     37 CA        -27.3444    1.5737  -13.7139 C.3       3 GLC5        0.0000 
     38 CA        -28.9560   -0.2640  -14.2620 C.3       9 GLL5        0.0000 
     39 CA        -25.8710    2.7800  -13.2940 C.3       6 GLP5        0.0000 
     40 CA        -29.8117   -0.3510  -16.2572 C.3       3 GLC5        0.0000 
     41 CA        -29.9940   -0.3730  -18.0650 C.3       6 GLP5        0.0000 
@<TRIPOS>BOND
@<TRIPOS>SUBSTRUCTURE
     1 ALC1       34 GROUP        1 X    ALC  0     ROOT ALC X 1
     2 SEC2        1 GROUP        1 X    SEC  0     **** SEC X 2
     3 GLC5       23 GROUP        1 X    GLC  0     **** GLC X 6
     4 ALP1       36 GROUP        1 Y    ALP  0     ROOT ALP Y 8
     5 SEP2        3 GROUP        1 Y    SEP  0     **** SEP Y 9
     6 GLP5       25 GROUP        1 Y    GLP  0     **** GLP Y 13
     7 ALL1       35 GROUP        1 Z    ALL  0     ROOT ALL Z 15
     8 SEL2        2 GROUP        1 Z    SEL  0     **** SEL Z 16
     9 GLL5       24 GROUP        1 Z    GLL  0     **** GLL Z 20
@<TRIPOS>SET

