#    Name: 3ke8_EIP_1_ligand
#    Modification time : Mon Mar 24 19:20:04 2014

@<TRIPOS>MOLECULE
3ke8_EIP_1_ligand
   26    25     1     0     0
SMALL
NO_CHARGES


@<TRIPOS>ATOM
      1 O1        -27.2850    1.8050  -16.7820 O.co2     1 EIP998      0.0000 
      2 O2        -25.5670    0.8370  -18.2270 O.co2     1 EIP998      0.0000 
      3 O3        -25.0480    0.8210  -15.7600 O.co2     1 EIP998      0.0000 
      4 P4        -26.1830    0.6800  -16.8600 P.3       1 EIP998      0.0000 
      5 O5        -27.0120   -0.7030  -16.8360 O.3       1 EIP998      0.0000 
      6 O6        -27.2270   -3.2190  -16.8750 O.co2     1 EIP998      0.0000 
      7 O7        -24.8590   -2.2850  -17.3010 O.co2     1 EIP998      0.0000 
      8 P8        -26.2760   -2.1170  -16.6180 P.3       1 EIP998      0.0000 
      9 O9        -26.0410   -2.1930  -15.0130 O.3       1 EIP998      0.0000 
     10 C10       -27.1080   -2.0970  -14.0400 C.3       1 EIP998      0.0000 
     11 C11       -27.6910   -0.6900  -13.9890 C.3       1 EIP998      0.0000 
     12 C12       -28.9560   -0.2640  -14.2620 C.3       1 EIP998      0.0000 
     13 C13       -29.3120    1.2120  -14.1420 C.3       1 EIP998      0.0000 
     14 C14       -30.1250   -1.1320  -14.6970 C.3       1 EIP998      0.0000 
     15 O15       -29.7950    1.4330  -12.7780 O.3       1 EIP998      0.0000 
     16 H         -26.7476   -2.3525  -13.0312 H         1 EIP998      0.0000 
     17 H         -27.9253   -2.7953  -14.2790 H         1 EIP998      0.0000 
     18 H         -26.9065   -0.0356  -14.6112 H         1 EIP998      0.0000 
     19 H         -27.3560   -0.2833  -12.9152 H         1 EIP998      0.0000 
     20 H         -28.6411   -0.0274  -15.6550 H         1 EIP998      0.0000 
     21 H         -30.0792    1.4437  -14.8690 H         1 EIP998      0.0000 
     22 H         -28.4255    1.7996  -14.3411 H         1 EIP998      0.0000 
     23 H         -29.9352   -1.6073  -15.5561 H         1 EIP998      0.0000 
     24 H         -30.3413   -1.8319  -14.0164 H         1 EIP998      0.0000 
     25 H         -30.9556   -0.5931  -14.8375 H         1 EIP998      0.0000 
     26 H         -29.4906    2.3559  -12.5422 H         1 EIP998      0.0000 
@<TRIPOS>BOND
     1    4    1 ar   
     2    4    2 ar   
     3    4    3 ar   
     4    5    4 1    
     5    8    5 1    
     6    8    6 ar   
     7    8    7 ar   
     8    9    8 1    
     9   10    9 1    
    10   11   10 1    
    11   16   10 1    
    12   17   10 1    
    13   12   11 1    
    14   18   11 1    
    15   19   11 1    
    16   13   12 1    
    17   14   12 1    
    18   20   12 1    
    19   15   13 1    
    20   21   13 1    
    21   22   13 1    
    22   23   14 1    
    23   24   14 1    
    24   25   14 1    
    25   26   15 1    
@<TRIPOS>SUBSTRUCTURE
     1 EIP998      1 GROUP   
@<TRIPOS>SET

