#    Name: 2w4i_VGA_2_INTS_M
#    Modification time : Tue Mar 25 03:40:02 2014

@<TRIPOS>MOLECULE
2w4i_VGA_2_INTS_M
   88     0     6     0     0
SMALL
NO_CHARGES


@<TRIPOS>ATOM
      1 CA         40.9435   16.4825   54.7445 C.3       2 GLC5        0.0000 
      2 CA         40.0980   17.4090   56.3970 C.3       6 GLL5        0.0000 
      3 CA         41.7890   15.5560   53.0920 C.3       4 GLP5        0.0000 
      4 CA         40.8935   16.9110   58.3715 C.3       2 GLC5        0.0000 
      5 CA         41.6890   16.4130   60.3460 C.3       4 GLP5        0.0000 
      6 CA         39.1240   16.0035   55.1870 C.3       2 GLC5        0.0000 
      7 CA         38.1500   14.5980   53.9770 C.3       4 GLP5        0.0000 
      8 CA         37.6765   17.4305   54.2995 C.3       2 GLC5        0.0000 
      9 CA         37.8350   19.2040   55.5140 C.3       6 GLL5        0.0000 
     10 CA         37.5180   15.6570   53.0850 C.3       4 GLP5        0.0000 
     11 CA         38.6475   18.8905   58.0280 C.3       2 GLC5        0.0000 
     12 CA         37.8310   18.1670   56.4550 C.3       6 GLL5        0.0000 
     13 CA         39.4640   19.6140   59.6010 C.3       4 GLP5        0.0000 
     14 CA         38.6065   21.5440   55.3440 C.3       2 GLC5        0.0000 
     15 CA         36.8190   20.1950   55.5260 C.3       6 GLL5        0.0000 
     16 CA         40.3940   22.8930   55.1620 C.3       4 GLP5        0.0000 
     17 CA         40.7945   12.9985   58.0060 C.3       2 GLC5        0.0000 
     18 CA         41.0000   14.9800   56.9750 C.3       6 GLL5        0.0000 
     19 CA         40.5890   11.0170   59.0370 C.3       4 GLP5        0.0000 
     20 CA         39.5750   14.7890   55.4760 C.3       2 GLC5        0.0000 
     21 CA         43.4895   13.2665   56.3885 C.3       2 GLC5        0.0000 
     22 CA         42.4760   14.8430   56.5720 C.3       6 GLL5        0.0000 
     23 CA         44.5030   11.6900   56.2050 C.3       4 GLP5        0.0000 
     24 CA         43.0455   17.7130   53.7255 C.3       2 GLC5        0.0000 
     25 CA         42.7840   19.6720   54.5490 C.3       6 GLL5        0.0000 
     26 CA         43.3070   15.7540   52.9020 C.3       4 GLP5        0.0000 
     27 O          44.1660   13.4715   58.0180 O.2       1 ALC1        0.0000 
     28 O          43.3430   14.4780   57.6290 O.2       5 ALL1        0.0000 
     29 O          44.9890   12.4650   58.4070 O.2       3 ALP1        0.0000 
     30 CA         39.8897   18.8655   57.9042 C.3       2 GLC5        0.0000 
     31 CA         40.9483   20.9722   56.3543 C.3       2 GLC5        0.0000 
     32 CA         40.5330   18.8250   56.0180 C.3       6 GLL5        0.0000 
     33 CA         40.6470   22.8980   56.6780 C.3       4 GLP5        0.0000 
     34 CA         37.2690   16.2840   56.0315 C.3       2 GLC5        0.0000 
     35 CA         36.8030   18.2090   57.4010 C.3       6 GLL5        0.0000 
     36 CA         37.2210   14.3800   55.1350 C.3       4 GLP5        0.0000 
     37 CA         37.2612   18.9385   58.8483 C.3       2 GLC5        0.0000 
     38 CA         38.2140   19.1830   60.2930 C.3       4 GLP5        0.0000 
     39 CA         35.2260   20.6885   58.5275 C.3       2 GLC5        0.0000 
     40 CA         35.8140   19.1790   57.4060 C.3       6 GLL5        0.0000 
     41 CA         34.6450   21.6910   60.1180 C.3       4 GLP5        0.0000 
     42 CA         35.6432   17.2643   57.5510 C.3       2 GLC5        0.0000 
     43 CA         34.7210   15.8450   57.9350 C.3       4 GLP5        0.0000 
     44 CA         37.8462   20.4816   57.5285 C.3       2 GLC5        0.0000 
     45 CA         35.8000   20.1930   56.4680 C.3       6 GLL5        0.0000 
     46 CA         39.1290   21.0170   59.0630 C.3       4 GLP5        0.0000 
     47 CA         34.7185   19.1683   55.4797 C.3       2 GLC5        0.0000 
     48 CA         33.1240   18.3960   54.7280 C.3       4 GLP5        0.0000 
     49 CA         38.3665   21.0817   52.2362 C.3       2 GLC5        0.0000 
     50 CA         38.3330   19.2820   53.0460 C.3       6 GLL5        0.0000 
     51 CA         37.9630   22.8340   51.9710 C.3       4 GLP5        0.0000 
     52 CA         41.6160   13.4582   55.3098 C.3       2 GLC5        0.0000 
     53 CA         41.4940   12.0050   53.8460 C.3       4 GLP5        0.0000 
     54 CA         44.5138   15.8845   55.9910 C.3       2 GLC5        0.0000 
     55 CA         46.5420   16.1730   55.4870 C.3       4 GLP5        0.0000 
     56 CA         41.9527   15.5931   54.8439 C.3       2 GLC5        0.0000 
     57 CA         42.4950   16.3490   56.4180 C.3       6 GLL5        0.0000 
     58 CA         41.9027   16.0216   58.4709 C.3       2 GLC5        0.0000 
     59 CA         40.5170   18.1745   51.2470 C.3       2 GLC5        0.0000 
     60 CA         39.2070   19.3770   51.9570 C.3       6 GLL5        0.0000 
     61 CA         42.0810   16.9720   51.1830 C.3       4 GLP5        0.0000 
     62 CA         37.9903   21.0795   51.2640 C.3       2 GLC5        0.0000 
     63 CA         38.6990   19.3770   50.6650 C.3       6 GLL5        0.0000 
     64 CA         38.3877   19.6930   48.7700 C.3       2 GLC5        0.0000 
     65 CA         38.7580   20.0610   46.9830 C.3       4 GLP5        0.0000 
     66 CA         37.9012   17.3330   50.0205 C.3       2 GLC5        0.0000 
     67 CA         37.7850   15.3410   49.4840 C.3       4 GLP5        0.0000 
     68 CA         35.8297   18.3635   49.7977 C.3       2 GLC5        0.0000 
     69 CA         36.4570   19.1570   51.5140 C.3       6 GLL5        0.0000 
     70 CA         34.7630   17.5120   48.6140 C.3       4 GLP5        0.0000 
     71 CA         37.3350   20.9943   52.0648 C.3       2 GLC5        0.0000 
     72 CA         34.8815   18.7383   52.6753 C.3       2 GLC5        0.0000 
     73 CA         36.9570   19.1520   52.8030 C.3       6 GLL5        0.0000 
     74 CA         33.0560   18.3220   53.1920 C.3       4 GLP5        0.0000 
     75 CA         40.9155   19.4980   58.0828 C.3       2 GLC5        0.0000 
     76 CA         41.9660   19.2680   56.0430 C.3       6 GLL5        0.0000 
     77 CA         42.6137   21.6097   54.7708 C.3       2 GLC5        0.0000 
     78 CA         41.7190   23.3190   54.5480 C.3       4 GLP5        0.0000 
     79 CA         44.0913   19.9468   53.4213 C.3       2 GLC5        0.0000 
     80 CA         44.6740   19.9930   51.8490 C.3       4 GLP5        0.0000 
     81 CA         44.7208   21.8517   56.4665 C.3       2 GLC5        0.0000 
     82 CA         44.2330   20.1290   55.4380 C.3       6 GLL5        0.0000 
     83 CA         45.3100   23.6620   56.8450 C.3       4 GLP5        0.0000 
     84 CA         42.0230   21.3115   56.7950 C.3       2 GLC5        0.0000 
     85 CA         44.0300   19.9540   56.7380 C.3       6 GLL5        0.0000 
     86 CA         45.1896   18.7766   55.4749 C.3       2 GLC5        0.0000 
     87 CA         46.6100   17.6260   55.0840 C.3       4 GLP5        0.0000 
     88 CA         37.4490   17.4424   52.4509 C.3       2 GLC5        0.0000 
@<TRIPOS>BOND
@<TRIPOS>SUBSTRUCTURE
     1 ALC1       27 GROUP        1 X    ALC  0     ROOT ALC X 1
     2 GLC5        1 GROUP        1 X    GLC  0     **** GLC X 6
     3 ALP1       29 GROUP        1 Y    ALP  0     ROOT ALP Y 8
     4 GLP5        3 GROUP        1 Y    GLP  0     **** GLP Y 13
     5 ALL1       28 GROUP        1 Z    ALL  0     ROOT ALL Z 15
     6 GLL5        2 GROUP        1 Z    GLL  0     **** GLL Z 20
@<TRIPOS>SET

