#    Name: 2w4i_VGA_2_ligand
#    Modification time : Tue Mar 25 03:40:02 2014

@<TRIPOS>MOLECULE
2w4i_VGA_2_ligand
   47    51     1     0     0
SMALL
NO_CHARGES


@<TRIPOS>ATOM
      1 N1         38.8130   17.1820   56.5630 N.pl3     1 VGA1256     0.0000 
      2 C2         40.0980   17.4090   56.3970 C.2       1 VGA1256     0.0000 
      3 C3         40.5330   18.8250   56.0180 C.3       1 VGA1256     0.0000 
      4 C4         38.8400   19.2160   54.4400 C.2       1 VGA1256     0.0000 
      5 N5         40.0870   18.9980   54.6300 N.2       1 VGA1256     0.0000 
      6 C6         37.8350   19.2040   55.5140 C.ar      1 VGA1256     0.0000 
      7 C7         37.8310   18.1670   56.4550 C.ar      1 VGA1256     0.0000 
      8 C8         36.8030   18.2090   57.4010 C.ar      1 VGA1256     0.0000 
      9 C9         35.8140   19.1790   57.4060 C.ar      1 VGA1256     0.0000 
     10 C10        35.8000   20.1930   56.4680 C.ar      1 VGA1256     0.0000 
     11 C11        36.8190   20.1950   55.5260 C.ar      1 VGA1256     0.0000 
     12 C12        38.3330   19.2820   53.0460 C.ar      1 VGA1256     0.0000 
     13 N13        41.0300   16.4050   56.5620 N.pl3     1 VGA1256     0.0000 
     14 C14        41.0000   14.9800   56.9750 C.3       1 VGA1256     0.0000 
     15 C15        42.4760   14.8430   56.5720 C.3       1 VGA1256     0.0000 
     16 C16        42.4950   16.3490   56.4180 C.3       1 VGA1256     0.0000 
     17 C17        39.2070   19.3770   51.9570 C.ar      1 VGA1256     0.0000 
     18 C18        38.6990   19.3770   50.6650 C.ar      1 VGA1256     0.0000 
     19 C19        37.3360   19.2730   50.4490 C.ar      1 VGA1256     0.0000 
     20 C20        36.4570   19.1570   51.5140 C.ar      1 VGA1256     0.0000 
     21 C21        36.9570   19.1520   52.8030 C.ar      1 VGA1256     0.0000 
     22 C22        41.9660   19.2680   56.0430 C.2       1 VGA1256     0.0000 
     23 S23        42.7840   19.6720   54.5490 S.3       1 VGA1256     0.0000 
     24 C24        44.2330   20.1290   55.4380 C.2       1 VGA1256     0.0000 
     25 C25        44.0300   19.9540   56.7380 C.2       1 VGA1256     0.0000 
     26 C26        42.7680   19.4960   57.0860 C.2       1 VGA1256     0.0000 
     27 O27        43.3430   14.4780   57.6290 O.3       1 VGA1256     0.0000 
     28 H          38.4689   16.1992   56.7943 H         1 VGA1256     0.0000 
     29 H          39.9253   19.5369   56.6113 H         1 VGA1256     0.0000 
     30 H          36.7838   17.4653   58.1435 H         1 VGA1256     0.0000 
     31 H          35.0691   19.1417   58.1300 H         1 VGA1256     0.0000 
     32 H          35.0816   20.9026   56.4653 H         1 VGA1256     0.0000 
     33 H          36.8510   20.9388   54.8020 H         1 VGA1256     0.0000 
     34 H          40.4286   14.4238   56.3454 H         1 VGA1256     0.0000 
     35 H          40.9191   14.8882   57.9836 H         1 VGA1256     0.0000 
     36 H          42.5375   14.4273   55.6706 H         1 VGA1256     0.0000 
     37 H          42.9660   16.7722   57.2222 H         1 VGA1256     0.0000 
     38 H          42.7869   16.5951   55.4682 H         1 VGA1256     0.0000 
     39 H          40.2171   19.4461   52.1180 H         1 VGA1256     0.0000 
     40 H          39.3432   19.4551   49.8621 H         1 VGA1256     0.0000 
     41 H          36.9681   19.2819   49.4813 H         1 VGA1256     0.0000 
     42 H          35.4493   19.0760   51.3468 H         1 VGA1256     0.0000 
     43 H          36.3138   19.0513   53.6074 H         1 VGA1256     0.0000 
     44 H          44.9032   20.4161   54.8770 H         1 VGA1256     0.0000 
     45 H          44.7251   20.1330   57.4465 H         1 VGA1256     0.0000 
     46 H          42.5080   19.3577   58.0395 H         1 VGA1256     0.0000 
     47 H          43.6397   13.5483   57.4109 H         1 VGA1256     0.0000 
@<TRIPOS>BOND
     1    2    1 1    
     2    7    1 1    
     3   28    1 1    
     4    3    2 1    
     5   13    2 2    
     6    5    3 1    
     7   22    3 1    
     8   29    3 1    
     9    5    4 2    
    10    6    4 1    
    11   12    4 1    
    12    7    6 ar   
    13   11    6 ar   
    14    8    7 ar   
    15    9    8 ar   
    16   30    8 1    
    17   10    9 ar   
    18   31    9 1    
    19   11   10 ar   
    20   32   10 1    
    21   33   11 1    
    22   17   12 ar   
    23   21   12 ar   
    24   14   13 1    
    25   16   13 1    
    26   15   14 1    
    27   34   14 1    
    28   35   14 1    
    29   16   15 1    
    30   27   15 1    
    31   36   15 1    
    32   37   16 1    
    33   38   16 1    
    34   18   17 ar   
    35   39   17 1    
    36   19   18 ar   
    37   40   18 1    
    38   20   19 ar   
    39   41   19 1    
    40   21   20 ar   
    41   42   20 1    
    42   43   21 1    
    43   23   22 1    
    44   26   22 2    
    45   24   23 1    
    46   25   24 2    
    47   44   24 1    
    48   26   25 1    
    49   45   25 1    
    50   46   26 1    
    51   47   27 1    
@<TRIPOS>SUBSTRUCTURE
     1 VGA1256     1 GROUP   
@<TRIPOS>SET

