#    Name: 3f8d_FAD_1_INTS_M
#    Modification time : Tue Mar 25 03:21:25 2014

@<TRIPOS>MOLECULE
3f8d_FAD_1_INTS_M
  126     0     9     0     0
SMALL
NO_CHARGES


@<TRIPOS>ATOM
      1 N          37.5110   74.8305    3.9710 N.am      2 SEC2        0.0000 
      2 N          36.1300   74.1870    4.0010 N.am      8 SEL2        0.0000 
      3 N          38.8920   75.4740    3.9410 N.am      5 SEP2        0.0000 
      4 N          34.9985   77.0680    3.7930 N.am      2 SEC2        0.0000 
      5 N          35.2640   76.2020    2.6900 N.am      8 SEL2        0.0000 
      6 N          34.7330   77.9340    4.8960 N.am      5 SEP2        0.0000 
      7 CA         35.1680   71.9200    3.1065 C.3       3 GLC5        0.0000 
      8 CA         33.5260   72.8450    3.3140 C.3       9 GLL5        0.0000 
      9 CA         36.8100   70.9950    2.8990 C.3       6 GLP5        0.0000 
     10 CA         30.6305   71.6880    2.5020 C.3       3 GLC5        0.0000 
     11 CA         32.0200   72.7420    3.3960 C.3       9 GLL5        0.0000 
     12 CA         29.2410   70.6340    1.6080 C.3       6 GLP5        0.0000 
     13 CA         31.7845   74.3980    1.9925 C.3       3 GLC5        0.0000 
     14 CA         31.5490   76.0540    0.5890 C.3       6 GLP5        0.0000 
     15 CA         31.9040   75.3440    4.5330 C.3       3 GLC5        0.0000 
     16 CA         31.3530   73.5770    4.4870 C.3       9 GLL5        0.0000 
     17 CA         32.4550   77.1110    4.5790 C.3       6 GLP5        0.0000 
     18 N          29.5165   73.5395    2.7865 N.am      2 SEC2        0.0000 
     19 N          30.1280   74.0480    4.0030 N.am      8 SEL2        0.0000 
     20 N          28.9050   73.0310    1.5700 N.am      5 SEP2        0.0000 
     21 O          29.4875   75.1455    4.4920 O.2       1 ALC1        0.0000 
     22 O          30.1280   74.0480    4.0030 O.2       7 ALL1        0.0000 
     23 O          28.8470   76.2430    4.9810 O.2       4 ALP1        0.0000 
     24 CA         30.1945   74.2655    6.7070 C.3       3 GLC5        0.0000 
     25 CA         31.1890   72.5990    5.6230 C.3       9 GLL5        0.0000 
     26 CA         29.2000   75.9320    7.7910 C.3       6 GLP5        0.0000 
     27 N          28.9265   73.6570    6.7555 N.am      2 SEC2        0.0000 
     28 N          30.2300   73.0010    6.6070 N.am      8 SEL2        0.0000 
     29 N          27.6230   74.3130    6.9040 N.am      5 SEP2        0.0000 
     30 CA         30.0035   71.0120    3.2280 C.3       3 GLC5        0.0000 
     31 CA         30.7660   71.3900    4.8480 C.3       9 GLL5        0.0000 
     32 CA         29.1900   66.5330    4.3225 C.3       3 GLC5        0.0000 
     33 CA         29.6060   66.9360    6.2820 C.3       9 GLL5        0.0000 
     34 CA         28.7740   66.1300    2.3630 C.3       6 GLP5        0.0000 
     35 CA         28.4960   66.4485    8.0215 C.3       3 GLC5        0.0000 
     36 CA         27.3860   65.9610    9.7610 C.3       6 GLP5        0.0000 
     37 CA         28.1575   65.4500    5.4890 C.3       3 GLC5        0.0000 
     38 CA         26.7090   63.9640    4.6960 C.3       6 GLP5        0.0000 
     39 O          29.1325   64.5930    7.0135 O.2       1 ALC1        0.0000 
     40 O          30.0260   65.7670    6.7640 O.2       7 ALL1        0.0000 
     41 O          28.2390   63.4190    7.2630 O.2       4 ALP1        0.0000 
     42 N          27.2570   66.2070    6.3125 N.am      2 SEC2        0.0000 
     43 N          28.2900   67.0800    5.9260 N.am      8 SEL2        0.0000 
     44 N          26.2240   65.3340    6.6990 N.am      5 SEP2        0.0000 
     45 CA         28.3075   67.1895    3.8880 C.3       3 GLC5        0.0000 
     46 CA         27.8410   68.2490    5.4130 C.3       9 GLL5        0.0000 
     47 CA         26.9400   69.6655    4.5865 C.3       3 GLC5        0.0000 
     48 CA         26.0390   71.0820    3.7600 C.3       6 GLP5        0.0000 
     49 CA         27.6335   69.9225    6.8525 C.3       3 GLC5        0.0000 
     50 CA         27.4260   71.5960    8.2920 C.3       6 GLP5        0.0000 
     51 CA         26.7385   67.6510    6.8605 C.3       3 GLC5        0.0000 
     52 CA         25.6360   67.0530    8.3080 C.3       6 GLP5        0.0000 
     53 CA         26.7705   66.4600    4.6145 C.3       3 GLC5        0.0000 
     54 CA         25.7000   64.6710    3.8160 C.3       6 GLP5        0.0000 
     55 N          27.6665   70.5265    5.5825 N.am      2 SEC2        0.0000 
     56 N          28.6130   69.3540    5.1960 N.am      8 SEL2        0.0000 
     57 N          26.7200   71.6990    5.9690 N.am      5 SEP2        0.0000 
     58 CA         29.5645   69.9055    3.5805 C.3       3 GLC5        0.0000 
     59 CA         29.8880   69.1770    5.5530 C.3       9 GLL5        0.0000 
     60 CA         28.6570   70.3865    6.9225 C.3       3 GLC5        0.0000 
     61 N          40.2670   81.0105   -1.6695 N.am      2 SEC2        0.0000 
     62 N          40.8310   81.8730   -0.3060 N.am      8 SEL2        0.0000 
     63 N          39.7030   80.1480   -3.0330 N.am      5 SEP2        0.0000 
     64 N          40.3775   81.2995   -2.7345 N.am      2 SEC2        0.0000 
     65 N          41.0520   82.4510   -2.4360 N.am      8 SEL2        0.0000 
     66 O          40.9690   84.8350   -2.0785 O.2       1 ALC1        0.0000 
     67 O          40.7460   84.1240   -0.9960 O.2       7 ALL1        0.0000 
     68 O          41.1920   85.5460   -3.1610 O.2       4 ALP1        0.0000 
     69 CA         41.7170   84.6005    2.8950 C.3       3 GLC5        0.0000 
     70 CA         40.2330   83.1180    3.6340 C.3       9 GLL5        0.0000 
     71 CA         43.2010   86.0830    2.1560 C.3       6 GLP5        0.0000 
     72 CA         38.1700   82.7680    8.4440 C.3       3 GLC5        0.0000 
     73 CA         39.6970   83.1050    7.3920 C.3       9 GLL5        0.0000 
     74 CA         36.6430   82.4310    9.4960 C.3       6 GLP5        0.0000 
     75 CA         38.3875   84.3960    6.7485 C.3       3 GLC5        0.0000 
     76 CA         37.0780   85.6870    6.1050 C.3       6 GLP5        0.0000 
     77 CA         41.1320   81.2110    8.2780 C.3       3 GLC5        0.0000 
     78 CA         40.0380   80.1430    6.7400 C.3       9 GLL5        0.0000 
     79 CA         42.2260   82.2790    9.8160 C.3       6 GLP5        0.0000 
     80 CA         41.4170   78.6550    7.0310 C.3       3 GLC5        0.0000 
     81 CA         42.7960   77.1670    7.3220 C.3       6 GLP5        0.0000 
     82 CA         42.2070   82.3660    3.3685 C.3       3 GLC5        0.0000 
     83 CA         40.3800   81.7170    3.3140 C.3       9 GLL5        0.0000 
     84 CA         44.0340   83.0150    3.4230 C.3       6 GLP5        0.0000 
     85 CA         42.1460   78.2195    1.3045 C.3       3 GLC5        0.0000 
     86 CA         40.7000   79.9180    1.5440 C.3       9 GLL5        0.0000 
     87 CA         43.5920   76.5210    1.0650 C.3       6 GLP5        0.0000 
     88 CA         38.4375   80.5875   -0.4400 C.3       3 GLC5        0.0000 
     89 CA         39.3260   79.4870    0.9670 C.3       9 GLL5        0.0000 
     90 CA         37.5490   81.6880   -1.8470 C.3       6 GLP5        0.0000 
     91 CA         38.2015   78.1950    2.9645 C.3       3 GLC5        0.0000 
     92 CA         39.2300   77.9840    1.0200 C.3       9 GLL5        0.0000 
     93 CA         37.1730   78.4060    4.9090 C.3       6 GLP5        0.0000 
     94 O          40.3025   76.0680    1.0000 O.2       1 ALC1        0.0000 
     95 O          40.2460   77.4440    0.2490 O.2       7 ALL1        0.0000 
     96 O          40.3590   74.6920    1.7510 O.2       4 ALP1        0.0000 
     97 CA         36.1465   78.1330   -0.4375 C.3       3 GLC5        0.0000 
     98 CA         37.9370   77.5160    0.4490 C.3       9 GLL5        0.0000 
     99 CA         34.3560   78.7500   -1.3240 C.3       6 GLP5        0.0000 
    100 CA         37.6560   75.7920   -1.6900 C.3       3 GLC5        0.0000 
    101 CA         37.8590   76.0120    0.3790 C.3       9 GLL5        0.0000 
    102 CA         37.4530   75.5720   -3.7590 C.3       6 GLP5        0.0000 
    103 N          34.1040   74.7085   -1.8550 N.am      2 SEC2        0.0000 
    104 N          34.5500   74.4520   -0.5310 N.am      8 SEL2        0.0000 
    105 N          33.6580   74.9650   -3.1790 N.am      5 SEP2        0.0000 
    106 N          38.0770   72.6090   -0.7370 N.am      2 SEC2        0.0000 
    107 N          36.8330   73.2820   -0.5440 N.am      8 SEL2        0.0000 
    108 N          39.3210   71.9360   -0.9300 N.am      5 SEP2        0.0000 
    109 CA         33.2505   70.8197    2.9635 C.3       3 GLC5        0.0000 
    110 CA         33.7280   68.8460    2.5720 C.3       6 GLP5        0.0000 
    111 CA         31.0640   67.5876    4.3368 C.3       3 GLC5        0.0000 
    112 CA         30.4420   68.0430    6.0900 C.3       9 GLL5        0.0000 
    113 CA         32.1720   66.8420    2.8040 C.3       6 GLP5        0.0000 
    114 CA         41.8510   83.4440    4.6645 C.3       3 GLC5        0.0000 
    115 CA         40.0150   83.5220    4.9400 C.3       9 GLL5        0.0000 
    116 CA         43.5780   83.5680    5.0420 C.3       6 GLP5        0.0000 
    117 CA         38.5898   84.0685    4.9100 C.3       3 GLC5        0.0000 
    118 CA         37.1480   85.1740    4.6830 C.3       6 GLP5        0.0000 
    119 CA         41.0220   82.5673    8.2528 C.3       3 GLC5        0.0000 
    120 CA         39.9390   82.6060    5.9870 C.3       9 GLL5        0.0000 
    121 CA         38.6813   79.5666    5.0929 C.3       3 GLC5        0.0000 
    122 CA         40.0960   81.2080    5.6790 C.3       9 GLL5        0.0000 
    123 CA         41.8714   82.4555    5.0652 C.3       3 GLC5        0.0000 
    124 CA         40.3120   80.7790    4.3440 C.3       9 GLL5        0.0000 
    125 CA         40.9535   79.4718   -0.6318 C.3       3 GLC5        0.0000 
    126 CA         41.8940   79.2410   -2.5190 C.3       6 GLP5        0.0000 
@<TRIPOS>BOND
@<TRIPOS>SUBSTRUCTURE
     1 ALC1       21 GROUP        1 X    ALC  0     ROOT ALC X 1
     2 SEC2        1 GROUP        1 X    SEC  0     **** SEC X 2
     3 GLC5        7 GROUP        1 X    GLC  0     **** GLC X 6
     4 ALP1       23 GROUP        1 Y    ALP  0     ROOT ALP Y 8
     5 SEP2        3 GROUP        1 Y    SEP  0     **** SEP Y 9
     6 GLP5        9 GROUP        1 Y    GLP  0     **** GLP Y 13
     7 ALL1       22 GROUP        1 Z    ALL  0     ROOT ALL Z 15
     8 SEL2        2 GROUP        1 Z    SEL  0     **** SEL Z 16
     9 GLL5        8 GROUP        1 Z    GLL  0     **** GLL Z 20
@<TRIPOS>SET

