#    Name: 3f8d_FAD_1_ligand
#    Modification time : Tue Mar 25 03:21:25 2014

@<TRIPOS>MOLECULE
3f8d_FAD_1_ligand
   84    89     1     0     0
SMALL
NO_CHARGES


@<TRIPOS>ATOM
      1 PA         35.3210   74.7410    2.8840 P.3       1 FAD2001     0.0000 
      2 O1A        36.1300   74.1870    4.0010 O.co2     1 FAD2001     0.0000 
      3 O2A        35.2640   76.2020    2.6900 O.co2     1 FAD2001     0.0000 
      4 O5B        33.7910   74.2350    2.9750 O.3       1 FAD2001     0.0000 
      5 C5B        33.5260   72.8450    3.3140 C.3       1 FAD2001     0.0000 
      6 C4B        32.0200   72.7420    3.3960 C.3       1 FAD2001     0.0000 
      7 O4B        31.6630   71.3750    3.7060 O.3       1 FAD2001     0.0000 
      8 C3B        31.3530   73.5770    4.4870 C.3       1 FAD2001     0.0000 
      9 O3B        30.1280   74.0480    4.0030 O.3       1 FAD2001     0.0000 
     10 C2B        31.1890   72.5990    5.6230 C.3       1 FAD2001     0.0000 
     11 O2B        30.2300   73.0010    6.6070 O.3       1 FAD2001     0.0000 
     12 C1B        30.7660   71.3900    4.8480 C.3       1 FAD2001     0.0000 
     13 N9A        30.9060   70.0650    5.4350 N.pl3     1 FAD2001     0.0000 
     14 C8A        32.0380   69.4680    5.9150 C.2       1 FAD2001     0.0000 
     15 N7A        31.7900   68.2450    6.3220 N.2       1 FAD2001     0.0000 
     16 C5A        30.4420   68.0430    6.0900 C.ar      1 FAD2001     0.0000 
     17 C6A        29.6060   66.9360    6.2820 C.ar      1 FAD2001     0.0000 
     18 N6A        30.0260   65.7670    6.7640 N.pl3     1 FAD2001     0.0000 
     19 N1A        28.2900   67.0800    5.9260 N.ar      1 FAD2001     0.0000 
     20 C2A        27.8410   68.2490    5.4130 C.ar      1 FAD2001     0.0000 
     21 N3A        28.6130   69.3540    5.1960 N.ar      1 FAD2001     0.0000 
     22 C4A        29.8880   69.1770    5.5530 C.ar      1 FAD2001     0.0000 
     23 N1         40.8310   81.8730   -0.3060 N.2       1 FAD2001     0.0000 
     24 C2         40.8830   82.7820   -1.3150 C.2       1 FAD2001     0.0000 
     25 O2         41.0520   82.4510   -2.4360 O.2       1 FAD2001     0.0000 
     26 N3         40.7460   84.1240   -0.9960 N.am      1 FAD2001     0.0000 
     27 C4         40.5540   84.6210    0.2810 C.2       1 FAD2001     0.0000 
     28 O4         40.4410   85.8310    0.4800 O.2       1 FAD2001     0.0000 
     29 C4X        40.5000   83.6730    1.3170 C.2       1 FAD2001     0.0000 
     30 N5         40.2970   84.0630    2.6250 N.2       1 FAD2001     0.0000 
     31 C5X        40.2330   83.1180    3.6340 C.ar      1 FAD2001     0.0000 
     32 C6         40.0150   83.5220    4.9400 C.ar      1 FAD2001     0.0000 
     33 C7         39.9390   82.6060    5.9870 C.ar      1 FAD2001     0.0000 
     34 C7M        39.6970   83.1050    7.3920 C.3       1 FAD2001     0.0000 
     35 C8         40.0960   81.2080    5.6790 C.ar      1 FAD2001     0.0000 
     36 C8M        40.0380   80.1430    6.7400 C.3       1 FAD2001     0.0000 
     37 C9         40.3120   80.7790    4.3440 C.ar      1 FAD2001     0.0000 
     38 C9A        40.3800   81.7170    3.3140 C.ar      1 FAD2001     0.0000 
     39 N10        40.5800   81.3470    1.9650 N.pl3     1 FAD2001     0.0000 
     40 C10        40.6390   82.3030    0.9700 C.2       1 FAD2001     0.0000 
     41 C1'        40.7000   79.9180    1.5440 C.3       1 FAD2001     0.0000 
     42 C2'        39.3260   79.4870    0.9670 C.3       1 FAD2001     0.0000 
     43 O2'        38.2640   80.0860    1.7350 O.3       1 FAD2001     0.0000 
     44 C3'        39.2300   77.9840    1.0200 C.3       1 FAD2001     0.0000 
     45 O3'        40.2460   77.4440    0.2490 O.3       1 FAD2001     0.0000 
     46 C4'        37.9370   77.5160    0.4490 C.3       1 FAD2001     0.0000 
     47 O4'        36.7820   78.0470    1.1540 O.3       1 FAD2001     0.0000 
     48 C5'        37.8590   76.0120    0.3790 C.3       1 FAD2001     0.0000 
     49 O5'        36.5370   75.7550   -0.1170 O.3       1 FAD2001     0.0000 
     50 P          35.9370   74.3090    0.0180 P.3       1 FAD2001     0.0000 
     51 O1P        34.5500   74.4520   -0.5310 O.co2     1 FAD2001     0.0000 
     52 O2P        36.8330   73.2820   -0.5440 O.co2     1 FAD2001     0.0000 
     53 O3P        35.9330   74.0310    1.5760 O.3       1 FAD2001     0.0000 
     54 H          33.9471   72.5884    4.2697 H         1 FAD2001     0.0000 
     55 H          33.8811   72.1807    2.5465 H         1 FAD2001     0.0000 
     56 H          31.5809   73.0115    2.4463 H         1 FAD2001     0.0000 
     57 H          32.0350   74.3329    4.7737 H         1 FAD2001     0.0000 
     58 H          32.1646   72.4023    6.0206 H         1 FAD2001     0.0000 
     59 H          29.7658   71.5400    4.4615 H         1 FAD2001     0.0000 
     60 H          32.9134   69.9226    5.9396 H         1 FAD2001     0.0000 
     61 H          31.0033   65.6995    6.9650 H         1 FAD2001     0.0000 
     62 H          29.3261   65.0624    6.8814 H         1 FAD2001     0.0000 
     63 H          26.8020   68.3174    5.1562 H         1 FAD2001     0.0000 
     64 H          40.7922   84.8260   -1.7963 H         1 FAD2001     0.0000 
     65 H          39.9045   84.5357    5.1492 H         1 FAD2001     0.0000 
     66 H          40.4164   79.7809    4.1482 H         1 FAD2001     0.0000 
     67 H          40.9275   79.2898    2.3873 H         1 FAD2001     0.0000 
     68 H          41.4426   79.8086    0.7732 H         1 FAD2001     0.0000 
     69 H          39.2949   79.8031   -0.0605 H         1 FAD2001     0.0000 
     70 H          39.2942   77.6695    2.0453 H         1 FAD2001     0.0000 
     71 H          37.8898   77.8787   -0.6093 H         1 FAD2001     0.0000 
     72 H          38.0010   75.6104    1.3655 H         1 FAD2001     0.0000 
     73 H          38.6155   75.6559   -0.2959 H         1 FAD2001     0.0000 
     74 H          39.6650   82.3546    8.0523 H         1 FAD2001     0.0000 
     75 H          40.4171   83.7300    7.6933 H         1 FAD2001     0.0000 
     76 H          38.8304   83.5984    7.4668 H         1 FAD2001     0.0000 
     77 H          40.1623   79.2284    6.3553 H         1 FAD2001     0.0000 
     78 H          40.7488   80.2690    7.4320 H         1 FAD2001     0.0000 
     79 H          39.1599   80.1429    7.2185 H         1 FAD2001     0.0000 
     80 H          30.1347   75.0296    4.1938 H         1 FAD2001     0.0000 
     81 H          29.6008   72.2278    6.6861 H         1 FAD2001     0.0000 
     82 H          37.4965   79.4499    1.6553 H         1 FAD2001     0.0000 
     83 H          40.3974   76.5296    0.6243 H         1 FAD2001     0.0000 
     84 H          36.4126   77.2716    1.6662 H         1 FAD2001     0.0000 
@<TRIPOS>BOND
     1    2    1 ar   
     2    3    1 ar   
     3    4    1 1    
     4   53    1 1    
     5    5    4 1    
     6    6    5 1    
     7   54    5 1    
     8   55    5 1    
     9    7    6 1    
    10    8    6 1    
    11   56    6 1    
    12   12    7 1    
    13    9    8 1    
    14   10    8 1    
    15   57    8 1    
    16   80    9 1    
    17   11   10 1    
    18   12   10 1    
    19   58   10 1    
    20   81   11 1    
    21   13   12 1    
    22   59   12 1    
    23   14   13 1    
    24   22   13 1    
    25   15   14 2    
    26   60   14 1    
    27   16   15 1    
    28   17   16 ar   
    29   22   16 ar   
    30   18   17 1    
    31   19   17 ar   
    32   61   18 1    
    33   62   18 1    
    34   20   19 ar   
    35   21   20 ar   
    36   63   20 1    
    37   22   21 ar   
    38   24   23 1    
    39   40   23 2    
    40   25   24 2    
    41   26   24 am   
    42   27   26 am   
    43   64   26 1    
    44   28   27 2    
    45   29   27 1    
    46   30   29 2    
    47   40   29 1    
    48   31   30 1    
    49   32   31 ar   
    50   38   31 ar   
    51   33   32 ar   
    52   65   32 1    
    53   34   33 1    
    54   35   33 ar   
    55   74   34 1    
    56   75   34 1    
    57   76   34 1    
    58   36   35 1    
    59   37   35 ar   
    60   77   36 1    
    61   78   36 1    
    62   79   36 1    
    63   38   37 ar   
    64   66   37 1    
    65   39   38 1    
    66   40   39 1    
    67   41   39 1    
    68   42   41 1    
    69   67   41 1    
    70   68   41 1    
    71   43   42 1    
    72   44   42 1    
    73   69   42 1    
    74   82   43 1    
    75   45   44 1    
    76   46   44 1    
    77   70   44 1    
    78   83   45 1    
    79   47   46 1    
    80   48   46 1    
    81   71   46 1    
    82   84   47 1    
    83   49   48 1    
    84   72   48 1    
    85   73   48 1    
    86   50   49 1    
    87   51   50 ar   
    88   52   50 ar   
    89   53   50 1    
@<TRIPOS>SUBSTRUCTURE
     1 FAD2001     1 GROUP   
@<TRIPOS>SET

