#    Name: 1X97_1_CAVITY_N1_6.mol2
#    Modification time : Mon Mar 10 17:37:00 2014

@<TRIPOS>MOLECULE
1X97_1_CAVITY_N1_6.mol2
   97     0     4     0     0
SMALL
NO_CHARGES


@<TRIPOS>ATOM
      1 CZ         24.0694   -9.6741   12.8033 C.ar      2 PHE5        0.0000 
      2 CA         24.1233   -8.6659   11.6940 C.3       3 GLY6        0.0000 
      3 CZ         22.6141   -9.9049   12.5229 C.ar      2 PHE5        0.0000 
      4 CA         22.6680   -8.8966   11.4136 C.3       3 GLY6        0.0000 
      5 CZ         21.1587  -10.1356   12.2424 C.ar      2 PHE5        0.0000 
      6 O          21.2126   -9.1274   11.1331 O.2       1 ALA2        0.0000 
      7 O          21.2665   -8.1191   10.0238 O.2       1 ALA2        0.0000 
      8 DU         19.7033  -10.3664   11.9620 H         4 CUB7        0.0000 
      9 DU         19.7572   -9.3581   10.8527 H         4 CUB7        0.0000 
     10 CZ         18.2479  -10.5971   11.6815 C.ar      2 PHE5        0.0000 
     11 CZ         18.3018   -9.5888   10.5722 C.ar      2 PHE5        0.0000 
     12 CA         25.2196   -7.3488   12.9444 C.3       3 GLY6        0.0000 
     13 CA         23.7642   -7.5795   12.6640 C.3       3 GLY6        0.0000 
     14 CA         23.8181   -6.5713   11.5547 C.3       3 GLY6        0.0000 
     15 CZ         22.2549   -8.8185   13.4928 C.ar      2 PHE5        0.0000 
     16 O          22.3088   -7.8103   12.3835 O.2       1 ALA2        0.0000 
     17 O          22.3627   -6.8020   11.2742 O.2       1 ALA2        0.0000 
     18 CZ         20.7995   -9.0492   13.2124 C.ar      2 PHE5        0.0000 
     19 O          20.8534   -8.0410   12.1031 O.2       1 ALA2        0.0000 
     20 CZ         19.2903  -10.2882   14.0412 C.ar      2 PHE5        0.0000 
     21 CZ         19.3442   -9.2800   12.9319 C.ar      2 PHE5        0.0000 
     22 CA         19.3981   -8.2717   11.8226 C.3       3 GLY6        0.0000 
     23 CA         19.4520   -7.2635   10.7133 C.3       3 GLY6        0.0000 
     24 DU         17.7810  -11.5272   14.8701 H         4 CUB7        0.0000 
     25 CZ         17.8349  -10.5190   13.7608 C.ar      2 PHE5        0.0000 
     26 CZ         17.8888   -9.5107   12.6515 C.ar      2 PHE5        0.0000 
     27 CZ         17.9427   -8.5025   11.5422 C.ar      2 PHE5        0.0000 
     28 CZ         16.3795  -10.7497   13.4803 C.ar      2 PHE5        0.0000 
     29 O          26.3158   -6.0317   14.1948 O.2       1 ALA2        0.0000 
     30 CA         24.9143   -5.2542   12.8051 C.3       3 GLY6        0.0000 
     31 CZ         23.4051   -6.4932   13.6339 C.ar      2 PHE5        0.0000 
     32 O          23.4590   -5.4849   12.5246 O.2       1 ALA2        0.0000 
     33 CZ         21.9497   -6.7239   13.3535 C.ar      2 PHE5        0.0000 
     34 CZ         20.4404   -7.9629   14.1823 C.ar      2 PHE5        0.0000 
     35 O          20.4943   -6.9546   13.0730 O.2       1 ALA2        0.0000 
     36 CA         18.7694  -12.2266   18.3391 C.3       3 GLY6        0.0000 
     37 CZ         18.8233  -11.2183   17.2298 C.ar      2 PHE5        0.0000 
     38 CZ         18.8772  -10.2101   16.1205 C.ar      2 PHE5        0.0000 
     39 CZ         18.9311   -9.2019   15.0112 C.ar      2 PHE5        0.0000 
     40 CZ         18.9850   -8.1936   13.9019 C.ar      2 PHE5        0.0000 
     41 CA         19.0389   -7.1854   12.7926 C.3       3 GLY6        0.0000 
     42 O          17.3140  -12.4573   18.0586 O.2       1 ALA2        0.0000 
     43 O          17.3679  -11.4491   16.9493 O.2       1 ALA2        0.0000 
     44 DU         17.4218  -10.4408   15.8400 H         4 CUB7        0.0000 
     45 DU         17.4757   -9.4326   14.7307 H         4 CUB7        0.0000 
     46 CZ         17.5296   -8.4243   13.6214 C.ar      2 PHE5        0.0000 
     47 CA         17.5836   -7.4161   12.5121 C.3       3 GLY6        0.0000 
     48 DU         15.8586  -12.6881   17.7782 H         4 CUB7        0.0000 
     49 DU         15.9125  -11.6798   16.6689 H         4 CUB7        0.0000 
     50 CZ         15.9664  -10.6716   15.5596 C.ar      2 PHE5        0.0000 
     51 CZ         16.0204   -9.6633   14.4503 C.ar      2 PHE5        0.0000 
     52 N          14.4033  -12.9188   17.4977 N.2       1 ALA2        0.0000 
     53 CA         14.4572  -11.9106   16.3884 C.3       3 GLY6        0.0000 
     54 CA         14.5111  -10.9023   15.2791 C.3       3 GLY6        0.0000 
     55 CA         21.5905   -5.6375   14.3235 C.3       3 GLY6        0.0000 
     56 CZ         20.0813   -6.8765   15.1523 C.ar      2 PHE5        0.0000 
     57 O          20.1352   -5.8683   14.0430 O.2       1 ALA2        0.0000 
     58 CZ         18.5181   -9.1237   17.0904 C.ar      2 PHE5        0.0000 
     59 CZ         18.5720   -8.1155   15.9811 C.ar      2 PHE5        0.0000 
     60 CZ         18.6259   -7.1072   14.8718 C.ar      2 PHE5        0.0000 
     61 CA         18.6798   -6.0990   13.7626 C.3       3 GLY6        0.0000 
     62 O          17.0627   -9.3545   16.8100 O.2       1 ALA2        0.0000 
     63 DU         17.1166   -8.3462   15.7007 H         4 CUB7        0.0000 
     64 DU         17.1705   -7.3380   14.5914 H         4 CUB7        0.0000 
     65 CA         17.2244   -6.3297   13.4821 C.3       3 GLY6        0.0000 
     66 O          15.4995  -11.6017   18.7481 O.2       1 ALA2        0.0000 
     67 O          15.5534  -10.5934   17.6388 O.2       1 ALA2        0.0000 
     68 DU         15.6073   -9.5852   16.5295 H         4 CUB7        0.0000 
     69 CZ         15.6612   -8.5770   15.4202 C.ar      2 PHE5        0.0000 
     70 CZ         15.7151   -7.5687   14.3110 C.ar      2 PHE5        0.0000 
     71 N          14.0441  -11.8324   18.4677 N.2       1 ALA2        0.0000 
     72 N          14.0980  -10.8242   17.3584 N.2       1 ALA2        0.0000 
     73 CA         14.1519   -9.8159   16.2491 C.3       3 GLY6        0.0000 
     74 CZ         14.2058   -8.8077   15.1398 C.ar      2 PHE5        0.0000 
     75 CZ         19.6682   -6.7984   17.2315 C.ar      2 PHE5        0.0000 
     76 CA         19.7221   -5.7901   16.1223 C.3       3 GLY6        0.0000 
     77 CA         19.7760   -4.7819   15.0130 C.3       3 GLY6        0.0000 
     78 CZ         18.2128   -7.0291   16.9511 C.ar      2 PHE5        0.0000 
     79 CA         18.2667   -6.0209   15.8418 C.3       3 GLY6        0.0000 
     80 CZ         18.3206   -5.0126   14.7325 C.ar      2 PHE5        0.0000 
     81 O          16.7035   -8.2681   17.7799 O.2       1 ALA2        0.0000 
     82 DU         16.7574   -7.2598   16.6707 H         4 CUB7        0.0000 
     83 CZ         16.8114   -6.2516   15.5614 C.ar      2 PHE5        0.0000 
     84 O          15.1943   -9.5071   18.6088 O.2       1 ALA2        0.0000 
     85 O          15.2482   -8.4988   17.4995 O.2       1 ALA2        0.0000 
     86 CZ         15.3021   -7.4906   16.3902 C.ar      2 PHE5        0.0000 
     87 O          15.3560   -6.4823   15.2809 O.2       1 ALA2        0.0000 
     88 CA         13.7389   -9.7378   18.3283 C.3       3 GLY6        0.0000 
     89 CZ         13.8467   -7.7213   16.1098 C.ar      2 PHE5        0.0000 
     90 CA         17.8537   -5.9427   17.9211 C.3       3 GLY6        0.0000 
     91 CA         17.9076   -4.9345   16.8118 C.3       3 GLY6        0.0000 
     92 CZ         16.3444   -7.1817   18.7499 C.ar      2 PHE5        0.0000 
     93 CZ         16.3983   -6.1735   17.6406 C.ar      2 PHE5        0.0000 
     94 CZ         16.4522   -5.1652   16.5313 C.ar      2 PHE5        0.0000 
     95 CZ         14.8890   -7.4125   18.4695 C.ar      2 PHE5        0.0000 
     96 N          14.9429   -6.4042   17.3602 N.2       1 ALA2        0.0000 
     97 O          14.9968   -5.3960   16.2509 O.2       1 ALA2        0.0000 
@<TRIPOS>BOND
@<TRIPOS>SUBSTRUCTURE
     1 ALA2        6 GROUP   
     2 PHE5        1 GROUP   
     3 GLY6        2 GROUP   
     4 CUB7        8 GROUP   
@<TRIPOS>SET

