#    Name: 1x97_FIR_1_INTS_M
#    Modification time : Mon Apr  7 15:09:05 2014

@<TRIPOS>MOLECULE
1x97_FIR_1_INTS_M
   36     0     9     0     0
SMALL
NO_CHARGES


@<TRIPOS>ATOM
      1 N          14.8600   -5.3520   21.1350 N.am      2 SEC2        0.0000 
      2 N          15.9170   -5.5970   20.5150 N.am      8 SEL2        0.0000 
      3 N          13.8030   -5.1070   21.7550 N.am      5 SEP2        0.0000 
      4 N          14.6520   -4.6030   15.2570 N.am      2 SEC2        0.0000 
      5 N          15.0060   -5.6980   16.0430 N.am      8 SEL2        0.0000 
      6 N          14.2980   -3.5080   14.4710 N.am      5 SEP2        0.0000 
      7 O          13.9085   -4.7815   18.2455 O.2       1 ALC1        0.0000 
      8 O          15.0860   -5.4170   18.4080 O.2       7 ALL1        0.0000 
      9 O          12.7310   -4.1460   18.0830 O.2       4 ALP1        0.0000 
     10 CA         13.5035   -8.6470   17.7605 C.3       3 GLC5        0.0000 
     11 CA         15.5570   -8.8120   17.6200 C.3       9 GLL5        0.0000 
     12 CA         11.4500   -8.4820   17.9010 C.3       6 GLP5        0.0000 
     13 CA         20.0760   -7.6750   15.8855 C.3       3 GLC5        0.0000 
     14 CA         18.5430   -6.7430   15.4620 C.3       9 GLL5        0.0000 
     15 CA         21.6090   -8.6070   16.3090 C.3       6 GLP5        0.0000 
     16 CA         15.4340  -10.2115   19.5980 C.3       3 GLC5        0.0000 
     17 CA         14.3200  -10.7780   17.8800 C.3       9 GLL5        0.0000 
     18 CA         16.5480   -9.6450   21.3160 C.3       6 GLP5        0.0000 
     19 CA         13.6560   -9.6950   19.5380 C.3       3 GLC5        0.0000 
     20 CA         12.9920   -8.6120   21.1960 C.3       6 GLP5        0.0000 
     21 N          20.0685   -4.6245   12.5575 N.am      2 SEC2        0.0000 
     22 N          19.4080   -5.2070   13.6430 N.am      8 SEL2        0.0000 
     23 N          20.7290   -4.0420   11.4720 N.am      5 SEP2        0.0000 
     24 CA         18.1190   -7.7040   18.3295 C.3       3 GLC5        0.0000 
     25 CA         16.7500   -6.6120   17.2730 C.3       9 GLL5        0.0000 
     26 CA         19.4880   -8.7960   19.3860 C.3       6 GLP5        0.0000 
     27 CA         17.0725   -4.8655   18.6265 C.3       3 GLC5        0.0000 
     28 CA         17.3950   -3.1190   19.9800 C.3       6 GLP5        0.0000 
     29 CA         17.1330   -4.3260   15.2770 C.3       3 GLC5        0.0000 
     30 CA         17.5650   -5.8970   16.2240 C.3       9 GLL5        0.0000 
     31 CA         16.7010   -2.7550   14.3300 C.3       6 GLP5        0.0000 
     32 CA         19.4145   -5.2340   16.9465 C.3       3 GLC5        0.0000 
     33 CA         20.7750   -4.1480   18.0500 C.3       6 GLP5        0.0000 
     34 CA         13.0286  -10.3761   16.6171 C.3       3 GLC5        0.0000 
     35 CA         15.1510  -10.0120   17.1140 C.3       9 GLL5        0.0000 
     36 CA         11.2210  -10.2470   16.0430 C.3       6 GLP5        0.0000 
@<TRIPOS>BOND
@<TRIPOS>SUBSTRUCTURE
     1 ALC1        7 GROUP        1 X    ALC  0     ROOT ALC X 1
     2 SEC2        1 GROUP        1 X    SEC  0     **** SEC X 2
     3 GLC5       10 GROUP        1 X    GLC  0     **** GLC X 6
     4 ALP1        9 GROUP        1 Y    ALP  0     ROOT ALP Y 8
     5 SEP2        3 GROUP        1 Y    SEP  0     **** SEP Y 9
     6 GLP5       12 GROUP        1 Y    GLP  0     **** GLP Y 13
     7 ALL1        8 GROUP        1 Z    ALL  0     ROOT ALL Z 15
     8 SEL2        2 GROUP        1 Z    SEL  0     **** SEL Z 16
     9 GLL5       11 GROUP        1 Z    GLL  0     **** GLL Z 20
@<TRIPOS>SET

