#    Name: 1x97_FIR_1_ligand
#    Modification time : Mon Apr  7 15:09:05 2014

@<TRIPOS>MOLECULE
1x97_FIR_1_ligand
   30    32     1     0     0
SMALL
NO_CHARGES


@<TRIPOS>ATOM
      1 O3I        15.9170   -5.5970   20.5150 O.2       1 FIR1320     0.0000 
      2 O6I        15.0060   -5.6980   16.0430 O.2       1 FIR1320     0.0000 
      3 N1I        17.0280   -6.4610   18.6820 N.am      1 FIR1320     0.0000 
      4 C2I        16.1030   -5.8580   19.3020 C.2       1 FIR1320     0.0000 
      5 N4         15.0860   -5.4170   18.4080 N.am      1 FIR1320     0.0000 
      6 O10        17.7570   -7.7480   14.8310 O.3       1 FIR1320     0.0000 
      7 C16        16.3830   -9.6740   15.1150 C.ar      1 FIR1320     0.0000 
      8 C11        16.8790   -8.4650   15.6030 C.ar      1 FIR1320     0.0000 
      9 C12        16.4340   -8.0500   16.8510 C.ar      1 FIR1320     0.0000 
     10 C13        15.5570   -8.8120   17.6200 C.ar      1 FIR1320     0.0000 
     11 C14        15.1510  -10.0120   17.1140 C.ar      1 FIR1320     0.0000 
     12 C15        15.5540  -10.4530   15.8910 C.ar      1 FIR1320     0.0000 
     13 C9         18.5430   -6.7430   15.4620 C.3       1 FIR1320     0.0000 
     14 C5         15.4180   -5.8040   17.1750 C.2       1 FIR1320     0.0000 
     15 F17        14.3200  -10.7780   17.8800 F         1 FIR1320     0.0000 
     16 O20        19.4080   -5.2070   13.6430 O.2       1 FIR1320     0.0000 
     17 N21        20.7740   -5.9770   15.1320 N.am      1 FIR1320     0.0000 
     18 C19        19.5160   -5.9340   14.6490 C.2       1 FIR1320     0.0000 
     19 C7I        16.7500   -6.6120   17.2730 C.3       1 FIR1320     0.0000 
     20 C8I        17.5650   -5.8970   16.2240 C.3       1 FIR1320     0.0000 
     21 H          17.8831   -6.8251   19.0376 H         1 FIR1320     0.0000 
     22 H          14.3171   -4.9303   18.6936 H         1 FIR1320     0.0000 
     23 H          16.6441   -9.9803   14.1634 H         1 FIR1320     0.0000 
     24 H          15.2391   -8.4738   18.5237 H         1 FIR1320     0.0000 
     25 H          15.2406  -11.3749   15.5371 H         1 FIR1320     0.0000 
     26 H          19.1482   -7.2575   16.2859 H         1 FIR1320     0.0000 
     27 H          20.9072   -6.5129   15.9657 H         1 FIR1320     0.0000 
     28 H          21.4620   -5.4692   14.6135 H         1 FIR1320     0.0000 
     29 H          16.8680   -5.4085   15.5017 H         1 FIR1320     0.0000 
     30 H          18.1148   -5.0561   16.7106 H         1 FIR1320     0.0000 
@<TRIPOS>BOND
     1    4    1 2    
     2   14    2 2    
     3    4    3 am   
     4   19    3 1    
     5   21    3 1    
     6    5    4 am   
     7   14    5 am   
     8   22    5 1    
     9    8    6 1    
    10   13    6 1    
    11    8    7 ar   
    12   12    7 ar   
    13   23    7 1    
    14    9    8 ar   
    15   10    9 ar   
    16   19    9 1    
    17   11   10 ar   
    18   24   10 1    
    19   12   11 ar   
    20   15   11 1    
    21   25   12 1    
    22   18   13 1    
    23   20   13 1    
    24   26   13 1    
    25   19   14 1    
    26   18   16 2    
    27   18   17 am   
    28   27   17 1    
    29   28   17 1    
    30   20   19 1    
    31   29   20 1    
    32   30   20 1    
@<TRIPOS>SUBSTRUCTURE
     1 FIR1320     1 GROUP   
@<TRIPOS>SET

