#    Name: 2XVW_1_CAVITY_N1_6.mol2
#    Modification time : Tue Mar 11 01:04:40 2014

@<TRIPOS>MOLECULE
2XVW_1_CAVITY_N1_6.mol2
  109     0     7     0     0
SMALL
NO_CHARGES


@<TRIPOS>ATOM
      1 CZ         31.4980   16.2299   21.9563 C.ar      5 PHE5        0.0000 
      2 CZ         30.7622   17.5186   22.1753 C.ar      5 PHE5        0.0000 
      3 NZ         30.4695   15.8142   20.9466 N.2       4 LYS4        0.0000 
      4 CZ         29.7337   17.1029   21.1656 C.ar      5 PHE5        0.0000 
      5 NZ         28.9978   18.3915   21.3846 N.2       4 LYS4        0.0000 
      6 CA         29.4410   15.3986   19.9369 C.3       6 GLY6        0.0000 
      7 NZ         28.7052   16.6872   20.1559 N.2       4 LYS4        0.0000 
      8 NZ         27.9693   17.9758   20.3750 N.2       4 LYS4        0.0000 
      9 OG         29.8842   12.4056   18.4892 O.2       1 SER1        0.0000 
     10 OG         29.1484   13.6943   18.7082 O.2       1 SER1        0.0000 
     11 NZ         28.4125   14.9829   18.9272 N.2       4 LYS4        0.0000 
     12 NZ         27.6767   16.2715   19.1463 N.2       4 LYS4        0.0000 
     13 NZ         26.9409   17.5601   19.3653 N.2       4 LYS4        0.0000 
     14 CA         29.5916   10.7013   17.2605 C.3       6 GLY6        0.0000 
     15 CA         28.8557   11.9900   17.4795 C.3       6 GLY6        0.0000 
     16 CA         28.1199   13.2786   17.6985 C.3       6 GLY6        0.0000 
     17 CA         29.6628   15.1688   22.0341 C.3       6 GLY6        0.0000 
     18 CA         28.9270   16.4574   22.2531 C.3       6 GLY6        0.0000 
     19 CA         28.6343   14.7531   21.0244 C.3       6 GLY6        0.0000 
     20 CA         27.8985   16.0417   21.2434 C.3       6 GLY6        0.0000 
     21 CA         27.6058   14.3374   20.0147 C.3       6 GLY6        0.0000 
     22 OD1        26.8700   15.6260   20.2337 O.3       3 ASP3        0.0000 
     23 CZ         37.3046   10.0189   16.3700 C.ar      5 PHE5        0.0000 
     24 CZ         36.5688   11.3075   16.5890 C.ar      5 PHE5        0.0000 
     25 NZ         35.0971   13.8848   17.0271 N.2       4 LYS4        0.0000 
     26 O          34.3613   15.1734   17.2461 O.2       2 ALA2        0.0000 
     27 O          36.2762    9.6032   15.3603 O.2       2 ALA2        0.0000 
     28 O          35.5403   10.8919   15.5794 O.2       2 ALA2        0.0000 
     29 O          34.8045   12.1805   15.7984 O.2       2 ALA2        0.0000 
     30 O          34.0686   13.4691   16.0174 O.2       2 ALA2        0.0000 
     31 NZ         33.3328   14.7577   16.2365 N.2       4 LYS4        0.0000 
     32 O          32.5970   16.0464   16.4555 O.2       2 ALA2        0.0000 
     33 CA         35.2477    9.1876   14.3507 C.3       6 GLY6        0.0000 
     34 O          34.5118   10.4762   14.5697 O.2       2 ALA2        0.0000 
     35 O          33.7760   11.7648   14.7887 O.2       2 ALA2        0.0000 
     36 O          33.0402   13.0534   15.0078 O.2       2 ALA2        0.0000 
     37 DU         32.3043   14.3421   15.2268 H         7 CUB7        0.0000 
     38 NZ         31.5685   15.6307   15.4458 N.2       4 LYS4        0.0000 
     39 O          34.2192    8.7719   13.3410 O.2       2 ALA2        0.0000 
     40 O          33.4834   10.0605   13.5600 O.2       2 ALA2        0.0000 
     41 DU         32.7475   11.3491   13.7791 H         7 CUB7        0.0000 
     42 DU         32.0117   12.6378   13.9981 H         7 CUB7        0.0000 
     43 DU         31.2758   13.9264   14.2171 H         7 CUB7        0.0000 
     44 NZ         30.5400   15.2150   14.4361 N.2       4 LYS4        0.0000 
     45 OD1        31.7190   10.9335   12.7694 O.3       3 ASP3        0.0000 
     46 OD1        30.9832   12.2221   12.9884 O.3       3 ASP3        0.0000 
     47 OD1        30.2474   13.5107   13.2074 O.3       3 ASP3        0.0000 
     48 NZ         29.5115   14.7993   13.4265 N.2       4 LYS4        0.0000 
     49 O          32.8187   15.8166   18.5526 O.2       2 ALA2        0.0000 
     50 N          30.6112   19.6825   19.2097 N.2       2 ALA2        0.0000 
     51 N          35.4695    8.9577   16.4478 N.2       2 ALA2        0.0000 
     52 N          34.7336   10.2464   16.6668 N.2       2 ALA2        0.0000 
     53 NZ         33.9978   11.5350   16.8859 N.2       4 LYS4        0.0000 
     54 NZ         33.2619   12.8236   17.1049 N.2       4 LYS4        0.0000 
     55 NZ         32.5261   14.1123   17.3239 N.2       4 LYS4        0.0000 
     56 NZ         31.7903   15.4009   17.5430 N.2       4 LYS4        0.0000 
     57 N          34.4410    8.5421   15.4381 N.2       2 ALA2        0.0000 
     58 CA         33.7051    9.8307   15.6572 C.3       6 GLY6        0.0000 
     59 CA         32.9693   11.1193   15.8762 C.3       6 GLY6        0.0000 
     60 NZ         32.2335   12.4080   16.0952 N.2       4 LYS4        0.0000 
     61 DU         31.4976   13.6966   16.3143 H         7 CUB7        0.0000 
     62 NZ         30.7618   14.9852   16.5333 N.2       4 LYS4        0.0000 
     63 O          33.4125    8.1264   14.4285 O.2       2 ALA2        0.0000 
     64 CA         32.6767    9.4150   14.6475 C.3       6 GLY6        0.0000 
     65 DU         31.9408   10.7037   14.8665 H         7 CUB7        0.0000 
     66 DU         31.2050   11.9923   15.0856 H         7 CUB7        0.0000 
     67 DU         30.4691   13.2809   15.3046 H         7 CUB7        0.0000 
     68 NZ         29.7333   14.5695   15.5236 N.2       4 LYS4        0.0000 
     69 O          32.3840    7.7107   13.4188 O.2       2 ALA2        0.0000 
     70 CA         31.6482    8.9993   13.6378 C.3       6 GLY6        0.0000 
     71 OD1        30.9123   10.2880   13.8569 O.3       3 ASP3        0.0000 
     72 OD1        30.1765   11.5766   14.0759 O.3       3 ASP3        0.0000 
     73 NZ         28.7048   14.1539   14.5139 N.2       4 LYS4        0.0000 
     74 NZ         32.3047   16.8754   20.8688 N.2       4 LYS4        0.0000 
     75 CZ         31.5688   18.1640   21.0878 C.ar      5 PHE5        0.0000 
     76 NZ         31.2762   16.4597   19.8591 N.2       4 LYS4        0.0000 
     77 NZ         30.5404   17.7484   20.0781 N.2       4 LYS4        0.0000 
     78 N          29.8045   19.0370   20.2972 N.2       2 ALA2        0.0000 
     79 NZ         31.7194   13.4668   18.4114 N.2       4 LYS4        0.0000 
     80 NZ         30.9836   14.7554   18.6304 N.2       4 LYS4        0.0000 
     81 NZ         30.2477   16.0440   18.8494 N.2       4 LYS4        0.0000 
     82 NZ         28.7760   18.6213   19.2875 N.2       4 LYS4        0.0000 
     83 N          33.6343    7.8966   16.5256 N.2       2 ALA2        0.0000 
     84 CA         31.4268   11.7625   17.1827 C.3       6 GLY6        0.0000 
     85 OG         30.6909   13.0511   17.4017 O.2       1 SER1        0.0000 
     86 NZ         29.9551   14.3397   17.6207 N.2       4 LYS4        0.0000 
     87 CA         32.6058    7.4809   15.5159 C.3       6 GLY6        0.0000 
     88 CA         31.8700    8.7695   15.7350 C.3       6 GLY6        0.0000 
     89 CA         31.1341   10.0582   15.9540 C.3       6 GLY6        0.0000 
     90 CA         30.3983   11.3468   16.1730 C.3       6 GLY6        0.0000 
     91 DU         29.6624   12.6354   16.3921 H         7 CUB7        0.0000 
     92 NZ         28.9266   13.9241   16.6111 N.2       4 LYS4        0.0000 
     93 NZ         26.7191   17.7900   17.2682 N.2       4 LYS4        0.0000 
     94 N          31.5773    7.0652   14.5063 N.2       2 ALA2        0.0000 
     95 CA         30.8415    8.3539   14.7253 C.3       6 GLY6        0.0000 
     96 CA         30.1056    9.6425   14.9443 C.3       6 GLY6        0.0000 
     97 CA         29.3698   10.9311   15.1634 C.3       6 GLY6        0.0000 
     98 CA         28.6340   12.2198   15.3824 C.3       6 GLY6        0.0000 
     99 N          35.0968   11.3515   11.3851 N.2       2 ALA2        0.0000 
    100 O          35.1680   15.8189   16.1587 O.2       2 ALA2        0.0000 
    101 O          34.1395   15.4032   15.1490 O.2       2 ALA2        0.0000 
    102 O          36.0544    9.8330   13.2632 O.2       2 ALA2        0.0000 
    103 O          35.3185   11.1217   13.4822 O.2       2 ALA2        0.0000 
    104 O          33.8469   13.6989   13.9203 O.2       2 ALA2        0.0000 
    105 CA         33.1110   14.9876   14.1393 C.3       6 GLY6        0.0000 
    106 N          34.2901   10.7060   12.4726 N.2       2 ALA2        0.0000 
    107 N          33.5542   11.9946   12.6916 N.2       2 ALA2        0.0000 
    108 CA         32.8184   13.2832   12.9106 C.3       6 GLY6        0.0000 
    109 CA         32.0825   14.5719   13.1296 C.3       6 GLY6        0.0000 
@<TRIPOS>BOND
@<TRIPOS>SUBSTRUCTURE
     1 SER1        9 GROUP   
     2 ALA2       26 GROUP   
     3 ASP3       22 GROUP   
     4 LYS4        3 GROUP   
     5 PHE5        1 GROUP   
     6 GLY6        6 GROUP   
     7 CUB7       37 GROUP   
@<TRIPOS>SET

