#    Name: 2xvw_9NR_1_INTS_M
#    Modification time : Tue Mar 25 06:59:08 2014

@<TRIPOS>MOLECULE
2xvw_9NR_1_INTS_M
   62     0    12     0     0
SMALL
NO_CHARGES


@<TRIPOS>ATOM
      1 O          29.9470   16.5935   11.1100 O.2       1 ALC1        0.0000 
      2 O          29.6720   15.1020   10.6650 O.2       9 ALL1        0.0000 
      3 O          30.2220   18.0850   11.5550 O.2       5 ALP1        0.0000 
      4 CA         27.7745   12.7640   10.2195 C.3       4 GLC5        0.0000 
      5 CA         28.8280   14.1990   11.4620 C.3      12 GLL5        0.0000 
      6 CA         26.7210   11.3290    8.9770 C.3       8 GLP5        0.0000 
      7 NZ         27.8355   12.1560   11.3525 N.4       3 LYC4        0.0000 
      8 NZ         26.5630   13.4470   11.1240 N.4      11 LYL4        0.0000 
      9 NZ         29.1080   10.8650   11.5810 N.4       7 LYP4        0.0000 
     10 CA         31.9515   15.6665   12.6855 C.3       4 GLC5        0.0000 
     11 CA         30.7730   14.2390   13.1070 C.3      12 GLL5        0.0000 
     12 CA         33.1300   17.0940   12.2640 C.3       8 GLP5        0.0000 
     13 OD1        32.7240   13.2450   18.1355 O.co2     2 ASC3        0.0000 
     14 OD1        31.4130   13.5330   16.7060 O.co2    10 ASL3        0.0000 
     15 OD1        34.0350   12.9570   19.5650 O.co2     6 ASP3        0.0000 
     16 O          32.0420   14.2000   19.3670 O.2       1 ALC1        0.0000 
     17 O          31.3490   14.3210   17.7650 O.2       9 ALL1        0.0000 
     18 O          32.7350   14.0790   20.9690 O.2       5 ALP1        0.0000 
     19 NZ         27.2705   17.3015   10.3325 N.4       3 LYC4        0.0000 
     20 NZ         26.9490   15.6500   11.2550 N.4      11 LYL4        0.0000 
     21 NZ         27.5920   18.9530    9.4100 N.4       7 LYP4        0.0000 
     22 CA         31.9505   13.7950    7.4110 C.3       4 GLC5        0.0000 
     23 CA         31.6150   15.4400    8.7510 C.3      12 GLL5        0.0000 
     24 CA         32.2860   12.1500    6.0710 C.3       8 GLP5        0.0000 
     25 CA         30.1915   18.1870    7.6645 C.3       4 GLC5        0.0000 
     26 CA         31.5540   16.4770    7.8610 C.3      12 GLL5        0.0000 
     27 CA         28.8290   19.8970    7.4680 C.3       8 GLP5        0.0000 
     28 CA         35.2300   17.7855    6.4730 C.3       4 GLC5        0.0000 
     29 CA         33.9700   16.8100    7.9780 C.3      12 GLL5        0.0000 
     30 CA         36.4900   18.7610    4.9680 C.3       8 GLP5        0.0000 
     31 CA         38.8175   18.1810    9.5760 C.3       4 GLC5        0.0000 
     32 CA         36.8740   17.2260    9.9960 C.3      12 GLL5        0.0000 
     33 CA         40.7610   19.1360    9.1560 C.3       8 GLP5        0.0000 
     34 CA         37.7295   18.0280   11.3615 C.3       4 GLC5        0.0000 
     35 CA         38.5850   18.8300   12.7270 C.3       8 GLP5        0.0000 
     36 CA         36.2350   19.1030    9.8315 C.3       4 GLC5        0.0000 
     37 CA         35.5960   20.9800    9.6670 C.3       8 GLP5        0.0000 
     38 CA         35.0020   17.1600   11.1300 C.3       4 GLC5        0.0000 
     39 CA         39.6955   14.4230    9.6435 C.3       4 GLC5        0.0000 
     40 CA         37.9120   15.2830    9.0780 C.3      12 GLL5        0.0000 
     41 CA         41.4790   13.5630   10.2090 C.3       8 GLP5        0.0000 
     42 CA         37.8180   14.5885    7.4345 C.3       4 GLC5        0.0000 
     43 CA         37.7240   13.8940    5.7910 C.3       8 GLP5        0.0000 
     44 CA         32.0932   17.0857    9.8530 C.3       4 GLC5        0.0000 
     45 CA         32.6020   18.2130   11.4000 C.3       8 GLP5        0.0000 
     46 CA         31.3792   16.4875    5.9450 C.3       4 GLC5        0.0000 
     47 CA         30.6160   16.1530    4.2270 C.3       8 GLP5        0.0000 
     48 CA         34.2122   18.7328    8.0247 C.3       4 GLC5        0.0000 
     49 CA         32.7310   17.1670    7.4650 C.3      12 GLL5        0.0000 
     50 CA         35.0740   20.4770    8.3280 C.3       8 GLP5        0.0000 
     51 CA         32.9763   17.6007    9.5608 C.3       4 GLC5        0.0000 
     52 CA         34.0140   13.8360    8.1530 C.3       4 GLC5        0.0000 
     53 CA         34.1140   15.7250    8.9280 C.3      12 GLL5        0.0000 
     54 CA         34.5210   12.3160    7.1650 C.3       8 GLP5        0.0000 
     55 CA         33.3185   16.2250   10.7025 C.3       4 GLC5        0.0000 
     56 CA         32.9000   14.9870    9.3540 C.3      12 GLL5        0.0000 
     57 CA         34.1038   13.0300    8.8535 C.3       4 GLC5        0.0000 
     58 CA         33.0570   13.9150   10.2900 C.3      12 GLL5        0.0000 
     59 CA         33.4083   15.4190   11.4030 C.3       4 GLC5        0.0000 
     60 CA         34.9908   13.5620    8.5542 C.3       4 GLC5        0.0000 
     61 CA         35.4930   14.2750   10.4010 C.3      12 GLL5        0.0000 
     62 CA         34.2952   15.9510   11.1037 C.3       4 GLC5        0.0000 
@<TRIPOS>BOND
@<TRIPOS>SUBSTRUCTURE
     1 ALC1        1 GROUP        1 X    ALC  0     ROOT ALC X 1
     2 ASC3       13 GROUP        1 X    ASC  0     **** ASC X 3
     3 LYC4        7 GROUP        1 X    LYC  0     **** LYC X 4
     4 GLC5        4 GROUP        1 X    GLC  0     **** GLC X 6
     5 ALP1        3 GROUP        1 Y    ALP  0     ROOT ALP Y 8
     6 ASP3       15 GROUP        1 Y    ASP  0     **** ASP Y 10
     7 LYP4        9 GROUP        1 Y    LYP  0     **** LYP Y 11
     8 GLP5        6 GROUP        1 Y    GLP  0     **** GLP Y 13
     9 ALL1        2 GROUP        1 Z    ALL  0     ROOT ALL Z 15
    10 ASL3       14 GROUP        1 Z    ASL  0     **** ASL Z 17
    11 LYL4        8 GROUP        1 Z    LYL  0     **** LYL Z 18
    12 GLL5        5 GROUP        1 Z    GLL  0     **** GLL Z 20
@<TRIPOS>SET

