#    Name: 2xvw_9NR_1_ligand
#    Modification time : Tue Mar 25 06:59:08 2014

@<TRIPOS>MOLECULE
2xvw_9NR_1_ligand
   53    54     1     0     0
SMALL
NO_CHARGES


@<TRIPOS>ATOM
      1 N          29.6720   15.1020   10.6650 N.pl3     1 9NR2001     0.0000 
      2 CA         28.8280   14.1990   11.4620 C.3       1 9NR2001     0.0000 
      3 C          27.3340   14.5070   11.2900 C.2       1 9NR2001     0.0000 
      4 O          26.5630   13.4470   11.1240 O.co2     1 9NR2001     0.0000 
      5 CB         29.2570   14.3000   12.9400 C.3       1 9NR2001     0.0000 
      6 CG         30.7730   14.2390   13.1070 C.3       1 9NR2001     0.0000 
      7 CD         31.1660   13.3180   14.2410 C.3       1 9NR2001     0.0000 
      8 NE         31.1320   14.0420   15.5080 N.pl3     1 9NR2001     0.0000 
      9 CZ         31.4130   13.5330   16.7060 C.cat     1 9NR2001     0.0000 
     10 NH1        31.7600   12.2530   16.8470 N.pl3     1 9NR2001     0.0000 
     11 NH2        31.3490   14.3210   17.7650 N.pl3     1 9NR2001     0.0000 
     12 OXT        26.9490   15.6500   11.2550 O.co2     1 9NR2001     0.0000 
     13 S1         30.0570   14.6820    9.1320 S.o2      1 9NR2001     0.0000 
     14 O2         30.1990   13.2490    9.0820 O.2       1 9NR2001     0.0000 
     15 O3         29.0520   15.3040    8.3190 O.2       1 9NR2001     0.0000 
     16 N1         36.6330   16.0820    9.0850 N.3       1 9NR2001     0.0000 
     17 C1         31.6150   15.4400    8.7510 C.ar      1 9NR2001     0.0000 
     18 C2         31.5540   16.4770    7.8610 C.ar      1 9NR2001     0.0000 
     19 C3         32.7310   17.1670    7.4650 C.ar      1 9NR2001     0.0000 
     20 C4         33.9700   16.8100    7.9780 C.ar      1 9NR2001     0.0000 
     21 C5         34.1140   15.7250    8.9280 C.ar      1 9NR2001     0.0000 
     22 C6         32.9000   14.9870    9.3540 C.ar      1 9NR2001     0.0000 
     23 C7         33.0570   13.9150   10.2900 C.ar      1 9NR2001     0.0000 
     24 C8         34.3160   13.5730   10.7940 C.ar      1 9NR2001     0.0000 
     25 C9         35.4930   14.2750   10.4010 C.ar      1 9NR2001     0.0000 
     26 C10        35.4280   15.3410    9.4860 C.ar      1 9NR2001     0.0000 
     27 C11        36.8740   17.2260    9.9960 C.3       1 9NR2001     0.0000 
     28 C12        37.9120   15.2830    9.0780 C.3       1 9NR2001     0.0000 
     29 H          30.0298   15.9471   10.9769 H         1 9NR2001     0.0000 
     30 H          29.0016   13.1688   11.1477 H         1 9NR2001     0.0000 
     31 H          28.7973   13.4786   13.4963 H         1 9NR2001     0.0000 
     32 H          28.8844   15.2424   13.3505 H         1 9NR2001     0.0000 
     33 H          31.1498   15.2453   13.3061 H         1 9NR2001     0.0000 
     34 H          31.2196   13.8828   12.1753 H         1 9NR2001     0.0000 
     35 H          32.1703   12.9294   14.0433 H         1 9NR2001     0.0000 
     36 H          30.4723   12.4711   14.2596 H         1 9NR2001     0.0000 
     37 H          30.8506   15.0701   15.4135 H         1 9NR2001     0.0000 
     38 H          31.9968   11.9608   17.7736 H         1 9NR2001     0.0000 
     39 H          31.7521   11.7006   16.0135 H         1 9NR2001     0.0000 
     40 H          31.5496   13.8918   18.6456 H         1 9NR2001     0.0000 
     41 H          31.1058   15.2750   17.5896 H         1 9NR2001     0.0000 
     42 H          30.6518   16.7797    7.4587 H         1 9NR2001     0.0000 
     43 H          32.6487   17.9388    6.7888 H         1 9NR2001     0.0000 
     44 H          34.8238   17.3121    7.6932 H         1 9NR2001     0.0000 
     45 H          32.2206   13.3961   10.5881 H         1 9NR2001     0.0000 
     46 H          34.4074   12.7956   11.4671 H         1 9NR2001     0.0000 
     47 H          36.3972   13.9918   10.7964 H         1 9NR2001     0.0000 
     48 H          37.0076   16.9267   10.9408 H         1 9NR2001     0.0000 
     49 H          37.6886   17.7437    9.7346 H         1 9NR2001     0.0000 
     50 H          36.1069   17.8676    9.9975 H         1 9NR2001     0.0000 
     51 H          38.6953   15.8384    8.7989 H         1 9NR2001     0.0000 
     52 H          38.1231   14.9120    9.9823 H         1 9NR2001     0.0000 
     53 H          37.8625   14.5083    8.4476 H         1 9NR2001     0.0000 
@<TRIPOS>BOND
     1    2    1 1    
     2   13    1 1    
     3   29    1 1    
     4    3    2 1    
     5    5    2 1    
     6   30    2 1    
     7    4    3 ar   
     8   12    3 ar   
     9    6    5 1    
    10   31    5 1    
    11   32    5 1    
    12    7    6 1    
    13   33    6 1    
    14   34    6 1    
    15    8    7 1    
    16   35    7 1    
    17   36    7 1    
    18    9    8 ar   
    19   37    8 1    
    20   10    9 ar   
    21   11    9 ar   
    22   38   10 1    
    23   39   10 1    
    24   40   11 1    
    25   41   11 1    
    26   14   13 2    
    27   15   13 2    
    28   17   13 1    
    29   26   16 1    
    30   27   16 1    
    31   28   16 1    
    32   18   17 ar   
    33   22   17 ar   
    34   19   18 ar   
    35   42   18 1    
    36   20   19 ar   
    37   43   19 1    
    38   21   20 ar   
    39   44   20 1    
    40   22   21 ar   
    41   26   21 ar   
    42   23   22 ar   
    43   24   23 ar   
    44   45   23 1    
    45   25   24 ar   
    46   46   24 1    
    47   26   25 ar   
    48   47   25 1    
    49   48   27 1    
    50   49   27 1    
    51   50   27 1    
    52   51   28 1    
    53   52   28 1    
    54   53   28 1    
@<TRIPOS>SUBSTRUCTURE
     1 9NR2001     1 GROUP   
@<TRIPOS>SET

