#    Name: 3e01_PZ2_1_INTS_M
#    Modification time : Tue Mar 25 00:49:05 2014

@<TRIPOS>MOLECULE
3e01_PZ2_1_INTS_M
   73     0     9     0     0
SMALL
NO_CHARGES


@<TRIPOS>ATOM
      1 CA         53.8140   69.7800   17.2680 C.3       3 GLC5        0.0000 
      2 CA         53.1050   68.3380   16.1360 C.3       9 GLL5        0.0000 
      3 CA         54.5230   71.2220   18.4000 C.3       6 GLP5        0.0000 
      4 CA         54.5160   68.3460   13.9490 C.3       3 GLC5        0.0000 
      5 CA         52.7770   67.8630   13.4580 C.3       9 GLL5        0.0000 
      6 CA         56.2550   68.8290   14.4400 C.3       6 GLP5        0.0000 
      7 O          52.1920   67.6175   11.0910 O.2       1 ALC1        0.0000 
      8 O          52.5940   67.3460   12.2130 O.2       7 ALL1        0.0000 
      9 O          51.7900   67.8890    9.9690 O.2       4 ALP1        0.0000 
     10 N          51.9345   65.6155   10.9305 N.am      2 SEC2        0.0000 
     11 N          52.4760   65.9580   12.3000 N.am      8 SEL2        0.0000 
     12 N          51.3930   65.2730    9.5610 N.am      5 SEP2        0.0000 
     13 CA         52.9185   64.4235   18.1655 C.3       3 GLC5        0.0000 
     14 CA         51.6630   64.1880   16.4460 C.3       9 GLL5        0.0000 
     15 CA         54.1740   64.6590   19.8850 C.3       6 GLP5        0.0000 
     16 CA         52.1220   63.7740   18.8995 C.3       3 GLC5        0.0000 
     17 CA         50.6410   64.2180   17.3780 C.3       9 GLL5        0.0000 
     18 CA         53.6030   63.3300   20.4210 C.3       6 GLP5        0.0000 
     19 CA         47.9660   66.6635   20.6865 C.3       3 GLC5        0.0000 
     20 CA         48.6490   64.7510   20.1040 C.3       9 GLL5        0.0000 
     21 CA         47.2830   68.5760   21.2690 C.3       6 GLP5        0.0000 
     22 CA         48.0185   58.4755   20.4705 C.3       3 GLC5        0.0000 
     23 CA         48.3480   60.5830   20.9720 C.3       9 GLL5        0.0000 
     24 CA         47.6890   56.3680   19.9690 C.3       6 GLP5        0.0000 
     25 CA         49.7625   60.6570   19.2670 C.3       3 GLC5        0.0000 
     26 CA         51.1770   60.7310   17.5620 C.3       6 GLP5        0.0000 
     27 CA         46.8610   61.6540   21.7110 C.3       3 GLC5        0.0000 
     28 CA         45.3740   62.7250   22.4500 C.3       6 GLP5        0.0000 
     29 CA         48.8335   59.6025   22.2890 C.3       3 GLC5        0.0000 
     30 CA         49.3190   58.6220   23.6060 C.3       6 GLP5        0.0000 
     31 CA         48.1565   66.9230   21.8560 C.3       3 GLC5        0.0000 
     32 CA         49.0300   65.2700   22.4430 C.3       9 GLL5        0.0000 
     33 CA         47.3185   65.1635   22.6745 C.3       3 GLC5        0.0000 
     34 CA         45.6070   65.0570   22.9060 C.3       6 GLP5        0.0000 
     35 CA         50.5970   66.4035   22.3290 C.3       3 GLC5        0.0000 
     36 CA         52.1640   67.5370   22.2150 C.3       6 GLP5        0.0000 
     37 CA         48.0760   65.9175   14.2950 C.3       3 GLC5        0.0000 
     38 CA         47.2370   64.2870   15.0060 C.3       9 GLL5        0.0000 
     39 CA         48.9150   67.5480   13.5840 C.3       6 GLP5        0.0000 
     40 CA         46.2135   62.6200   15.5215 C.3       3 GLC5        0.0000 
     41 CA         45.1900   60.9530   16.0370 C.3       6 GLP5        0.0000 
     42 CA         46.2945   65.6200   13.6955 C.3       3 GLC5        0.0000 
     43 CA         45.3520   66.9530   12.3850 C.3       6 GLP5        0.0000 
     44 CA         52.6195   63.7150   11.8845 C.3       3 GLC5        0.0000 
     45 CA         52.4970   64.1730   14.0750 C.3       9 GLL5        0.0000 
     46 CA         52.7420   63.2570    9.6940 C.3       6 GLP5        0.0000 
     47 CA         54.0125   63.6980   14.8665 C.3       3 GLC5        0.0000 
     48 CA         55.5280   63.2230   15.6580 C.3       6 GLP5        0.0000 
     49 CA         50.8465   67.4340   13.7453 C.3       3 GLC5        0.0000 
     50 CA         52.7790   66.7770   14.3550 C.3       9 GLL5        0.0000 
     51 CA         50.8323   67.8605   15.9880 C.3       3 GLC5        0.0000 
     52 CA         52.9540   67.0380   15.7280 C.3       9 GLL5        0.0000 
     53 CA         48.6350   68.0330   16.0440 C.3       6 GLP5        0.0000 
     54 CA         54.6204   68.2259   15.0144 C.3       3 GLC5        0.0000 
     55 CA         50.5780   62.4813   17.3630 C.3       3 GLC5        0.0000 
     56 CA         48.9062   66.1405   16.1565 C.3       3 GLC5        0.0000 
     57 CA         49.3170   64.2450   16.9500 C.3       9 GLL5        0.0000 
     58 CA         49.8182   65.8770   14.2285 C.3       3 GLC5        0.0000 
     59 CA         50.0640   64.2250   14.6580 C.3       9 GLL5        0.0000 
     60 CA         51.3490   62.4593   16.6645 C.3       3 GLC5        0.0000 
     61 CA         51.3790   64.1870   15.0880 C.3       9 GLL5        0.0000 
     62 CA         46.8672   64.5828   19.9620 C.3       3 GLC5        0.0000 
     63 CA         48.7900   64.3100   21.4160 C.3       9 GLL5        0.0000 
     64 CA         45.0150   64.6350   19.1640 C.3       6 GLP5        0.0000 
     65 CA         49.7886   61.8934   18.5640 C.3       3 GLC5        0.0000 
     66 CA         48.4160   63.8390   19.0950 C.3       9 GLL5        0.0000 
     67 CA         46.6900   63.9000   19.2020 C.3       3 GLC5        0.0000 
     68 CA         48.3140   62.4910   19.3850 C.3       9 GLL5        0.0000 
     69 CA         49.9845   63.9829   23.5115 C.3       3 GLC5        0.0000 
     70 CA         48.6940   62.9490   21.7140 C.3       9 GLL5        0.0000 
     71 CA         51.0830   63.5160   25.0190 C.3       6 GLP5        0.0000 
     72 CA         50.9855   63.9714   21.9230 C.3       3 GLC5        0.0000 
     73 CA         53.0850   63.4930   21.8420 C.3       6 GLP5        0.0000 
@<TRIPOS>BOND
@<TRIPOS>SUBSTRUCTURE
     1 ALC1        7 GROUP        1 X    ALC  0     ROOT ALC X 1
     2 SEC2       10 GROUP        1 X    SEC  0     **** SEC X 2
     3 GLC5        1 GROUP        1 X    GLC  0     **** GLC X 6
     4 ALP1        9 GROUP        1 Y    ALP  0     ROOT ALP Y 8
     5 SEP2       12 GROUP        1 Y    SEP  0     **** SEP Y 9
     6 GLP5        3 GROUP        1 Y    GLP  0     **** GLP Y 13
     7 ALL1        8 GROUP        1 Z    ALL  0     ROOT ALL Z 15
     8 SEL2       11 GROUP        1 Z    SEL  0     **** SEL Z 16
     9 GLL5        2 GROUP        1 Z    GLL  0     **** GLL Z 20
@<TRIPOS>SET

