#    Name: 3e01_PZ2_1_ligand
#    Modification time : Tue Mar 25 00:49:05 2014

@<TRIPOS>MOLECULE
3e01_PZ2_1_ligand
   41    44     1     0     0
SMALL
NO_CHARGES


@<TRIPOS>ATOM
      1 C1         52.7790   66.7770   14.3550 C.ar      1 PZ2562      0.0000 
      2 C2         52.9540   67.0380   15.7280 C.ar      1 PZ2562      0.0000 
      3 C3         53.1050   68.3380   16.1360 C.ar      1 PZ2562      0.0000 
      4 N4         53.0880   69.2980   15.2220 N.ar      1 PZ2562      0.0000 
      5 N5         52.9410   69.0820   13.9500 N.ar      1 PZ2562      0.0000 
      6 C6         52.7770   67.8630   13.4580 C.ar      1 PZ2562      0.0000 
      7 C7         52.5870   65.5820   13.5440 C.2       1 PZ2562      0.0000 
      8 N8         52.5940   67.3460   12.2130 N.pl3     1 PZ2562      0.0000 
      9 N9         52.4760   65.9580   12.3000 N.2       1 PZ2562      0.0000 
     10 C10        49.3170   64.2450   16.9500 C.ar      1 PZ2562      0.0000 
     11 C11        49.0380   64.2510   15.5880 C.ar      1 PZ2562      0.0000 
     12 C12        50.0640   64.2250   14.6580 C.ar      1 PZ2562      0.0000 
     13 C13        51.3790   64.1870   15.0880 C.ar      1 PZ2562      0.0000 
     14 C14        51.6630   64.1880   16.4460 C.ar      1 PZ2562      0.0000 
     15 C15        50.6410   64.2180   17.3780 C.ar      1 PZ2562      0.0000 
     16 C16        48.4550   62.0540   20.6890 C.ar      1 PZ2562      0.0000 
     17 C17        48.6940   62.9490   21.7140 C.ar      1 PZ2562      0.0000 
     18 C18        48.7900   64.3100   21.4160 C.ar      1 PZ2562      0.0000 
     19 C19        48.6490   64.7510   20.1040 C.ar      1 PZ2562      0.0000 
     20 C20        48.4160   63.8390   19.0950 C.ar      1 PZ2562      0.0000 
     21 C21        48.3140   62.4910   19.3850 C.ar      1 PZ2562      0.0000 
     22 C22        48.3480   60.5830   20.9720 C.3       1 PZ2562      0.0000 
     23 C23        49.0300   65.2700   22.4430 C.1       1 PZ2562      0.0000 
     24 N24        49.2200   66.0390   23.2530 N.1       1 PZ2562      0.0000 
     25 O25        48.2720   64.2730   17.8220 O.3       1 PZ2562      0.0000 
     26 BR26       47.2370   64.2870   15.0060 Br        1 PZ2562      0.0000 
     27 C27        52.4970   64.1730   14.0750 C.3       1 PZ2562      0.0000 
     28 H          52.9656   66.2639   16.3911 H         1 PZ2562      0.0000 
     29 H          53.2284   68.5438   17.1415 H         1 PZ2562      0.0000 
     30 H          52.5500   67.8415   11.3907 H         1 PZ2562      0.0000 
     31 H          49.8492   64.2339   13.6524 H         1 PZ2562      0.0000 
     32 H          52.6470   64.1661   16.7624 H         1 PZ2562      0.0000 
     33 H          50.8548   64.2204   18.3829 H         1 PZ2562      0.0000 
     34 H          48.8000   62.6268   22.6779 H         1 PZ2562      0.0000 
     35 H          48.7191   65.7551   19.8920 H         1 PZ2562      0.0000 
     36 H          48.1332   61.8133   18.6304 H         1 PZ2562      0.0000 
     37 H          53.4184   63.9039   14.5530 H         1 PZ2562      0.0000 
     38 H          52.2576   63.4974   13.2774 H         1 PZ2562      0.0000 
     39 H          49.1885   60.2201   21.3742 H         1 PZ2562      0.0000 
     40 H          47.6061   60.3808   21.6113 H         1 PZ2562      0.0000 
     41 H          48.1700   60.0568   20.1405 H         1 PZ2562      0.0000 
@<TRIPOS>BOND
     1    2    1 ar   
     2    6    1 ar   
     3    7    1 1    
     4    3    2 ar   
     5   28    2 1    
     6    4    3 ar   
     7   29    3 1    
     8    5    4 ar   
     9    6    5 ar   
    10    8    6 1    
    11    9    7 2    
    12   27    7 1    
    13    9    8 1    
    14   30    8 1    
    15   11   10 ar   
    16   15   10 ar   
    17   25   10 1    
    18   12   11 ar   
    19   26   11 1    
    20   13   12 ar   
    21   31   12 1    
    22   14   13 ar   
    23   27   13 1    
    24   15   14 ar   
    25   32   14 1    
    26   33   15 1    
    27   17   16 ar   
    28   21   16 ar   
    29   22   16 1    
    30   18   17 ar   
    31   34   17 1    
    32   19   18 ar   
    33   23   18 1    
    34   20   19 ar   
    35   35   19 1    
    36   21   20 ar   
    37   25   20 1    
    38   36   21 1    
    39   39   22 1    
    40   40   22 1    
    41   41   22 1    
    42   24   23 3    
    43   37   27 1    
    44   38   27 1    
@<TRIPOS>SUBSTRUCTURE
     1 PZ2562      1 GROUP   
@<TRIPOS>SET

