#    Name: 3sh0_SAX_1_INTS_M
#    Modification time : Tue Mar 25 12:36:39 2014

@<TRIPOS>MOLECULE
3sh0_SAX_1_INTS_M
   68     0     6     0     0
SMALL
NO_CHARGES


@<TRIPOS>ATOM
      1 CA         27.1580   16.8940   24.8805 C.3       2 GLC5        0.0000 
      2 CA         27.1350   17.7490   26.5250 C.3       6 GLL5        0.0000 
      3 CA         27.1810   16.0390   23.2360 C.3       4 GLP5        0.0000 
      4 N          26.4425   20.5165   24.1305 N.am      1 SEC2        0.0000 
      5 N          27.1020   19.8090   25.2600 N.am      5 SEL2        0.0000 
      6 N          25.7830   21.2240   23.0010 N.am      3 SEP2        0.0000 
      7 CA         24.5745   18.9260   28.5540 C.3       2 GLC5        0.0000 
      8 CA         24.3730   18.1450   27.0150 C.3       6 GLL5        0.0000 
      9 CA         24.7760   19.7070   30.0930 C.3       4 GLP5        0.0000 
     10 CA         23.8820   15.4910   26.9850 C.3       2 GLC5        0.0000 
     11 CA         25.0210   17.0350   27.5270 C.3       6 GLL5        0.0000 
     12 CA         22.7430   13.9470   26.4430 C.3       4 GLP5        0.0000 
     13 CA         26.3255   11.2455   31.5930 C.3       2 GLC5        0.0000 
     14 CA         26.3000   12.2600   29.6880 C.3       6 GLL5        0.0000 
     15 CA         26.3510   10.2310   33.4980 C.3       4 GLP5        0.0000 
     16 CA         24.2060   12.1920   27.1805 C.3       2 GLC5        0.0000 
     17 CA         25.2140   11.5380   28.9330 C.3       6 GLL5        0.0000 
     18 CA         23.1980   12.8460   25.4280 C.3       4 GLP5        0.0000 
     19 CA         26.2230    9.5545   31.1455 C.3       2 GLC5        0.0000 
     20 CA         25.3220   10.0560   29.2460 C.3       6 GLL5        0.0000 
     21 CA         27.1240    9.0530   33.0450 C.3       4 GLP5        0.0000 
     22 CA         23.1755   10.4450   27.5465 C.3       2 GLC5        0.0000 
     23 CA         23.9450    9.4650   29.3780 C.3       6 GLL5        0.0000 
     24 CA         22.4060   11.4250   25.7150 C.3       4 GLP5        0.0000 
     25 CA         24.9030    9.9940   32.1390 C.3       2 GLC5        0.0000 
     26 CA         23.4550    9.7570   30.7800 C.3       6 GLL5        0.0000 
     27 CA         22.7980    6.8975   31.1435 C.3       2 GLC5        0.0000 
     28 CA         22.3940    8.7170   31.0870 C.3       6 GLL5        0.0000 
     29 CA         23.2020    5.0780   31.2000 C.3       4 GLP5        0.0000 
     30 CA         20.6305    8.2395   29.9305 C.3       2 GLC5        0.0000 
     31 CA         18.8670    7.7620   28.7740 C.3       4 GLP5        0.0000 
     32 CA         24.4370    9.2675   33.0200 C.3       2 GLC5        0.0000 
     33 CA         22.5230    8.3040   32.5420 C.3       6 GLL5        0.0000 
     34 CA         18.5420    7.1690   33.7840 C.3       2 GLC5        0.0000 
     35 CA         20.5550    6.9310   33.4690 C.3       6 GLL5        0.0000 
     36 CA         16.5290    7.4070   34.0990 C.3       4 GLP5        0.0000 
     37 CA         25.7025   17.5320   24.7495 C.3       2 GLC5        0.0000 
     38 CA         26.4500   18.8700   26.0140 C.3       6 GLL5        0.0000 
     39 CA         25.6360   16.0890   23.3570 C.3       4 GLP5        0.0000 
     40 CA         23.9575   18.9735   25.4270 C.3       2 GLC5        0.0000 
     41 CA         22.1460   18.9720   24.7120 C.3       4 GLP5        0.0000 
     42 CA         26.4761   19.4714   27.5669 C.3       2 GLC5        0.0000 
     43 CA         25.0880   19.0800   26.2700 C.3       6 GLL5        0.0000 
     44 CA         27.0120   20.2480   28.8640 C.3       4 GLP5        0.0000 
     45 CA         23.4215   18.2810   25.9915 C.3       2 GLC5        0.0000 
     46 CA         22.9955   17.6390   28.3475 C.3       2 GLC5        0.0000 
     47 CA         21.2940   17.6880   29.4240 C.3       4 GLP5        0.0000 
     48 CA         25.9765   18.2690   28.6030 C.3       2 GLC5        0.0000 
     49 CA         26.2540   19.6110   29.7940 C.3       4 GLP5        0.0000 
     50 CA         25.5865   16.6467   25.3205 C.3       2 GLC5        0.0000 
     51 CA         26.3770   16.8190   27.2970 C.3       6 GLL5        0.0000 
     52 CA         24.3814   13.1880   29.9185 C.3       2 GLC5        0.0000 
     53 CA         22.9600   14.1400   30.6940 C.3       4 GLP5        0.0000 
     54 CA         24.1807    8.7272   27.7655 C.3       2 GLC5        0.0000 
     55 CA         23.7280    7.6940   26.2190 C.3       4 GLP5        0.0000 
     56 CA         27.0452   10.3302   28.3006 C.3       2 GLC5        0.0000 
     57 CA         28.5510    9.6830   27.3230 C.3       4 GLP5        0.0000 
     58 CA         22.4292   11.0405   31.7718 C.3       2 GLC5        0.0000 
     59 CA         21.9340   12.8440   32.6100 C.3       4 GLP5        0.0000 
     60 CA         21.6225   10.4430   29.7515 C.3       2 GLC5        0.0000 
     61 CA         20.1980   11.7220   28.9200 C.3       4 GLP5        0.0000 
     62 CA         20.0250    9.2523   34.1543 C.3       2 GLC5        0.0000 
     63 CA         19.1900   10.8890   34.9680 C.3       4 GLP5        0.0000 
     64 CA         19.5290    7.7082   31.7653 C.3       2 GLC5        0.0000 
     65 CA         21.1650    8.3000   33.2120 C.3       6 GLL5        0.0000 
     66 CA         18.1980    7.8010   30.1900 C.3       4 GLP5        0.0000 
     67 CA         22.0892    6.5672   33.4835 C.3       2 GLC5        0.0000 
     68 CA         22.9790    5.5180   33.7940 C.3       4 GLP5        0.0000 
@<TRIPOS>BOND
@<TRIPOS>SUBSTRUCTURE
     1 SEC2        4 GROUP        1 X    SEC  0     ROOT SEC X 2
     2 GLC5        1 GROUP        1 X    GLC  0     **** GLC X 6
     3 SEP2        6 GROUP        1 Y    SEP  0     ROOT SEP Y 9
     4 GLP5        3 GROUP        1 Y    GLP  0     **** GLP Y 13
     5 SEL2        5 GROUP        1 Z    SEL  0     ROOT SEL Z 16
     6 GLL5        2 GROUP        1 Z    GLL  0     **** GLL Z 20
@<TRIPOS>SET

