#    Name: 3sh0_SAX_1_ligand
#    Modification time : Tue Mar 25 12:36:39 2014

@<TRIPOS>MOLECULE
3sh0_SAX_1_ligand
   52    52     1     0     0
SMALL
NO_CHARGES


@<TRIPOS>ATOM
      1 C1         27.1350   17.7490   26.5250 C.ar      1 SAX2001     0.0000 
      2 O1         27.1020   19.8090   25.2600 O.3       1 SAX2001     0.0000 
      3 C2         26.4500   18.8700   26.0140 C.ar      1 SAX2001     0.0000 
      4 O2         26.7960   15.6480   27.8830 O.3       1 SAX2001     0.0000 
      5 C3         25.0880   19.0800   26.2700 C.ar      1 SAX2001     0.0000 
      6 O3         29.4400   16.8890   26.7100 O.co2     1 SAX2001     0.0000 
      7 C4         24.3730   18.1450   27.0150 C.ar      1 SAX2001     0.0000 
      8 O4         29.0930   18.4850   25.3510 O.co2     1 SAX2001     0.0000 
      9 C5         25.0210   17.0350   27.5270 C.ar      1 SAX2001     0.0000 
     10 C6         26.3770   16.8190   27.2970 C.ar      1 SAX2001     0.0000 
     11 C7         27.9860   15.4440   28.6580 C.3       1 SAX2001     0.0000 
     12 C8         27.9600   13.9610   28.9960 C.3       1 SAX2001     0.0000 
     13 C9         26.4830   13.6080   29.0180 C.3       1 SAX2001     0.0000 
     14 C10        26.3000   12.2600   29.6880 C.3       1 SAX2001     0.0000 
     15 C11        25.2140   11.5380   28.9330 C.3       1 SAX2001     0.0000 
     16 C12        25.3220   10.0560   29.2460 C.3       1 SAX2001     0.0000 
     17 C13        23.9450    9.4650   29.3780 C.3       1 SAX2001     0.0000 
     18 C14        23.4550    9.7570   30.7800 C.3       1 SAX2001     0.0000 
     19 C15        22.3940    8.7170   31.0870 C.3       1 SAX2001     0.0000 
     20 C16        22.5230    8.3040   32.5420 C.3       1 SAX2001     0.0000 
     21 C17        21.1650    8.3000   33.2120 C.3       1 SAX2001     0.0000 
     22 C18        20.5550    6.9310   33.4690 C.3       1 SAX2001     0.0000 
     23 C19        28.6350   17.6810   26.1830 C.2       1 SAX2001     0.0000 
     24 H          24.6240   19.9186   25.9091 H         1 SAX2001     0.0000 
     25 H          23.3687   18.2829   27.1812 H         1 SAX2001     0.0000 
     26 H          24.4889   16.3473   28.0944 H         1 SAX2001     0.0000 
     27 H          27.9709   16.0027   29.5748 H         1 SAX2001     0.0000 
     28 H          28.8755   15.6490   28.0927 H         1 SAX2001     0.0000 
     29 H          28.3847   13.8030   29.9585 H         1 SAX2001     0.0000 
     30 H          28.4533   13.4084   28.2324 H         1 SAX2001     0.0000 
     31 H          26.1076   13.5618   28.0015 H         1 SAX2001     0.0000 
     32 H          25.9390   14.3653   29.5719 H         1 SAX2001     0.0000 
     33 H          26.0016   12.4042   30.7120 H         1 SAX2001     0.0000 
     34 H          27.2189   11.7023   29.6324 H         1 SAX2001     0.0000 
     35 H          25.3415   11.6908   27.8701 H         1 SAX2001     0.0000 
     36 H          24.2449   11.9014   29.2460 H         1 SAX2001     0.0000 
     37 H          25.8695    9.9255   30.1765 H         1 SAX2001     0.0000 
     38 H          25.8608    9.5587   28.4429 H         1 SAX2001     0.0000 
     39 H          23.9870    8.3972   29.2254 H         1 SAX2001     0.0000 
     40 H          23.2792    9.9204   28.6608 H         1 SAX2001     0.0000 
     41 H          23.0214   10.7379   30.8173 H         1 SAX2001     0.0000 
     42 H          24.2661    9.6625   31.4763 H         1 SAX2001     0.0000 
     43 H          22.5388    7.8530   30.4515 H         1 SAX2001     0.0000 
     44 H          21.4123    9.1395   30.9165 H         1 SAX2001     0.0000 
     45 H          23.1806    9.0027   33.0582 H         1 SAX2001     0.0000 
     46 H          22.9578    7.3065   32.5965 H         1 SAX2001     0.0000 
     47 H          20.4562    8.8943   32.5925 H         1 SAX2001     0.0000 
     48 H          21.2400    8.8432   34.1809 H         1 SAX2001     0.0000 
     49 H          20.4230    6.4180   32.6208 H         1 SAX2001     0.0000 
     50 H          21.1339    6.3719   34.0626 H         1 SAX2001     0.0000 
     51 H          19.6611    6.9999   33.9120 H         1 SAX2001     0.0000 
     52 H          28.0586   19.7514   25.5456 H         1 SAX2001     0.0000 
@<TRIPOS>BOND
     1    3    1 ar   
     2   10    1 ar   
     3   23    1 1    
     4    3    2 1    
     5   52    2 1    
     6    5    3 ar   
     7   10    4 1    
     8   11    4 1    
     9    7    5 ar   
    10   24    5 1    
    11   23    6 ar   
    12    9    7 ar   
    13   25    7 1    
    14   23    8 ar   
    15   10    9 ar   
    16   26    9 1    
    17   12   11 1    
    18   27   11 1    
    19   28   11 1    
    20   13   12 1    
    21   29   12 1    
    22   30   12 1    
    23   14   13 1    
    24   31   13 1    
    25   32   13 1    
    26   15   14 1    
    27   33   14 1    
    28   34   14 1    
    29   16   15 1    
    30   35   15 1    
    31   36   15 1    
    32   17   16 1    
    33   37   16 1    
    34   38   16 1    
    35   18   17 1    
    36   39   17 1    
    37   40   17 1    
    38   19   18 1    
    39   41   18 1    
    40   42   18 1    
    41   20   19 1    
    42   43   19 1    
    43   44   19 1    
    44   21   20 1    
    45   45   20 1    
    46   46   20 1    
    47   22   21 1    
    48   47   21 1    
    49   48   21 1    
    50   49   22 1    
    51   50   22 1    
    52   51   22 1    
@<TRIPOS>SUBSTRUCTURE
     1 SAX2001     1 GROUP   
@<TRIPOS>SET

