#    Name: 2wtk_ANP_3_INTS_M
#    Modification time : Tue Mar 25 04:39:33 2014

@<TRIPOS>MOLECULE
2wtk_ANP_3_INTS_M
   77     0    12     0     0
SMALL
NO_CHARGES


@<TRIPOS>ATOM
      1 NZ        -52.7570   -4.8150   19.8995 N.4       3 LYC4        0.0000 
      2 NZ        -51.4110   -4.6640   20.6400 N.4      11 LYL4        0.0000 
      3 NZ        -54.1030   -4.9660   19.1590 N.4       7 LYP4        0.0000 
      4 N         -52.7570   -4.8150   19.8995 N.am      2 SEC2        0.0000 
      5 N         -51.4110   -4.6640   20.6400 N.am     10 SEL2        0.0000 
      6 N         -54.1030   -4.9660   19.1590 N.am      6 SEP2        0.0000 
      7 N         -51.4510   -3.4935   19.5315 N.am      2 SEC2        0.0000 
      8 N         -51.4910   -2.3230   18.4230 N.am      6 SEP2        0.0000 
      9 NZ        -47.8610   -8.6700   21.7305 N.4       3 LYC4        0.0000 
     10 NZ        -47.8840   -7.3620   22.1060 N.4      11 LYL4        0.0000 
     11 NZ        -46.5500  -10.3240   21.3570 N.4       7 LYP4        0.0000 
     12 N         -48.3205   -7.9665   23.3710 N.am      2 SEC2        0.0000 
     13 N         -47.8840   -7.3620   22.1060 N.am     10 SEL2        0.0000 
     14 N         -48.7570   -8.5710   24.6360 N.am      6 SEP2        0.0000 
     15 N         -47.8610   -8.6700   21.7305 N.am      2 SEC2        0.0000 
     16 N         -47.8380   -9.9780   21.3550 N.am      6 SEP2        0.0000 
     17 N         -46.7590   -8.4350   21.9935 N.am      2 SEC2        0.0000 
     18 N         -45.6340   -9.5080   21.8810 N.am      6 SEP2        0.0000 
     19 N         -49.1995   -6.1225   18.6670 N.am      2 SEC2        0.0000 
     20 N         -48.7980   -6.4200   19.9150 N.am     10 SEL2        0.0000 
     21 N         -49.6010   -5.8250   17.4190 N.am      6 SEP2        0.0000 
     22 NZ        -44.4940   -5.9395   19.6660 N.4       3 LYC4        0.0000 
     23 NZ        -45.3720   -4.8660   19.2250 N.4      11 LYL4        0.0000 
     24 NZ        -42.5340   -6.2320   20.1210 N.4       7 LYP4        0.0000 
     25 N         -44.0210   -4.8830   19.6215 N.am      2 SEC2        0.0000 
     26 N         -45.3720   -4.8660   19.2250 N.am     10 SEL2        0.0000 
     27 N         -42.6700   -4.9000   20.0180 N.am      6 SEP2        0.0000 
     28 N         -44.4940   -5.9395   19.6660 N.am      2 SEC2        0.0000 
     29 N         -43.6160   -7.0130   20.1070 N.am      6 SEP2        0.0000 
     30 CA        -45.6720   -4.1245   22.3530 C.3       4 GLC5        0.0000 
     31 CA        -46.6970   -2.3030   21.6980 C.3      12 GLL5        0.0000 
     32 CA        -44.6470   -5.9460   23.0080 C.3       8 GLP5        0.0000 
     33 O         -48.4950   -0.5700   18.3700 O.2       1 ALC1        0.0000 
     34 O         -48.1570   -0.1620   19.6890 O.2       9 ALL1        0.0000 
     35 O         -48.8330   -0.9780   17.0510 O.2       5 ALP1        0.0000 
     36 CA        -45.4805    0.8615   17.9865 C.3       4 GLC5        0.0000 
     37 CA        -46.0400    0.9570   20.0470 C.3      12 GLL5        0.0000 
     38 CA        -44.9210    0.7660   15.9260 C.3       8 GLP5        0.0000 
     39 O         -47.0160    3.1670   20.1835 O.2       1 ALC1        0.0000 
     40 O         -46.9010    1.9010   20.7020 O.2       9 ALL1        0.0000 
     41 O         -47.1310    4.4330   19.6650 O.2       5 ALP1        0.0000 
     42 CA        -45.2490    0.4890   23.0475 C.3       4 GLC5        0.0000 
     43 CA        -44.8280    0.6700   20.9140 C.3      12 GLL5        0.0000 
     44 CA        -45.6700    0.3080   25.1810 C.3       8 GLP5        0.0000 
     45 CA        -43.2160   -0.3630   22.0415 C.3       4 GLC5        0.0000 
     46 CA        -41.6040   -1.3960   23.1690 C.3       8 GLP5        0.0000 
     47 CA        -40.7000    2.1155   16.6270 C.3       4 GLC5        0.0000 
     48 CA        -40.6490    0.7660   18.1640 C.3      12 GLL5        0.0000 
     49 CA        -40.7510    3.4650   15.0900 C.3       8 GLP5        0.0000 
     50 O         -38.4690    0.1865   17.0850 O.2       1 ALC1        0.0000 
     51 O         -39.7260    0.0470   17.5040 O.2       9 ALL1        0.0000 
     52 O         -37.2120    0.3260   16.6660 O.2       5 ALP1        0.0000 
     53 N         -39.6540    2.7885   17.3525 N.am      2 SEC2        0.0000 
     54 N         -40.5680    2.1190   18.2140 N.am     10 SEL2        0.0000 
     55 N         -38.7400    3.4580   16.4910 N.am      6 SEP2        0.0000 
     56 CA        -41.1095    2.4020   20.6325 C.3       4 GLC5        0.0000 
     57 CA        -41.4870    2.8780   18.8610 C.3      12 GLL5        0.0000 
     58 CA        -40.7320    1.9260   22.4040 C.3       8 GLP5        0.0000 
     59 CA        -41.1190    3.1715   16.9755 C.3       4 GLC5        0.0000 
     60 CA        -42.9600    4.2335   18.3440 C.3       4 GLC5        0.0000 
     61 CA        -44.4330    5.5890   17.8270 C.3       8 GLP5        0.0000 
     62 CA        -42.1715   -0.1965   21.3655 C.3       4 GLC5        0.0000 
     63 CA        -42.7390    1.0030   19.5620 C.3      12 GLL5        0.0000 
     64 CA        -43.8300    0.8845   17.7440 C.3       4 GLC5        0.0000 
     65 CA        -46.1448   -0.6265   23.3773 C.3       4 GLC5        0.0000 
     66 CA        -46.5420   -0.8190   21.4490 C.3      12 GLL5        0.0000 
     67 CA        -44.9983   -2.2290   22.6758 C.3       4 GLC5        0.0000 
     68 CA        -43.3770   -2.8970   23.7780 C.3       8 GLP5        0.0000 
     69 CA        -47.1530    1.3025   18.4645 C.3       4 GLC5        0.0000 
     70 CA        -46.7760   -0.3530   20.0210 C.3      12 GLL5        0.0000 
     71 CA        -47.8980    2.3030   16.8950 C.3       8 GLP5        0.0000 
     72 CA        -40.0247   -0.3848   19.8932 C.3       4 GLC5        0.0000 
     73 CA        -41.7840    0.1050   18.8630 C.3      12 GLL5        0.0000 
     74 CA        -38.8330   -1.2050   21.2730 C.3       8 GLP5        0.0000 
     75 CA        -42.0067    0.0338   16.9232 C.3       4 GLC5        0.0000 
     76 CA        -42.7970   -0.3680   15.3330 C.3       8 GLP5        0.0000 
     77 CA        -41.3549    1.3226   20.7209 C.3       4 GLC5        0.0000 
@<TRIPOS>BOND
@<TRIPOS>SUBSTRUCTURE
     1 ALC1       33 GROUP        1 X    ALC  0     ROOT ALC X 1
     2 SEC2        4 GROUP        1 X    SEC  0     **** SEC X 2
     3 LYC4        1 GROUP        1 X    LYC  0     **** LYC X 4
     4 GLC5       30 GROUP        1 X    GLC  0     **** GLC X 6
     5 ALP1       35 GROUP        1 Y    ALP  0     ROOT ALP Y 8
     6 SEP2        6 GROUP        1 Y    SEP  0     **** SEP Y 9
     7 LYP4        3 GROUP        1 Y    LYP  0     **** LYP Y 11
     8 GLP5       32 GROUP        1 Y    GLP  0     **** GLP Y 13
     9 ALL1       34 GROUP        1 Z    ALL  0     ROOT ALL Z 15
    10 SEL2        5 GROUP        1 Z    SEL  0     **** SEL Z 16
    11 LYL4        2 GROUP        1 Z    LYL  0     **** LYL Z 18
    12 GLL5       31 GROUP        1 Z    GLL  0     **** GLL Z 20
@<TRIPOS>SET

