#    Name: 2wtk_ANP_3_ligand
#    Modification time : Tue Mar 25 04:39:33 2014

@<TRIPOS>MOLECULE
2wtk_ANP_3_ligand
   43    45     1     0     0
SMALL
NO_CHARGES


@<TRIPOS>ATOM
      1 PG        -51.0890   -5.5490   21.8400 P.3       1 ANP432      0.0000 
      2 O1G       -51.8090   -5.1760   23.1230 O.co2     1 ANP432      0.0000 
      3 O2G       -51.1090   -7.0400   21.5750 O.co2     1 ANP432      0.0000 
      4 O3G       -51.4110   -4.6640   20.6400 O.co2     1 ANP432      0.0000 
      5 PB        -48.2320   -6.1500   21.2820 P.3       1 ANP432      0.0000 
      6 O1B       -47.8840   -7.3620   22.1060 O.co2     1 ANP432      0.0000 
      7 O2B       -48.7980   -6.4200   19.9150 O.co2     1 ANP432      0.0000 
      8 N3B       -49.4070   -5.2070   22.1410 N.4       1 ANP432      0.0000 
      9 PA        -46.4750   -4.2580   20.0360 P.3       1 ANP432      0.0000 
     10 O1A       -45.3720   -4.8660   19.2250 O.co2     1 ANP432      0.0000 
     11 O2A       -47.7330   -3.7240   19.3960 O.co2     1 ANP432      0.0000 
     12 O3A       -46.8550   -5.3090   21.2080 O.3       1 ANP432      0.0000 
     13 O5'       -45.8210   -3.0410   20.8540 O.3       1 ANP432      0.0000 
     14 C5'       -46.6970   -2.3030   21.6980 C.3       1 ANP432      0.0000 
     15 C4'       -46.5420   -0.8190   21.4490 C.3       1 ANP432      0.0000 
     16 O4'       -45.2060   -0.4150   21.7430 O.3       1 ANP432      0.0000 
     17 C3'       -46.7760   -0.3530   20.0210 C.3       1 ANP432      0.0000 
     18 O3'       -48.1570   -0.1620   19.6890 O.3       1 ANP432      0.0000 
     19 C2'       -46.0400    0.9570   20.0470 C.3       1 ANP432      0.0000 
     20 O2'       -46.9010    1.9010   20.7020 O.3       1 ANP432      0.0000 
     21 C1'       -44.8280    0.6700   20.9140 C.3       1 ANP432      0.0000 
     22 N9        -43.6660    0.2090   20.1100 N.pl3     1 ANP432      0.0000 
     23 C8        -43.3440   -1.0740   19.8060 C.2       1 ANP432      0.0000 
     24 N7        -42.2130   -1.1580   19.0570 N.2       1 ANP432      0.0000 
     25 C5        -41.7840    0.1050   18.8630 C.ar      1 ANP432      0.0000 
     26 C6        -40.6490    0.7660   18.1640 C.ar      1 ANP432      0.0000 
     27 N6        -39.7260    0.0470   17.5040 N.pl3     1 ANP432      0.0000 
     28 N1        -40.5680    2.1190   18.2140 N.ar      1 ANP432      0.0000 
     29 C2        -41.4870    2.8780   18.8610 C.ar      1 ANP432      0.0000 
     30 N3        -42.5400    2.3490   19.5110 N.ar      1 ANP432      0.0000 
     31 C4        -42.7390    1.0030   19.5620 C.ar      1 ANP432      0.0000 
     32 H         -46.4890   -2.4923   22.7623 H         1 ANP432      0.0000 
     33 H         -47.7504   -2.5690   21.5202 H         1 ANP432      0.0000 
     34 H         -47.2273   -0.2707   22.0934 H         1 ANP432      0.0000 
     35 H         -46.2548   -1.0080   19.3700 H         1 ANP432      0.0000 
     36 H         -45.7525    1.2251   19.0948 H         1 ANP432      0.0000 
     37 H         -44.5844    1.5248   21.4789 H         1 ANP432      0.0000 
     38 H         -43.8706   -1.8575   20.0954 H         1 ANP432      0.0000 
     39 H         -38.7998    0.4239   17.4930 H         1 ANP432      0.0000 
     40 H         -40.0475   -0.8010   17.0825 H         1 ANP432      0.0000 
     41 H         -41.3670    3.9313   18.8518 H         1 ANP432      0.0000 
     42 H         -48.2518   -0.5205   18.7603 H         1 ANP432      0.0000 
     43 H         -46.7972    2.7494   20.1829 H         1 ANP432      0.0000 
@<TRIPOS>BOND
     1    2    1 ar   
     2    3    1 ar   
     3    4    1 ar   
     4    8    1 1    
     5    6    5 ar   
     6    7    5 ar   
     7    8    5 1    
     8   12    5 1    
     9   10    9 ar   
    10   11    9 ar   
    11   12    9 1    
    12   13    9 1    
    13   14   13 1    
    14   15   14 1    
    15   32   14 1    
    16   33   14 1    
    17   16   15 1    
    18   17   15 1    
    19   34   15 1    
    20   21   16 1    
    21   18   17 1    
    22   19   17 1    
    23   35   17 1    
    24   42   18 1    
    25   20   19 1    
    26   21   19 1    
    27   36   19 1    
    28   43   20 1    
    29   22   21 1    
    30   37   21 1    
    31   23   22 1    
    32   31   22 1    
    33   24   23 2    
    34   38   23 1    
    35   25   24 1    
    36   26   25 ar   
    37   31   25 ar   
    38   27   26 1    
    39   28   26 ar   
    40   39   27 1    
    41   40   27 1    
    42   29   28 ar   
    43   30   29 ar   
    44   41   29 1    
    45   31   30 ar   
@<TRIPOS>SUBSTRUCTURE
     1 ANP432      1 GROUP   
@<TRIPOS>SET

