#    Name: 4gv2_5ME_1_INTS_M
#    Modification time : Mon Mar 24 23:50:09 2014

@<TRIPOS>MOLECULE
4gv2_5ME_1_INTS_M
   47     0     9     0     0
SMALL
NO_CHARGES


@<TRIPOS>ATOM
      1 CA         -3.6290   -0.6035   15.9140 C.3       3 GLC5        0.0000 
      2 CA         -3.8370   -0.6870   13.8380 C.3       9 GLL5        0.0000 
      3 CA         -3.4210   -0.5200   17.9900 C.3       6 GLP5        0.0000 
      4 CA         -2.5025    0.9610   15.5670 C.3       3 GLC5        0.0000 
      5 CA         -3.2950    0.5880   13.6210 C.3       9 GLL5        0.0000 
      6 CA         -1.7100    1.3340   17.5130 C.3       6 GLP5        0.0000 
      7 CA         -1.0825    0.1120   10.1880 C.3       3 GLC5        0.0000 
      8 CA         -2.2460   -0.2600   11.6440 C.3       9 GLL5        0.0000 
      9 CA          0.0810    0.4840    8.7320 C.3       6 GLP5        0.0000 
     10 CA         -2.2020   -4.6065   15.7295 C.3       3 GLC5        0.0000 
     11 CA         -3.4610   -3.4750   14.4680 C.3       9 GLL5        0.0000 
     12 CA         -0.9430   -5.7380   16.9910 C.3       6 GLP5        0.0000 
     13 CA        -10.0680   -5.2570   14.4870 C.3       3 GLC5        0.0000 
     14 CA         -8.8430   -4.7960   13.2110 C.3       9 GLL5        0.0000 
     15 CA        -11.2930   -5.7180   15.7630 C.3       6 GLP5        0.0000 
     16 CA        -12.1910   -7.4680    8.3800 C.3       3 GLC5        0.0000 
     17 CA        -11.9640   -8.1700   10.3310 C.3       9 GLL5        0.0000 
     18 CA        -12.4180   -6.7660    6.4290 C.3       6 GLP5        0.0000 
     19 CA        -13.3625   -9.7375   11.0145 C.3       3 GLC5        0.0000 
     20 CA        -14.7610  -11.3050   11.6980 C.3       6 GLP5        0.0000 
     21 N         -13.1105   -4.2825   11.5040 N.am      2 SEC2        0.0000 
     22 N         -12.6530   -5.5790   11.1410 N.am      8 SEL2        0.0000 
     23 N         -13.5680   -2.9860   11.8670 N.am      5 SEP2        0.0000 
     24 N         -13.9740   -5.9235   10.8835 N.am      2 SEC2        0.0000 
     25 N         -15.2950   -6.2680   10.6260 N.am      5 SEP2        0.0000 
     26 O         -10.9975   -4.1295   12.8000 O.2       1 ALC1        0.0000 
     27 O         -10.6690   -5.2880   12.0930 O.2       7 ALL1        0.0000 
     28 O         -11.3260   -2.9710   13.5070 O.2       4 ALP1        0.0000 
     29 CA         -4.4420    1.3653   14.9587 C.3       3 GLC5        0.0000 
     30 CA         -5.3180    2.7800   16.1880 C.3       6 GLP5        0.0000 
     31 CA         -0.9480   -0.4115   13.2305 C.3       3 GLC5        0.0000 
     32 CA         -2.5020    0.8000   12.5100 C.3       9 GLL5        0.0000 
     33 CA          0.4780   -1.0930   14.3840 C.3       6 GLP5        0.0000 
     34 CA         -1.5525   -0.9916   13.8554 C.3       3 GLC5        0.0000 
     35 CA         -8.9927   -8.0332    9.7200 C.3       3 GLC5        0.0000 
     36 CA         -9.8650   -7.7650   11.4040 C.3       9 GLL5        0.0000 
     37 CA         -8.3340   -7.6510    8.1890 C.3       6 GLP5        0.0000 
     38 CA         -9.6177   -8.6660    9.1867 C.3       3 GLC5        0.0000 
     39 CA        -10.2760   -9.8940   10.3960 C.3       9 GLL5        0.0000 
     40 CA        -11.7732  -11.0270   11.4108 C.3       3 GLC5        0.0000 
     41 CA        -12.6450  -12.3730   12.6370 C.3       6 GLP5        0.0000 
     42 CA        -10.9488  -11.5375    9.3753 C.3       3 GLC5        0.0000 
     43 CA        -10.9960  -13.3940    8.5660 C.3       6 GLP5        0.0000 
     44 CA        -13.7203   -8.9720    9.4920 C.3       3 GLC5        0.0000 
     45 CA        -11.5270   -9.4680    9.9730 C.3       9 GLL5        0.0000 
     46 CA        -15.6950   -9.1250    8.8320 C.3       6 GLP5        0.0000 
     47 CA         -9.9405   -7.7043    9.4345 C.3       3 GLC5        0.0000 
@<TRIPOS>BOND
@<TRIPOS>SUBSTRUCTURE
     1 ALC1       26 GROUP        1 X    ALC  0     ROOT ALC X 1
     2 SEC2       21 GROUP        1 X    SEC  0     **** SEC X 2
     3 GLC5        1 GROUP        1 X    GLC  0     **** GLC X 6
     4 ALP1       28 GROUP        1 Y    ALP  0     ROOT ALP Y 8
     5 SEP2       23 GROUP        1 Y    SEP  0     **** SEP Y 9
     6 GLP5        3 GROUP        1 Y    GLP  0     **** GLP Y 13
     7 ALL1       27 GROUP        1 Z    ALL  0     ROOT ALL Z 15
     8 SEL2       22 GROUP        1 Z    SEL  0     **** SEL Z 16
     9 GLL5        2 GROUP        1 Z    GLL  0     **** GLL Z 20
@<TRIPOS>SET

