#    Name: 4gv2_5ME_1_ligand
#    Modification time : Mon Mar 24 23:50:09 2014

@<TRIPOS>MOLECULE
4gv2_5ME_1_ligand
   42    44     1     0     0
SMALL
NO_CHARGES


@<TRIPOS>ATOM
      1 CAJ        -3.8370   -0.6870   13.8380 C.ar      1 5ME601      0.0000 
      2 CAF        -3.2950    0.5880   13.6210 C.ar      1 5ME601      0.0000 
      3 CAE        -2.5020    0.8000   12.5100 C.ar      1 5ME601      0.0000 
      4 CAI        -2.2460   -0.2600   11.6440 C.ar      1 5ME601      0.0000 
      5 NAO        -2.8000   -1.5620   11.8580 N.ar      1 5ME601      0.0000 
      6 CAU        -3.6000   -1.7310   12.9240 C.ar      1 5ME601      0.0000 
      7 CAY        -4.0790   -3.0000   13.0990 C.3       1 5ME601      0.0000 
      8 CAA        -3.4610   -3.4750   14.4680 C.3       1 5ME601      0.0000 
      9 NAQ        -5.5100   -3.2250   13.2560 N.am      1 5ME601      0.0000 
     10 CAS        -6.3390   -4.0360   12.5420 C.2       1 5ME601      0.0000 
     11 OAC        -6.2070   -4.5570   11.4380 O.2       1 5ME601      0.0000 
     12 CAM        -7.4980   -4.3140   13.4580 C.3       1 5ME601      0.0000 
     13 CAN        -8.8430   -4.7960   13.2110 C.3       1 5ME601      0.0000 
     14 CAT        -9.4370   -5.7060   12.4010 C.2       1 5ME601      0.0000 
     15 NAP        -9.0340   -6.9640   12.1370 N.2       1 5ME601      0.0000 
     16 CAW        -9.8650   -7.7650   11.4040 C.ar      1 5ME601      0.0000 
     17 CAK        -9.4380   -9.0660   11.0980 C.ar      1 5ME601      0.0000 
     18 CAG       -10.2760   -9.8940   10.3960 C.ar      1 5ME601      0.0000 
     19 CAH       -11.5270   -9.4680    9.9730 C.ar      1 5ME601      0.0000 
     20 CAL       -11.9640   -8.1700   10.3310 C.ar      1 5ME601      0.0000 
     21 CAX       -11.1300   -7.3450   11.0290 C.ar      1 5ME601      0.0000 
     22 CAV       -11.5420   -6.0490   11.3700 C.2       1 5ME601      0.0000 
     23 OAD       -12.6530   -5.5790   11.1410 O.2       1 5ME601      0.0000 
     24 NAR       -10.6690   -5.2880   12.0930 N.am      1 5ME601      0.0000 
     25 H          -4.4126   -0.8631   14.6709 H         1 5ME601      0.0000 
     26 H          -3.4895    1.3430   14.2808 H         1 5ME601      0.0000 
     27 H          -2.1043    1.7249   12.3208 H         1 5ME601      0.0000 
     28 H          -1.6397   -0.1188   10.8172 H         1 5ME601      0.0000 
     29 H          -3.6663   -3.7173   12.3846 H         1 5ME601      0.0000 
     30 H          -5.9483   -2.6467   14.0696 H         1 5ME601      0.0000 
     31 H          -7.6018   -3.3256   14.1351 H         1 5ME601      0.0000 
     32 H          -7.0411   -4.9943   14.3381 H         1 5ME601      0.0000 
     33 H          -9.5061   -3.7516   13.1121 H         1 5ME601      0.0000 
     34 H          -9.2871   -4.9984   14.3521 H         1 5ME601      0.0000 
     35 H          -8.5123   -9.3787   11.4006 H         1 5ME601      0.0000 
     36 H          -9.9732  -10.8656   10.1718 H         1 5ME601      0.0000 
     37 H         -12.1290  -10.0681    9.4152 H         1 5ME601      0.0000 
     38 H         -12.9069   -7.8721   10.0566 H         1 5ME601      0.0000 
     39 H         -10.9911   -4.3330   12.4163 H         1 5ME601      0.0000 
     40 H          -2.4613   -3.4771   14.4434 H         1 5ME601      0.0000 
     41 H          -3.7343   -2.8812   15.2248 H         1 5ME601      0.0000 
     42 H          -3.7503   -4.4027   14.7041 H         1 5ME601      0.0000 
@<TRIPOS>BOND
     1    2    1 ar   
     2    6    1 ar   
     3   25    1 1    
     4    3    2 ar   
     5   26    2 1    
     6    4    3 ar   
     7   27    3 1    
     8    5    4 ar   
     9   28    4 1    
    10    6    5 ar   
    11    7    6 1    
    12    8    7 1    
    13    9    7 1    
    14   29    7 1    
    15   40    8 1    
    16   41    8 1    
    17   42    8 1    
    18   10    9 am   
    19   30    9 1    
    20   11   10 2    
    21   12   10 1    
    22   13   12 1    
    23   31   12 1    
    24   32   12 1    
    25   14   13 1    
    26   33   13 1    
    27   34   13 1    
    28   15   14 2    
    29   24   14 1    
    30   16   15 1    
    31   17   16 ar   
    32   21   16 ar   
    33   18   17 ar   
    34   35   17 1    
    35   19   18 ar   
    36   36   18 1    
    37   20   19 ar   
    38   37   19 1    
    39   21   20 ar   
    40   38   20 1    
    41   22   21 1    
    42   23   22 2    
    43   24   22 am   
    44   39   24 1    
@<TRIPOS>SUBSTRUCTURE
     1 5ME601      1 GROUP   
@<TRIPOS>SET

