#    Name: 2glx_NDP_1_INTS_M
#    Modification time : Tue Mar 25 14:38:36 2014

@<TRIPOS>MOLECULE
2glx_NDP_1_INTS_M
   98     0    12     0     0
SMALL
NO_CHARGES


@<TRIPOS>ATOM
      1 N          19.1945   37.7340   77.2775 N.am      2 SEC2        0.0000 
      2 N          18.8870   38.7060   76.2210 N.am     10 SEL2        0.0000 
      3 N          19.5020   36.7620   78.3340 N.am      6 SEP2        0.0000 
      4 N          20.4885   39.7730   72.6995 N.am      2 SEC2        0.0000 
      5 N          19.8980   39.7240   74.0400 N.am     10 SEL2        0.0000 
      6 N          21.0790   39.8220   71.3590 N.am      6 SEP2        0.0000 
      7 CA         17.9395   37.1420   71.6575 C.3       4 GLC5        0.0000 
      8 CA         16.3100   36.2060   72.8240 C.3      12 GLL5        0.0000 
      9 CA         19.5690   38.0780   70.4910 C.3       8 GLP5        0.0000 
     10 N          20.2225   37.2765   76.8295 N.am      2 SEC2        0.0000 
     11 N          20.9430   37.7910   75.3250 N.am     10 SEL2        0.0000 
     12 N          22.9485   38.4470   72.0220 N.am      2 SEC2        0.0000 
     13 N          22.2410   37.8290   73.1180 N.am     10 SEL2        0.0000 
     14 N          23.6560   39.0650   70.9260 N.am      6 SEP2        0.0000 
     15 NZ         24.1335   37.9305   76.5700 N.4       3 LYC4        0.0000 
     16 NZ         23.3550   38.5170   75.3400 N.4      11 LYL4        0.0000 
     17 NZ         24.3090   37.9260   78.8080 N.4       7 LYP4        0.0000 
     18 N          23.2600   38.5315   76.9715 N.am      2 SEC2        0.0000 
     19 N          23.3550   38.5170   75.3400 N.am     10 SEL2        0.0000 
     20 N          23.1650   38.5460   78.6030 N.am      6 SEP2        0.0000 
     21 N          24.1335   37.9305   76.5700 N.am      2 SEC2        0.0000 
     22 N          24.9120   37.3440   77.8000 N.am      6 SEP2        0.0000 
     23 CA         21.1990   35.9320   72.4565 C.3       4 GLC5        0.0000 
     24 CA         21.9670   35.0440   74.3090 C.3      12 GLL5        0.0000 
     25 CA         20.4310   36.8200   70.6040 C.3       8 GLP5        0.0000 
     26 CA         23.0760   35.6005   72.6170 C.3       4 GLC5        0.0000 
     27 CA         24.1850   36.1570   70.9250 C.3       8 GLP5        0.0000 
     28 CA         22.0925   34.2220   72.2695 C.3       4 GLC5        0.0000 
     29 CA         22.2180   33.4000   70.2300 C.3       8 GLP5        0.0000 
     30 CA         22.1525   32.9335   72.6245 C.3       4 GLC5        0.0000 
     31 CA         22.7800   33.7280   74.4860 C.3      12 GLL5        0.0000 
     32 CA         21.5250   32.1390   70.7630 C.3       8 GLP5        0.0000 
     33 CA         24.0165   32.7850   72.9650 C.3       4 GLC5        0.0000 
     34 CA         25.2530   31.8420   71.4440 C.3       8 GLP5        0.0000 
     35 CA         22.3535   34.3120   77.1860 C.3       4 GLC5        0.0000 
     36 CA         23.1090   33.2440   75.8800 C.3      12 GLL5        0.0000 
     37 CA         21.5980   35.3800   78.4920 C.3       8 GLP5        0.0000 
     38 N          22.9285   30.2940   75.4350 N.am      2 SEC2        0.0000 
     39 N          23.0960   31.7940   75.7900 N.am     10 SEL2        0.0000 
     40 N          22.7610   28.7940   75.0800 N.am      6 SEP2        0.0000 
     41 O          22.7640   31.0665   76.8105 O.2       1 ALC1        0.0000 
     42 O          23.0960   31.7940   75.7900 O.2       9 ALL1        0.0000 
     43 O          22.4320   30.3390   77.8310 O.2       5 ALP1        0.0000 
     44 CA         23.3940   34.1290   77.6910 C.3       4 GLC5        0.0000 
     45 CA         24.5340   33.7430   76.0700 C.3      12 GLL5        0.0000 
     46 CA         22.2540   34.5150   79.3120 C.3       8 GLP5        0.0000 
     47 N          26.7065   32.7640   77.3340 N.am      2 SEC2        0.0000 
     48 N          25.2900   32.8530   76.8850 N.am     10 SEL2        0.0000 
     49 N          28.1230   32.6750   77.7830 N.am      6 SEP2        0.0000 
     50 O          25.6525   31.5435   76.5615 O.2       1 ALC1        0.0000 
     51 O          25.2900   32.8530   76.8850 O.2       9 ALL1        0.0000 
     52 O          26.0150   30.2340   76.2380 O.2       5 ALP1        0.0000 
     53 CA         25.1870   32.7445   73.0715 C.3       4 GLC5        0.0000 
     54 CA         25.1210   33.6470   74.6990 C.3      12 GLL5        0.0000 
     55 CA         26.8990   35.3475   72.0970 C.3       4 GLC5        0.0000 
     56 CA         27.3270   34.2450   73.8970 C.3      12 GLL5        0.0000 
     57 CA         26.4710   36.4500   70.2970 C.3       8 GLP5        0.0000 
     58 CA         26.2900   33.0435   72.6705 C.3       4 GLC5        0.0000 
     59 N          30.9875   36.4430   71.9550 N.am      2 SEC2        0.0000 
     60 N          30.4080   35.5700   72.6240 N.am     10 SEL2        0.0000 
     61 N          31.5670   37.3160   71.2860 N.am      6 SEP2        0.0000 
     62 O          28.6605   32.6430   72.5745 O.2       1 ALC1        0.0000 
     63 O          29.8660   33.4150   72.7560 O.2       9 ALL1        0.0000 
     64 O          27.4550   31.8710   72.3930 O.2       5 ALP1        0.0000 
     65 NZ         12.3960   38.3455   70.7805 N.4       3 LYC4        0.0000 
     66 NZ         12.9040   36.9030   70.5180 N.4      11 LYL4        0.0000 
     67 NZ         10.9570   39.5640   71.9640 N.4       7 LYP4        0.0000 
     68 N          12.0050   36.9300   69.5375 N.am      2 SEC2        0.0000 
     69 N          12.9040   36.9030   70.5180 N.am     10 SEL2        0.0000 
     70 N          11.1060   36.9570   68.5570 N.am      6 SEP2        0.0000 
     71 N          12.3960   38.3455   70.7805 N.am      2 SEC2        0.0000 
     72 N          11.8880   39.7880   71.0430 N.am      6 SEP2        0.0000 
     73 N          11.8050   37.6205   71.4690 N.am      2 SEC2        0.0000 
     74 N          10.7060   38.3380   72.4200 N.am      6 SEP2        0.0000 
     75 N          15.2760   35.5550   69.5045 N.am      2 SEC2        0.0000 
     76 N          14.3460   34.9280   70.3620 N.am     10 SEL2        0.0000 
     77 N          16.2060   36.1820   68.6470 N.am      6 SEP2        0.0000 
     78 N          11.1735   34.2920   70.5460 N.am      2 SEC2        0.0000 
     79 N          12.2370   34.6210   71.6070 N.am     10 SEL2        0.0000 
     80 N          10.1100   33.9630   69.4850 N.am      6 SEP2        0.0000 
     81 N          10.9210   34.7015   71.8700 N.am      2 SEC2        0.0000 
     82 N           9.6050   34.7820   72.1330 N.am      6 SEP2        0.0000 
     83 CA         17.4400   35.0853   75.9600 C.3       4 GLC5        0.0000 
     84 CA         16.6950   36.2770   74.2690 C.3      12 GLL5        0.0000 
     85 CA         17.4230   33.8840   77.5340 C.3       8 GLP5        0.0000 
     86 CA         12.7413   40.8552   72.5044 C.3       4 GLC5        0.0000 
     87 CA         13.5390   41.0260   74.1330 C.3      12 GLL5        0.0000 
     88 CA         12.1940   41.1210   70.5240 C.3       8 GLP5        0.0000 
     89 CA         21.9857   34.8830   76.4447 C.3       4 GLC5        0.0000 
     90 CA         26.5652   32.8325   75.9387 C.3       4 GLC5        0.0000 
     91 CA         28.3030   31.9700   76.4930 C.3       8 GLP5        0.0000 
     92 CA         28.0697   33.3360   75.1412 C.3       4 GLC5        0.0000 
     93 CA         28.0190   36.5325   72.0395 C.3       4 GLC5        0.0000 
     94 CA         28.3460   35.1590   73.6820 C.3      12 GLL5        0.0000 
     95 CA         27.8050   37.2740   70.2890 C.3       8 GLP5        0.0000 
     96 CA         25.8785   36.7413   72.8043 C.3       4 GLC5        0.0000 
     97 CA         27.0130   36.8350   74.4270 C.3      12 GLL5        0.0000 
     98 CA         25.2700   37.0950   71.0430 C.3       8 GLP5        0.0000 
@<TRIPOS>BOND
@<TRIPOS>SUBSTRUCTURE
     1 ALC1       41 GROUP        1 X    ALC  0     ROOT ALC X 1
     2 SEC2        1 GROUP        1 X    SEC  0     **** SEC X 2
     3 LYC4       15 GROUP        1 X    LYC  0     **** LYC X 4
     4 GLC5        7 GROUP        1 X    GLC  0     **** GLC X 6
     5 ALP1       43 GROUP        1 Y    ALP  0     ROOT ALP Y 8
     6 SEP2        3 GROUP        1 Y    SEP  0     **** SEP Y 9
     7 LYP4       17 GROUP        1 Y    LYP  0     **** LYP Y 11
     8 GLP5        9 GROUP        1 Y    GLP  0     **** GLP Y 13
     9 ALL1       42 GROUP        1 Z    ALL  0     ROOT ALL Z 15
    10 SEL2        2 GROUP        1 Z    SEL  0     **** SEL Z 16
    11 LYL4       16 GROUP        1 Z    LYL  0     **** LYL Z 18
    12 GLL5        8 GROUP        1 Z    GLL  0     **** GLL Z 20
@<TRIPOS>SET

