#    Name: 2glx_NDP_1_ligand
#    Modification time : Tue Mar 25 14:38:36 2014

@<TRIPOS>MOLECULE
2glx_NDP_1_ligand
   74    78     1     0     0
SMALL
NO_CHARGES


@<TRIPOS>ATOM
      1 PA         19.5690   38.5560   74.9150 P.3       1 NDP1500     0.0000 
      2 O1A        18.8870   38.7060   76.2210 O.co2     1 NDP1500     0.0000 
      3 O2A        19.8980   39.7240   74.0400 O.co2     1 NDP1500     0.0000 
      4 O5B        18.8160   37.4740   73.9800 O.3       1 NDP1500     0.0000 
      5 C5B        18.2190   36.2960   74.5030 C.3       1 NDP1500     0.0000 
      6 C4B        16.6950   36.2770   74.2690 C.3       1 NDP1500     0.0000 
      7 O4B        16.0420   37.4560   74.7410 O.3       1 NDP1500     0.0000 
      8 C3B        16.3100   36.2060   72.8240 C.3       1 NDP1500     0.0000 
      9 O3B        16.2070   34.8180   72.4880 O.3       1 NDP1500     0.0000 
     10 C2B        14.9780   36.9690   72.7010 C.3       1 NDP1500     0.0000 
     11 O2B        13.8440   36.0950   72.5900 O.3       1 NDP1500     0.0000 
     12 C1B        14.8150   37.6510   74.0280 C.3       1 NDP1500     0.0000 
     13 N9A        14.4990   39.0920   73.8760 N.pl3     1 NDP1500     0.0000 
     14 C8A        15.1130   39.9880   73.0860 C.2       1 NDP1500     0.0000 
     15 N7A        14.5440   41.2040   73.2630 N.2       1 NDP1500     0.0000 
     16 C5A        13.5390   41.0260   74.1330 C.ar      1 NDP1500     0.0000 
     17 C6A        12.5550   41.9340   74.7480 C.ar      1 NDP1500     0.0000 
     18 N6A        12.5440   43.2510   74.3780 N.pl3     1 NDP1500     0.0000 
     19 N1A        11.6890   41.4170   75.6660 N.ar      1 NDP1500     0.0000 
     20 C2A        11.7100   40.1040   75.9800 C.ar      1 NDP1500     0.0000 
     21 N3A        12.6070   39.2510   75.4270 N.ar      1 NDP1500     0.0000 
     22 C4A        13.5300   39.6990   74.5290 C.ar      1 NDP1500     0.0000 
     23 O3         20.9430   37.7910   75.3250 O.3       1 NDP1500     0.0000 
     24 PN         22.3820   37.6860   74.5790 P.3       1 NDP1500     0.0000 
     25 O1N        22.2410   37.8290   73.1180 O.co2     1 NDP1500     0.0000 
     26 O2N        23.3550   38.5170   75.3400 O.co2     1 NDP1500     0.0000 
     27 O5D        22.7110   36.1490   74.8400 O.3       1 NDP1500     0.0000 
     28 C5D        21.9670   35.0440   74.3090 C.3       1 NDP1500     0.0000 
     29 C4D        22.7800   33.7280   74.4860 C.3       1 NDP1500     0.0000 
     30 O4D        24.0400   33.8370   73.8010 O.3       1 NDP1500     0.0000 
     31 C3D        23.1090   33.2440   75.8800 C.3       1 NDP1500     0.0000 
     32 O3D        23.0960   31.7940   75.7900 O.3       1 NDP1500     0.0000 
     33 C2D        24.5340   33.7430   76.0700 C.3       1 NDP1500     0.0000 
     34 O2D        25.2900   32.8530   76.8850 O.3       1 NDP1500     0.0000 
     35 C1D        25.1210   33.6470   74.6990 C.3       1 NDP1500     0.0000 
     36 N1N        26.1670   34.6460   74.4500 N.pl3     1 NDP1500     0.0000 
     37 C2N        27.3270   34.2450   73.8970 C.2       1 NDP1500     0.0000 
     38 C3N        28.3460   35.1590   73.6820 C.2       1 NDP1500     0.0000 
     39 C7N        29.6430   34.7090   73.0400 C.2       1 NDP1500     0.0000 
     40 O7N        30.4080   35.5700   72.6240 O.2       1 NDP1500     0.0000 
     41 N7N        29.8660   33.4150   72.7560 N.am      1 NDP1500     0.0000 
     42 C4N        28.1200   36.4230   73.8980 C.3       1 NDP1500     0.0000 
     43 C5N        27.0130   36.8350   74.4270 C.2       1 NDP1500     0.0000 
     44 C6N        25.9610   35.9400   74.7040 C.2       1 NDP1500     0.0000 
     45 P2B        13.2820   35.6090   71.1760 P.3       1 NDP1500     0.0000 
     46 O1X        12.9040   36.9030   70.5180 O.co2     1 NDP1500     0.0000 
     47 O2X        14.3460   34.9280   70.3620 O.co2     1 NDP1500     0.0000 
     48 O3X        12.2370   34.6210   71.6070 O.co2     1 NDP1500     0.0000 
     49 H          18.3814   36.1991   75.5906 H         1 NDP1500     0.0000 
     50 H          18.6301   35.3834   74.0373 H         1 NDP1500     0.0000 
     51 H          16.2767   35.4031   74.7662 H         1 NDP1500     0.0000 
     52 H          17.0504   36.7141   72.2531 H         1 NDP1500     0.0000 
     53 H          15.0408   37.6840   71.9497 H         1 NDP1500     0.0000 
     54 H          14.0025   37.1550   74.5561 H         1 NDP1500     0.0000 
     55 H          15.8494   39.7998   72.4810 H         1 NDP1500     0.0000 
     56 H          13.2391   43.5274   73.7144 H         1 NDP1500     0.0000 
     57 H          11.8418   43.8218   74.8036 H         1 NDP1500     0.0000 
     58 H          11.0112   39.7297   76.6735 H         1 NDP1500     0.0000 
     59 H          21.7676   35.1583   73.2407 H         1 NDP1500     0.0000 
     60 H          21.0133   34.9052   74.8241 H         1 NDP1500     0.0000 
     61 H          22.2040   32.9183   73.9808 H         1 NDP1500     0.0000 
     62 H          22.4745   33.6436   76.5595 H         1 NDP1500     0.0000 
     63 H          24.5334   34.7280   76.3859 H         1 NDP1500     0.0000 
     64 H          25.5259   32.6468   74.5765 H         1 NDP1500     0.0000 
     65 H          27.4755   33.2552   73.6255 H         1 NDP1500     0.0000 
     66 H          29.1465   32.7750   73.0257 H         1 NDP1500     0.0000 
     67 H          30.7316   33.2074   72.3003 H         1 NDP1500     0.0000 
     68 H          28.3161   37.0229   72.8932 H         1 NDP1500     0.0000 
     69 H          29.0324   36.8751   74.5072 H         1 NDP1500     0.0000 
     70 H          26.8471   37.8426   74.6722 H         1 NDP1500     0.0000 
     71 H          25.0881   36.3021   75.0841 H         1 NDP1500     0.0000 
     72 H          15.9359   34.8043   71.5256 H         1 NDP1500     0.0000 
     73 H          22.8469   31.4802   76.7062 H         1 NDP1500     0.0000 
     74 H          25.3593   32.0098   76.3519 H         1 NDP1500     0.0000 
@<TRIPOS>BOND
     1    2    1 ar   
     2    3    1 ar   
     3    4    1 1    
     4   23    1 1    
     5    5    4 1    
     6    6    5 1    
     7   49    5 1    
     8   50    5 1    
     9    7    6 1    
    10    8    6 1    
    11   51    6 1    
    12   12    7 1    
    13    9    8 1    
    14   10    8 1    
    15   52    8 1    
    16   72    9 1    
    17   11   10 1    
    18   12   10 1    
    19   53   10 1    
    20   45   11 1    
    21   13   12 1    
    22   54   12 1    
    23   14   13 1    
    24   22   13 1    
    25   15   14 2    
    26   55   14 1    
    27   16   15 1    
    28   17   16 ar   
    29   22   16 ar   
    30   18   17 1    
    31   19   17 ar   
    32   56   18 1    
    33   57   18 1    
    34   20   19 ar   
    35   21   20 ar   
    36   58   20 1    
    37   22   21 ar   
    38   24   23 1    
    39   25   24 ar   
    40   26   24 ar   
    41   27   24 1    
    42   28   27 1    
    43   29   28 1    
    44   59   28 1    
    45   60   28 1    
    46   30   29 1    
    47   31   29 1    
    48   61   29 1    
    49   35   30 1    
    50   32   31 1    
    51   33   31 1    
    52   62   31 1    
    53   73   32 1    
    54   34   33 1    
    55   35   33 1    
    56   63   33 1    
    57   74   34 1    
    58   36   35 1    
    59   64   35 1    
    60   37   36 1    
    61   44   36 1    
    62   38   37 2    
    63   65   37 1    
    64   39   38 1    
    65   42   38 1    
    66   40   39 2    
    67   41   39 am   
    68   66   41 1    
    69   67   41 1    
    70   43   42 1    
    71   68   42 1    
    72   69   42 1    
    73   44   43 2    
    74   70   43 1    
    75   71   44 1    
    76   46   45 ar   
    77   47   45 ar   
    78   48   45 ar   
@<TRIPOS>SUBSTRUCTURE
     1 NDP1500     1 GROUP   
@<TRIPOS>SET

