#    Name: 3nj8_NJ8_1_INTS_M
#    Modification time : Tue Mar 25 01:41:56 2014

@<TRIPOS>MOLECULE
3nj8_NJ8_1_INTS_M
   66     0     9     0     0
SMALL
NO_CHARGES


@<TRIPOS>ATOM
      1 CA         31.2020   52.9330   67.3415 C.3       3 GLC5        0.0000 
      2 CA         29.4020   53.2410   67.8870 C.3       9 GLL5        0.0000 
      3 CA         33.0020   52.6250   66.7960 C.3       6 GLP5        0.0000 
      4 CA         26.5340   50.4215   75.8295 C.3       3 GLC5        0.0000 
      5 CA         25.5570   50.9360   73.9030 C.3       9 GLL5        0.0000 
      6 CA         27.5110   49.9070   77.7560 C.3       6 GLP5        0.0000 
      7 CA         26.3350   47.8445   70.3810 C.3       3 GLC5        0.0000 
      8 CA         24.8400   48.7200   69.3940 C.3       9 GLL5        0.0000 
      9 CA         27.8300   46.9690   71.3680 C.3       6 GLP5        0.0000 
     10 CA         23.3505   49.7960   69.3930 C.3       3 GLC5        0.0000 
     11 CA         21.8610   50.8720   69.3920 C.3       6 GLP5        0.0000 
     12 CA         25.9660   47.9060   68.5040 C.3       3 GLC5        0.0000 
     13 CA         27.0920   47.0920   67.6140 C.3       6 GLP5        0.0000 
     14 N          29.0795   49.7425   68.5920 N.am      2 SEC2        0.0000 
     15 N          29.1900   51.0680   68.8490 N.am      8 SEL2        0.0000 
     16 N          28.9690   48.4170   68.3350 N.am      5 SEP2        0.0000 
     17 O          30.3295   51.3515   69.7390 O.2       1 ALC1        0.0000 
     18 O          29.1900   51.0680   68.8490 O.2       7 ALL1        0.0000 
     19 O          31.4690   51.6350   70.6290 O.2       4 ALP1        0.0000 
     20 N          26.0680   50.0780   75.8735 N.am      2 SEC2        0.0000 
     21 N          25.3960   50.8830   75.0540 N.am      8 SEL2        0.0000 
     22 N          26.7400   49.2730   76.6930 N.am      5 SEP2        0.0000 
     23 CA         31.4110   55.2650   67.2505 C.3       3 GLC5        0.0000 
     24 CA         29.6720   55.5250   66.8780 C.3       9 GLL5        0.0000 
     25 CA         33.1500   55.0050   67.6230 C.3       6 GLP5        0.0000 
     26 CA         30.2175   54.7220   68.7680 C.3       3 GLC5        0.0000 
     27 CA         30.7630   53.9190   70.6580 C.3       6 GLP5        0.0000 
     28 CA         29.3395   53.9095   65.7020 C.3       3 GLC5        0.0000 
     29 CA         29.0070   52.2940   64.5260 C.3       6 GLP5        0.0000 
     30 CA         30.9260   56.8340   66.4655 C.3       3 GLC5        0.0000 
     31 CA         28.8450   56.8030   66.8000 C.3       9 GLL5        0.0000 
     32 CA         33.0070   56.8650   66.1310 C.3       6 GLP5        0.0000 
     33 CA         28.5570   57.4200   64.7360 C.3       3 GLC5        0.0000 
     34 CA         28.2690   58.0370   62.6720 C.3       6 GLP5        0.0000 
     35 CA         27.0805   57.4145   65.9520 C.3       3 GLC5        0.0000 
     36 CA         25.3160   58.0260   65.1040 C.3       6 GLP5        0.0000 
     37 CA         31.2590   57.1100   67.5910 C.3       3 GLC5        0.0000 
     38 CA         29.3640   57.8460   67.7680 C.3       9 GLL5        0.0000 
     39 CA         33.1540   56.3740   67.4140 C.3       6 GLP5        0.0000 
     40 CA         30.1940   56.5470   69.3730 C.3       3 GLC5        0.0000 
     41 CA         31.0240   55.2480   70.9780 C.3       6 GLP5        0.0000 
     42 CA         29.0305   58.9315   69.1495 C.3       3 GLC5        0.0000 
     43 CA         28.6970   60.0170   70.5310 C.3       6 GLP5        0.0000 
     44 CA         29.1545   59.5060   66.4080 C.3       3 GLC5        0.0000 
     45 CA         28.9450   61.1660   65.0480 C.3       6 GLP5        0.0000 
     46 CA         25.0770   54.7292   67.2512 C.3       3 GLC5        0.0000 
     47 CA         27.4270   54.4310   67.1850 C.3       9 GLL5        0.0000 
     48 CA         23.1210   55.5610   67.1090 C.3       6 GLP5        0.0000 
     49 CA         26.5770   55.0113   69.2287 C.3       3 GLC5        0.0000 
     50 CA         26.6390   53.3640   67.6020 C.3       9 GLL5        0.0000 
     51 CA         26.1210   56.1250   71.0640 C.3       6 GLP5        0.0000 
     52 CA         27.8843   50.3025   67.8575 C.3       3 GLC5        0.0000 
     53 CA         27.2360   52.2340   68.1530 C.3       9 GLL5        0.0000 
     54 CA         27.8440   48.4010   67.4880 C.3       6 GLP5        0.0000 
     55 CA         26.8455   49.4763   68.8300 C.3       3 GLC5        0.0000 
     56 CA         25.4860   50.0230   70.4380 C.3       9 GLL5        0.0000 
     57 CA         26.5998   48.4797   71.2447 C.3       3 GLC5        0.0000 
     58 CA         23.7055   50.5634   70.1902 C.3       3 GLC5        0.0000 
     59 CA         25.2530   49.9580   71.8050 C.3       9 GLL5        0.0000 
     60 CA         27.9820   50.5915   72.6988 C.3       3 GLC5        0.0000 
     61 CA         25.7470   50.9570   72.6330 C.3       9 GLL5        0.0000 
     62 CA         29.8560   49.6970   73.0300 C.3       6 GLP5        0.0000 
     63 CA         26.3525   54.0850   71.2422 C.3       3 GLC5        0.0000 
     64 CA         26.4690   52.0150   72.1020 C.3       9 GLL5        0.0000 
     65 CA         25.6827   49.0659   74.2285 C.3       3 GLC5        0.0000 
     66 CA         25.8370   47.4350   75.3960 C.3       6 GLP5        0.0000 
@<TRIPOS>BOND
@<TRIPOS>SUBSTRUCTURE
     1 ALC1       17 GROUP        1 X    ALC  0     ROOT ALC X 1
     2 SEC2       14 GROUP        1 X    SEC  0     **** SEC X 2
     3 GLC5        1 GROUP        1 X    GLC  0     **** GLC X 6
     4 ALP1       19 GROUP        1 Y    ALP  0     ROOT ALP Y 8
     5 SEP2       16 GROUP        1 Y    SEP  0     **** SEP Y 9
     6 GLP5        3 GROUP        1 Y    GLP  0     **** GLP Y 13
     7 ALL1       18 GROUP        1 Z    ALL  0     ROOT ALL Z 15
     8 SEL2       15 GROUP        1 Z    SEL  0     **** SEL Z 16
     9 GLL5        2 GROUP        1 Z    GLL  0     **** GLL Z 20
@<TRIPOS>SET

