#    Name: 3nj8_NJ8_1_ligand
#    Modification time : Tue Mar 25 01:41:56 2014

@<TRIPOS>MOLECULE
3nj8_NJ8_1_ligand
   34    35     1     0     0
SMALL
NO_CHARGES


@<TRIPOS>ATOM
      1 C1         29.4020   53.2410   67.8870 C.ar      1 NJ8501      0.0000 
      2 C2         28.8100   54.3690   67.3280 C.ar      1 NJ8501      0.0000 
      3 C3         27.4270   54.4310   67.1850 C.ar      1 NJ8501      0.0000 
      4 C4         26.6390   53.3640   67.6020 C.ar      1 NJ8501      0.0000 
      5 C5         27.2360   52.2340   68.1530 C.ar      1 NJ8501      0.0000 
      6 C6         28.6130   52.1740   68.3010 C.ar      1 NJ8501      0.0000 
      7 O7         26.4610   51.1830   68.5680 O.3       1 NJ8501      0.0000 
      8 C8         26.2080   51.0800   69.9060 C.ar      1 NJ8501      0.0000 
      9 C9         25.4860   50.0230   70.4380 C.ar      1 NJ8501      0.0000 
     10 C10        25.2530   49.9580   71.8050 C.ar      1 NJ8501      0.0000 
     11 C11        25.7470   50.9570   72.6330 C.ar      1 NJ8501      0.0000 
     12 C12        26.4690   52.0150   72.1020 C.ar      1 NJ8501      0.0000 
     13 C13        26.6990   52.0750   70.7390 C.ar      1 NJ8501      0.0000 
     14 C15        25.5570   50.9360   73.9030 C.1       1 NJ8501      0.0000 
     15 CL16       24.8400   48.7200   69.3940 Cl        1 NJ8501      0.0000 
     16 O17        29.1900   51.0680   68.8490 O.3       1 NJ8501      0.0000 
     17 N20        25.3960   50.8830   75.0540 N.1       1 NJ8501      0.0000 
     18 C21        29.6720   55.5250   66.8780 C.3       1 NJ8501      0.0000 
     19 C22        28.8450   56.8030   66.8000 C.3       1 NJ8501      0.0000 
     20 C23        29.3640   57.8460   67.7680 C.3       1 NJ8501      0.0000 
     21 H          30.4240   53.1969   67.9938 H         1 NJ8501      0.0000 
     22 H          26.9897   55.2638   66.7721 H         1 NJ8501      0.0000 
     23 H          25.6172   53.4091   67.5037 H         1 NJ8501      0.0000 
     24 H          24.7189   49.1764   72.2012 H         1 NJ8501      0.0000 
     25 H          26.8320   52.7524   72.7207 H         1 NJ8501      0.0000 
     26 H          27.2357   52.8593   70.3402 H         1 NJ8501      0.0000 
     27 H          30.0898   55.3100   65.8957 H         1 NJ8501      0.0000 
     28 H          30.4878   55.6706   67.5844 H         1 NJ8501      0.0000 
     29 H          27.8053   56.5710   67.0374 H         1 NJ8501      0.0000 
     30 H          28.8894   57.1960   65.7827 H         1 NJ8501      0.0000 
     31 H          30.3138   58.0920   67.5748 H         1 NJ8501      0.0000 
     32 H          28.8286   58.6896   67.7272 H         1 NJ8501      0.0000 
     33 H          29.3313   57.5236   68.7140 H         1 NJ8501      0.0000 
     34 H          29.9521   51.4171   69.3943 H         1 NJ8501      0.0000 
@<TRIPOS>BOND
     1    2    1 ar   
     2    6    1 ar   
     3   21    1 1    
     4    3    2 ar   
     5   18    2 1    
     6    4    3 ar   
     7   22    3 1    
     8    5    4 ar   
     9   23    4 1    
    10    6    5 ar   
    11    7    5 1    
    12   16    6 1    
    13    8    7 1    
    14    9    8 ar   
    15   13    8 ar   
    16   10    9 ar   
    17   15    9 1    
    18   11   10 ar   
    19   24   10 1    
    20   12   11 ar   
    21   14   11 1    
    22   13   12 ar   
    23   25   12 1    
    24   26   13 1    
    25   17   14 3    
    26   34   16 1    
    27   19   18 1    
    28   27   18 1    
    29   28   18 1    
    30   20   19 1    
    31   29   19 1    
    32   30   19 1    
    33   31   20 1    
    34   32   20 1    
    35   33   20 1    
@<TRIPOS>SUBSTRUCTURE
     1 NJ8501      1 GROUP   
@<TRIPOS>SET

