#    Name: 3w2c_N15_3_INTS_M
#    Modification time : Tue Mar 25 02:02:15 2014

@<TRIPOS>MOLECULE
3w2c_N15_3_INTS_M
   72     0     9     0     0
SMALL
NO_CHARGES


@<TRIPOS>ATOM
      1 CA          4.3315  -21.3840   41.5160 C.3       3 GLC5        0.0000 
      2 CA          5.9300  -22.2810   42.5470 C.3       9 GLL5        0.0000 
      3 CA          2.7330  -20.4870   40.4850 C.3       6 GLP5        0.0000 
      4 CA          4.0180  -20.6425   45.1180 C.3       3 GLC5        0.0000 
      5 CA          5.6660  -21.8510   44.9710 C.3       9 GLL5        0.0000 
      6 CA          2.3700  -19.4340   45.2650 C.3       6 GLP5        0.0000 
      7 CA          5.8570  -21.2380   46.6005 C.3       3 GLC5        0.0000 
      8 CA          6.0480  -20.6250   48.2300 C.3       6 GLP5        0.0000 
      9 CA          7.6420  -22.6440   45.8505 C.3       3 GLC5        0.0000 
     10 CA          6.9990  -23.7800   44.2040 C.3       9 GLL5        0.0000 
     11 CA          8.2850  -21.5080   47.4970 C.3       6 GLP5        0.0000 
     12 CA          5.1940  -24.9115   46.5620 C.3       3 GLC5        0.0000 
     13 CA          6.7100  -25.0910   44.9530 C.3       9 GLL5        0.0000 
     14 CA          3.6780  -24.7320   48.1710 C.3       6 GLP5        0.0000 
     15 CA          6.5550  -26.2895   46.3700 C.3       3 GLC5        0.0000 
     16 CA          6.4000  -27.4880   47.7870 C.3       6 GLP5        0.0000 
     17 N          10.5230  -24.3210   45.1125 N.am      2 SEC2        0.0000 
     18 N           9.2870  -24.5400   45.1780 N.am      8 SEL2        0.0000 
     19 N          11.7590  -24.1020   45.0470 N.am      5 SEP2        0.0000 
     20 CA         12.0920  -27.6690   43.7965 C.3       3 GLC5        0.0000 
     21 CA         10.1890  -26.5600   44.2320 C.3       9 GLL5        0.0000 
     22 CA         13.9950  -28.7780   43.3610 C.3       6 GLP5        0.0000 
     23 CA         10.9465  -25.4850   45.3610 C.3       3 GLC5        0.0000 
     24 CA         11.7040  -24.4100   46.4900 C.3       6 GLP5        0.0000 
     25 CA         11.5025  -26.3240   46.1800 C.3       3 GLC5        0.0000 
     26 CA         11.3010  -28.2380   45.8700 C.3       9 GLL5        0.0000 
     27 CA         10.0440  -30.3300   44.7220 C.3       3 GLC5        0.0000 
     28 CA         10.6590  -29.2090   46.5260 C.3       9 GLL5        0.0000 
     29 CA          9.4290  -31.4510   42.9180 C.3       6 GLP5        0.0000 
     30 CA         14.3650  -29.9160   46.8050 C.3       3 GLC5        0.0000 
     31 CA         12.4280  -30.6840   47.2360 C.3       9 GLL5        0.0000 
     32 CA         16.3020  -29.1480   46.3740 C.3       6 GLP5        0.0000 
     33 CA         13.1465  -28.8985   47.9970 C.3       3 GLC5        0.0000 
     34 CA         13.8650  -27.1130   48.7580 C.3       6 GLP5        0.0000 
     35 O           8.5585  -32.4285   50.1735 O.2       1 ALC1        0.0000 
     36 O           9.9270  -32.6800   49.7160 O.2       7 ALL1        0.0000 
     37 O           7.1900  -32.1770   50.6310 O.2       4 ALP1        0.0000 
     38 N           9.7170  -34.6165   50.7435 N.am      2 SEC2        0.0000 
     39 N          10.6460  -33.4920   50.1870 N.am      8 SEL2        0.0000 
     40 N           8.7880  -35.7410   51.3000 N.am      5 SEP2        0.0000 
     41 CA         15.1920  -33.4180   51.2160 C.3       3 GLC5        0.0000 
     42 CA         14.8400  -35.2330   50.1420 C.3       9 GLL5        0.0000 
     43 CA         15.5440  -31.6030   52.2900 C.3       6 GLP5        0.0000 
     44 CA          3.9490  -23.1235   45.4480 C.3       3 GLC5        0.0000 
     45 CA          5.7640  -22.9510   43.9170 C.3       9 GLL5        0.0000 
     46 CA          2.1830  -23.8460   46.4520 C.3       6 GLP5        0.0000 
     47 CA         12.4225  -27.9183   47.4780 C.3       3 GLC5        0.0000 
     48 CA          9.7560  -27.7492   47.5855 C.3       3 GLC5        0.0000 
     49 CA          8.5320  -26.7750   48.9730 C.3       6 GLP5        0.0000 
     50 CA          9.0135  -30.6500   46.8453 C.3       3 GLC5        0.0000 
     51 CA          7.1470  -31.5920   46.7690 C.3       6 GLP5        0.0000 
     52 CA         11.7453  -29.5395   49.2480 C.3       3 GLC5        0.0000 
     53 CA         10.1760  -30.8890   48.1370 C.3       9 GLL5        0.0000 
     54 CA         12.8520  -28.5310   50.7690 C.3       6 GLP5        0.0000 
     55 CA         10.4512  -32.2300   46.9710 C.3       3 GLC5        0.0000 
     56 CA         11.1010  -30.2070   47.3170 C.3       9 GLL5        0.0000 
     57 CA         10.2640  -33.9120   46.2150 C.3       6 GLP5        0.0000 
     58 CA          8.7650  -31.4997   47.6335 C.3       3 GLC5        0.0000 
     59 CA         11.4377  -32.5665   46.9303 C.3       3 GLC5        0.0000 
     60 CA         12.5942  -30.2948   49.6075 C.3       3 GLC5        0.0000 
     61 CA         12.7950  -31.7580   48.0550 C.3       9 GLL5        0.0000 
     62 CA         10.7490  -33.0272   47.5315 C.3       3 GLC5        0.0000 
     63 CA         11.8780  -32.3590   48.8370 C.3       9 GLL5        0.0000 
     64 CA         14.5633  -34.8753   52.6470 C.3       3 GLC5        0.0000 
     65 CA         13.9880  -35.9110   50.9370 C.3       9 GLL5        0.0000 
     66 CA         14.9200  -33.3010   54.0140 C.3       6 GLP5        0.0000 
     67 CA         14.1898  -37.7368   49.9850 C.3       3 GLC5        0.0000 
     68 CA         14.1730  -39.0240   48.6900 C.3       6 GLP5        0.0000 
     69 CA         15.1962  -38.0505   49.9107 C.3       3 GLC5        0.0000 
     70 CA         15.7800  -37.4380   51.5580 C.3       9 GLL5        0.0000 
     71 CA         14.8345  -37.2215   49.3825 C.3       3 GLC5        0.0000 
     72 CA         16.1520  -35.6050   50.0080 C.3       9 GLL5        0.0000 
@<TRIPOS>BOND
@<TRIPOS>SUBSTRUCTURE
     1 ALC1       35 GROUP        1 X    ALC  0     ROOT ALC X 1
     2 SEC2       17 GROUP        1 X    SEC  0     **** SEC X 2
     3 GLC5        1 GROUP        1 X    GLC  0     **** GLC X 6
     4 ALP1       37 GROUP        1 Y    ALP  0     ROOT ALP Y 8
     5 SEP2       19 GROUP        1 Y    SEP  0     **** SEP Y 9
     6 GLP5        3 GROUP        1 Y    GLP  0     **** GLP Y 13
     7 ALL1       36 GROUP        1 Z    ALL  0     ROOT ALL Z 15
     8 SEL2       18 GROUP        1 Z    SEL  0     **** SEL Z 16
     9 GLL5        2 GROUP        1 Z    GLL  0     **** GLL Z 20
@<TRIPOS>SET

