#    Name: 3w2c_N15_3_ligand
#    Modification time : Tue Mar 25 02:02:15 2014

@<TRIPOS>MOLECULE
3w2c_N15_3_ligand
   57    61     1     0     0
SMALL
NO_CHARGES


@<TRIPOS>ATOM
      1 CAA         5.9300  -22.2810   42.5470 C.3       1 N15401      0.0000 
      2 CBE         5.7640  -22.9510   43.9170 C.3       1 N15401      0.0000 
      3 CAB         5.6660  -21.8510   44.9710 C.3       1 N15401      0.0000 
      4 CAN         6.9990  -23.7800   44.2040 C.3       1 N15401      0.0000 
      5 CAM         6.7100  -25.0910   44.9530 C.3       1 N15401      0.0000 
      6 NAS         7.7770  -26.0380   44.5490 N.am      1 N15401      0.0000 
      7 C           9.0360  -25.6320   44.6770 C.2       1 N15401      0.0000 
      8 O           9.2870  -24.5400   45.1780 O.2       1 N15401      0.0000 
      9 CA         10.1890  -26.5600   44.2320 C.3       1 N15401      0.0000 
     10 N          10.3200  -27.6660   45.1510 N.pl3     1 N15401      0.0000 
     11 CAL        11.3010  -28.2380   45.8700 C.2       1 N15401      0.0000 
     12 NAP         9.2560  -28.2010   45.2830 N.2       1 N15401      0.0000 
     13 CAJ         9.3910  -29.1960   46.1230 C.2       1 N15401      0.0000 
     14 CAX        10.6590  -29.2090   46.5260 C.2       1 N15401      0.0000 
     15 CAW        11.1010  -30.2070   47.3170 C.ar      1 N15401      0.0000 
     16 CAK        10.1760  -30.8890   48.1370 C.ar      1 N15401      0.0000 
     17 CAF        12.4280  -30.6840   47.2360 C.ar      1 N15401      0.0000 
     18 CAI        12.7950  -31.7580   48.0550 C.ar      1 N15401      0.0000 
     19 CBD        11.8780  -32.3590   48.8370 C.ar      1 N15401      0.0000 
     20 CBC        10.5900  -31.9260   48.8590 C.ar      1 N15401      0.0000 
     21 NAT         9.9270  -32.6800   49.7160 N.pl3     1 N15401      0.0000 
     22 NAQ        10.6460  -33.4920   50.1870 N.2       1 N15401      0.0000 
     23 CAZ        11.8890  -33.3840   49.7040 C.2       1 N15401      0.0000 
     24 CAY        12.8880  -34.2300   50.0490 C.2       1 N15401      0.0000 
     25 NAU        12.7840  -35.3070   50.8610 N.2       1 N15401      0.0000 
     26 CBB        13.9880  -35.9110   50.9370 C.ar      1 N15401      0.0000 
     27 CAH        14.4250  -36.9880   51.6230 C.ar      1 N15401      0.0000 
     28 CAE        15.7800  -37.4380   51.5580 C.ar      1 N15401      0.0000 
     29 CAD        16.6590  -36.7160   50.7050 C.ar      1 N15401      0.0000 
     30 CAG        16.1520  -35.6050   50.0080 C.ar      1 N15401      0.0000 
     31 CBA        14.8400  -35.2330   50.1420 C.ar      1 N15401      0.0000 
     32 NAR        14.1400  -34.2100   49.5770 N.pl3     1 N15401      0.0000 
     33 H           4.9039  -23.5438   43.9277 H         1 N15401      0.0000 
     34 H           7.7084  -23.1845   44.8023 H         1 N15401      0.0000 
     35 H           7.5047  -24.0236   43.2549 H         1 N15401      0.0000 
     36 H           5.7439  -25.4520   44.6556 H         1 N15401      0.0000 
     37 H           6.7461  -24.8999   46.0086 H         1 N15401      0.0000 
     38 H           7.4845  -26.9366   44.2000 H         1 N15401      0.0000 
     39 H          11.1013  -25.9574   44.1935 H         1 N15401      0.0000 
     40 H           9.9638  -26.9029   43.2178 H         1 N15401      0.0000 
     41 H          12.2064  -28.0094   45.9001 H         1 N15401      0.0000 
     42 H           8.7009  -29.8174   46.4078 H         1 N15401      0.0000 
     43 H           9.2005  -30.5582   48.1498 H         1 N15401      0.0000 
     44 H          13.0894  -30.2577   46.6026 H         1 N15401      0.0000 
     45 H          13.7815  -32.0742   48.0427 H         1 N15401      0.0000 
     46 H           8.9381  -32.5207   49.8911 H         1 N15401      0.0000 
     47 H          13.7753  -37.5352   52.2330 H         1 N15401      0.0000 
     48 H          16.0906  -38.2214   52.0871 H         1 N15401      0.0000 
     49 H          17.6225  -36.9999   50.6070 H         1 N15401      0.0000 
     50 H          16.7892  -35.0727   49.3910 H         1 N15401      0.0000 
     51 H          14.5023  -33.5784   48.9388 H         1 N15401      0.0000 
     52 H           6.7518  -21.7126   42.5087 H         1 N15401      0.0000 
     53 H           6.0045  -22.9539   41.8111 H         1 N15401      0.0000 
     54 H           5.1542  -21.6899   42.3262 H         1 N15401      0.0000 
     55 H           6.4847  -21.2769   44.9859 H         1 N15401      0.0000 
     56 H           4.8870  -21.2463   44.8054 H         1 N15401      0.0000 
     57 H           5.5548  -22.2270   45.8909 H         1 N15401      0.0000 
@<TRIPOS>BOND
     1    2    1 1    
     2   52    1 1    
     3   53    1 1    
     4   54    1 1    
     5    3    2 1    
     6    4    2 1    
     7   33    2 1    
     8   55    3 1    
     9   56    3 1    
    10   57    3 1    
    11    5    4 1    
    12   34    4 1    
    13   35    4 1    
    14    6    5 1    
    15   36    5 1    
    16   37    5 1    
    17    7    6 am   
    18   38    6 1    
    19    8    7 2    
    20    9    7 1    
    21   10    9 1    
    22   39    9 1    
    23   40    9 1    
    24   11   10 1    
    25   12   10 1    
    26   14   11 2    
    27   41   11 1    
    28   13   12 2    
    29   14   13 1    
    30   42   13 1    
    31   15   14 1    
    32   16   15 ar   
    33   17   15 ar   
    34   20   16 ar   
    35   43   16 1    
    36   18   17 ar   
    37   44   17 1    
    38   19   18 ar   
    39   45   18 1    
    40   20   19 ar   
    41   23   19 1    
    42   21   20 1    
    43   22   21 1    
    44   46   21 1    
    45   23   22 2    
    46   24   23 1    
    47   25   24 2    
    48   32   24 1    
    49   26   25 1    
    50   27   26 ar   
    51   31   26 ar   
    52   28   27 ar   
    53   47   27 1    
    54   29   28 ar   
    55   48   28 1    
    56   30   29 ar   
    57   49   29 1    
    58   31   30 ar   
    59   50   30 1    
    60   32   31 1    
    61   51   32 1    
@<TRIPOS>SUBSTRUCTURE
     1 N15401      1 GROUP   
@<TRIPOS>SET

