#    Name: 4jin_1L7_1_INTS_M
#    Modification time : Tue Mar 25 05:55:33 2014

@<TRIPOS>MOLECULE
4jin_1L7_1_INTS_M
   50     0     6     0     0
SMALL
NO_CHARGES


@<TRIPOS>ATOM
      1 N           8.1910   -0.0615    8.1785 N.am      1 SEC2        0.0000 
      2 N           9.1460   -0.9330    8.7890 N.am      5 SEL2        0.0000 
      3 N           7.2360    0.8100    7.5680 N.am      3 SEP2        0.0000 
      4 CA          9.6670   -1.3165    4.7385 C.3       2 GLC5        0.0000 
      5 CA          7.6950   -2.0000    4.8750 C.3       6 GLL5        0.0000 
      6 CA         11.6390   -0.6330    4.6020 C.3       4 GLP5        0.0000 
      7 CA         16.8500   -2.7310   12.2550 C.3       2 GLC5        0.0000 
      8 CA         15.9550   -2.4780   10.6780 C.3       6 GLL5        0.0000 
      9 CA         17.7450   -2.9840   13.8320 C.3       4 GLP5        0.0000 
     10 CA         11.9295   -2.5985   11.2410 C.3       2 GLC5        0.0000 
     11 CA         13.4460   -1.6520    9.8870 C.3       6 GLL5        0.0000 
     12 CA         10.4130   -3.5450   12.5950 C.3       4 GLP5        0.0000 
     13 CA         13.7695   -1.8355    6.5905 C.3       2 GLC5        0.0000 
     14 CA         13.4750   -3.2640    7.9510 C.3       6 GLL5        0.0000 
     15 CA         14.0640   -0.4070    5.2300 C.3       4 GLP5        0.0000 
     16 CA         11.9690   -4.1320    9.2335 C.3       2 GLC5        0.0000 
     17 CA         10.4630   -5.0000   10.5160 C.3       4 GLP5        0.0000 
     18 CA          8.5685   -0.2375    7.2050 C.3       2 GLC5        0.0000 
     19 CA          9.3840   -1.8280    8.1310 C.3       6 GLL5        0.0000 
     20 CA          7.7530    1.3530    6.2790 C.3       4 GLP5        0.0000 
     21 CA          7.6595   -2.0000    9.1060 C.3       2 GLC5        0.0000 
     22 CA          5.9350   -2.1720   10.0810 C.3       4 GLP5        0.0000 
     23 CA         10.5912   -1.5293    6.1465 C.3       2 GLC5        0.0000 
     24 CA         10.0032   -3.7127    9.1035 C.3       2 GLC5        0.0000 
     25 CA          9.7030   -3.0230    7.2510 C.3       6 GLL5        0.0000 
     26 CA          7.0765   -0.2375    3.3900 C.3       2 GLC5        0.0000 
     27 CA          7.0550    1.2260    2.1420 C.3       4 GLP5        0.0000 
     28 CA         15.6545   -0.4473    9.7175 C.3       2 GLC5        0.0000 
     29 CA         15.2630   -1.4830   11.3760 C.3       6 GLL5        0.0000 
     30 CA         15.7000    1.0860    8.4080 C.3       4 GLP5        0.0000 
     31 CA         17.1200   -0.9403   11.4055 C.3       2 GLC5        0.0000 
     32 CA         18.6310    0.1000   11.7840 C.3       4 GLP5        0.0000 
     33 CA         13.5448   -0.4845   12.6710 C.3       2 GLC5        0.0000 
     34 CA         12.4550    0.3090   14.1600 C.3       4 GLP5        0.0000 
     35 CA         15.0858   -1.6860   12.9375 C.3       2 GLC5        0.0000 
     36 CA         14.0060   -1.0730   10.9880 C.3       6 GLL5        0.0000 
     37 CA         15.5370   -2.0940   14.6930 C.3       4 GLP5        0.0000 
     38 CA         14.7130   -0.1382    9.4228 C.3       2 GLC5        0.0000 
     39 CA         12.9235    0.5323   10.7218 C.3       2 GLC5        0.0000 
     40 CA         12.1210    2.4270   11.0060 C.3       4 GLP5        0.0000 
     41 CA         15.2385   -0.8810    8.9002 C.3       2 GLC5        0.0000 
     42 CA         15.4050   -3.0630    9.5850 C.3       6 GLL5        0.0000 
     43 CA         14.9445   -3.7410    7.1419 C.3       2 GLC5        0.0000 
     44 CA         14.1490   -2.6330    9.2000 C.3       6 GLL5        0.0000 
     45 CA         15.7630   -4.4260    5.6120 C.3       4 GLP5        0.0000 
     46 CA         14.0190   -4.8510    9.5719 C.3       2 GLC5        0.0000 
     47 CA         13.9120   -6.6460   10.4720 C.3       4 GLP5        0.0000 
     48 CA          7.4113   -0.2916    5.5896 C.3       2 GLC5        0.0000 
     49 CA          5.8327   -2.5448    8.1232 C.3       2 GLC5        0.0000 
     50 CA          5.1730   -2.5870    5.8890 C.3       6 GLL5        0.0000 
@<TRIPOS>BOND
@<TRIPOS>SUBSTRUCTURE
     1 SEC2        1 GROUP        1 X    SEC  0     ROOT SEC X 2
     2 GLC5        4 GROUP        1 X    GLC  0     **** GLC X 6
     3 SEP2        3 GROUP        1 Y    SEP  0     ROOT SEP Y 9
     4 GLP5        6 GROUP        1 Y    GLP  0     **** GLP Y 13
     5 SEL2        2 GROUP        1 Z    SEL  0     ROOT SEL Z 16
     6 GLL5        5 GROUP        1 Z    GLL  0     **** GLL Z 20
@<TRIPOS>SET

