#    Name: 4jin_1L7_1_ligand
#    Modification time : Tue Mar 25 05:55:33 2014

@<TRIPOS>MOLECULE
4jin_1L7_1_ligand
   33    34     1     0     0
SMALL
NO_CHARGES


@<TRIPOS>ATOM
      1 C10         9.7030   -3.0230    7.2510 C.2       1 1L7301      0.0000 
      2 N12         9.1460   -0.9330    8.7890 N.1       1 1L7301      0.0000 
      3 C13         8.8140   -3.6310    6.4790 C.2       1 1L7301      0.0000 
      4 C15         7.6950   -2.0000    4.8750 C.ar      1 1L7301      0.0000 
      5 C01        15.9550   -2.4780   10.6780 C.ar      1 1L7301      0.0000 
      6 C02        15.2630   -1.4830   11.3760 C.ar      1 1L7301      0.0000 
      7 C03        14.0060   -1.0730   10.9880 C.ar      1 1L7301      0.0000 
      8 C04        13.4460   -1.6520    9.8870 C.ar      1 1L7301      0.0000 
      9 C05        14.1490   -2.6330    9.2000 C.ar      1 1L7301      0.0000 
     10 C06        15.4050   -3.0630    9.5850 C.ar      1 1L7301      0.0000 
     11 C07        13.4750   -3.2640    7.9510 C.3       1 1L7301      0.0000 
     12 N08        12.1150   -2.7450    7.9460 N.am      1 1L7301      0.0000 
     13 C09        11.1110   -3.5330    7.2590 C.2       1 1L7301      0.0000 
     14 C11         9.3840   -1.8280    8.1310 C.1       1 1L7301      0.0000 
     15 C14         7.5810   -2.9410    5.9240 C.ar      1 1L7301      0.0000 
     16 C16         6.5010   -1.4020    4.4010 C.ar      1 1L7301      0.0000 
     17 N17         5.3060   -1.6970    4.9050 N.ar      1 1L7301      0.0000 
     18 C18         5.1730   -2.5870    5.8890 C.ar      1 1L7301      0.0000 
     19 C19         6.2880   -3.2480    6.4420 C.ar      1 1L7301      0.0000 
     20 O20        11.4250   -4.5810    6.7120 O.2       1 1L7301      0.0000 
     21 H           8.8946   -4.6333    6.1933 H         1 1L7301      0.0000 
     22 H           8.5854   -1.7639    4.4807 H         1 1L7301      0.0000 
     23 H          16.8951   -2.7576   11.0138 H         1 1L7301      0.0000 
     24 H          15.7149   -1.0483   12.2052 H         1 1L7301      0.0000 
     25 H          13.5096   -0.3509   11.5174 H         1 1L7301      0.0000 
     26 H          12.5115   -1.3720    9.5595 H         1 1L7301      0.0000 
     27 H          15.8870   -3.7896    9.0614 H         1 1L7301      0.0000 
     28 H          13.4965   -4.3296    8.0669 H         1 1L7301      0.0000 
     29 H          14.0257   -2.9524    7.0855 H         1 1L7301      0.0000 
     30 H          11.8896   -1.8943    8.3913 H         1 1L7301      0.0000 
     31 H           6.6023   -0.7037    3.6210 H         1 1L7301      0.0000 
     32 H           4.2327   -2.8228    6.2823 H         1 1L7301      0.0000 
     33 H           6.1829   -3.9209    7.1838 H         1 1L7301      0.0000 
@<TRIPOS>BOND
     1    3    1 2    
     2   13    1 1    
     3   14    1 1    
     4   14    2 3    
     5   15    3 1    
     6   21    3 1    
     7   15    4 ar   
     8   16    4 ar   
     9   22    4 1    
    10    6    5 ar   
    11   10    5 ar   
    12   23    5 1    
    13    7    6 ar   
    14   24    6 1    
    15    8    7 ar   
    16   25    7 1    
    17    9    8 ar   
    18   26    8 1    
    19   10    9 ar   
    20   11    9 1    
    21   27   10 1    
    22   12   11 1    
    23   28   11 1    
    24   29   11 1    
    25   13   12 am   
    26   30   12 1    
    27   20   13 2    
    28   19   15 ar   
    29   17   16 ar   
    30   31   16 1    
    31   18   17 ar   
    32   19   18 ar   
    33   32   18 1    
    34   33   19 1    
@<TRIPOS>SUBSTRUCTURE
     1 1L7301      1 GROUP   
@<TRIPOS>SET

