#    Name: 1j99_AND_1_INTS_M
#    Modification time : Tue Mar 25 08:40:02 2014

@<TRIPOS>MOLECULE
1j99_AND_1_INTS_M
   50     0     9     0     0
SMALL
NO_CHARGES


@<TRIPOS>ATOM
      1 CA          7.6270  -46.4670   27.1640 C.3       3 GLC5        0.0000 
      2 CA          8.3940  -44.8350   27.2910 C.3       9 GLL5        0.0000 
      3 CA          6.8600  -48.0990   27.0370 C.3       6 GLP5        0.0000 
      4 CA          6.9995  -45.8580   27.8135 C.3       3 GLC5        0.0000 
      5 CA          8.2580  -44.4480   28.7790 C.3       9 GLL5        0.0000 
      6 CA          5.7410  -47.2680   26.8480 C.3       6 GLP5        0.0000 
      7 CA          9.7135  -42.6210   30.5790 C.3       3 GLC5        0.0000 
      8 CA          9.5700  -44.5430   29.5630 C.3       9 GLL5        0.0000 
      9 CA          9.8570  -40.6990   31.5950 C.3       6 GLP5        0.0000 
     10 CA          7.4835  -43.7890   29.8675 C.3       3 GLC5        0.0000 
     11 CA          5.3970  -43.0350   30.1720 C.3       6 GLP5        0.0000 
     12 N          10.6105  -44.1620   31.9270 N.am      2 SEC2        0.0000 
     13 N           9.3670  -44.1770   30.9640 N.am      8 SEL2        0.0000 
     14 N          11.8540  -44.1470   32.8900 N.am      5 SEP2        0.0000 
     15 O           7.8370  -43.3960   31.0530 O.2       1 ALC1        0.0000 
     16 O           9.3670  -44.1770   30.9640 O.2       7 ALL1        0.0000 
     17 O           6.3070  -42.6150   31.1420 O.2       4 ALP1        0.0000 
     18 CA         10.9525  -42.0940   30.1830 C.3       3 GLC5        0.0000 
     19 CA         10.6650  -43.6530   28.9250 C.3       9 GLL5        0.0000 
     20 CA         11.2400  -40.5350   31.4410 C.3       6 GLP5        0.0000 
     21 CA         10.9030  -46.2605   27.6710 C.3       3 GLC5        0.0000 
     22 CA         10.8600  -44.0280   27.4510 C.3       9 GLL5        0.0000 
     23 CA         10.9460  -48.4930   27.8910 C.3       6 GLP5        0.0000 
     24 CA         10.3115  -47.0525   25.9385 C.3       3 GLC5        0.0000 
     25 CA          9.9790  -45.1430   25.2730 C.3       9 GLL5        0.0000 
     26 CA         10.6440  -48.9620   26.6040 C.3       6 GLP5        0.0000 
     27 CA          7.8140  -46.6820   25.6715 C.3       3 GLC5        0.0000 
     28 CA          8.7680  -45.2650   24.3060 C.3       9 GLL5        0.0000 
     29 CA          9.9715  -44.2175   19.6460 C.3       3 GLC5        0.0000 
     30 CA         10.0490  -44.5530   21.4480 C.3       9 GLL5        0.0000 
     31 CA          9.8940  -43.8820   17.8440 C.3       6 GLP5        0.0000 
     32 CA          6.9170  -43.5673   28.4705 C.3       3 GLC5        0.0000 
     33 CA          5.5080  -42.4930   28.9060 C.3       6 GLP5        0.0000 
     34 CA         13.9250  -45.8143   25.8972 C.3       3 GLC5        0.0000 
     35 CA         12.2680  -44.2700   26.8880 C.3       9 GLL5        0.0000 
     36 CA         15.4470  -47.1640   25.6340 C.3       6 GLP5        0.0000 
     37 CA         14.3890  -43.9218   25.7338 C.3       3 GLC5        0.0000 
     38 CA         12.5380  -44.6590   25.4330 C.3       9 GLL5        0.0000 
     39 CA         16.3750  -43.3790   25.3070 C.3       6 GLP5        0.0000 
     40 CA          7.1858  -45.1415   23.3002 C.3       3 GLC5        0.0000 
     41 CA          9.0530  -46.2010   23.1090 C.3       9 GLL5        0.0000 
     42 CA          5.4610  -44.5500   22.8930 C.3       6 GLP5        0.0000 
     43 CA          8.2189  -47.1103   22.7256 C.3       3 GLC5        0.0000 
     44 CA          6.8180  -48.4370   22.4220 C.3       6 GLP5        0.0000 
     45 CA         13.4772  -45.6055   20.1985 C.3       3 GLC5        0.0000 
     46 CA         12.6810  -45.6240   22.4280 C.3       9 GLL5        0.0000 
     47 CA         14.4300  -45.0040   18.4580 C.3       6 GLP5        0.0000 
     48 CA         13.8893  -46.6743   23.1466 C.3       3 GLC5        0.0000 
     49 CA         12.3680  -46.7900   21.4500 C.3       9 GLL5        0.0000 
     50 CA         15.5490  -47.1150   24.1220 C.3       6 GLP5        0.0000 
@<TRIPOS>BOND
@<TRIPOS>SUBSTRUCTURE
     1 ALC1       15 GROUP        1 X    ALC  0     ROOT ALC X 1
     2 SEC2       12 GROUP        1 X    SEC  0     **** SEC X 2
     3 GLC5        1 GROUP        1 X    GLC  0     **** GLC X 6
     4 ALP1       17 GROUP        1 Y    ALP  0     ROOT ALP Y 8
     5 SEP2       14 GROUP        1 Y    SEP  0     **** SEP Y 9
     6 GLP5        3 GROUP        1 Y    GLP  0     **** GLP Y 13
     7 ALL1       16 GROUP        1 Z    ALL  0     ROOT ALL Z 15
     8 SEL2       13 GROUP        1 Z    SEL  0     **** SEL Z 16
     9 GLL5        2 GROUP        1 Z    GLL  0     **** GLL Z 20
@<TRIPOS>SET

