#    Name: 1j99_AND_1_ligand
#    Modification time : Tue Mar 25 08:40:02 2014

@<TRIPOS>MOLECULE
1j99_AND_1_ligand
   49    52     1     0     0
SMALL
NO_CHARGES


@<TRIPOS>ATOM
      1 C1          8.3940  -44.8350   27.2910 C.3       1 AND401      0.0000 
      2 C2          8.2580  -44.4480   28.7790 C.3       1 AND401      0.0000 
      3 C3          9.5700  -44.5430   29.5630 C.3       1 AND401      0.0000 
      4 O3          9.3670  -44.1770   30.9640 O.3       1 AND401      0.0000 
      5 C4         10.6650  -43.6530   28.9250 C.3       1 AND401      0.0000 
      6 C5         10.8600  -44.0280   27.4510 C.2       1 AND401      0.0000 
      7 C6         12.2680  -44.2700   26.8880 C.2       1 AND401      0.0000 
      8 C7         12.5380  -44.6590   25.4330 C.3       1 AND401      0.0000 
      9 C8         11.2890  -44.7360   24.5000 C.3       1 AND401      0.0000 
     10 C9          9.9790  -45.1430   25.2730 C.3       1 AND401      0.0000 
     11 C10         9.6130  -44.1790   26.4930 C.3       1 AND401      0.0000 
     12 C11         8.7680  -45.2650   24.3060 C.3       1 AND401      0.0000 
     13 C12         9.0530  -46.2010   23.1090 C.3       1 AND401      0.0000 
     14 C13        10.3290  -45.8340   22.3510 C.3       1 AND401      0.0000 
     15 C14        11.5010  -45.7300   23.3570 C.3       1 AND401      0.0000 
     16 C15        12.6810  -45.6240   22.4280 C.3       1 AND401      0.0000 
     17 C16        12.3680  -46.7900   21.4500 C.3       1 AND401      0.0000 
     18 C17        10.9450  -46.8870   21.4050 C.2       1 AND401      0.0000 
     19 O17        10.3670  -47.7200   20.6960 O.2       1 AND401      0.0000 
     20 C18        10.0490  -44.5530   21.4480 C.3       1 AND401      0.0000 
     21 C19         9.1600  -42.7500   25.9790 C.3       1 AND401      0.0000 
     22 H           7.4669  -44.5628   26.7552 H         1 AND401      0.0000 
     23 H           8.4983  -45.9316   27.2054 H         1 AND401      0.0000 
     24 H           7.5111  -45.1055   29.2462 H         1 AND401      0.0000 
     25 H           7.8753  -43.4193   28.8409 H         1 AND401      0.0000 
     26 H           9.9203  -45.5769   29.5002 H         1 AND401      0.0000 
     27 H          11.5942  -43.8004   29.4619 H         1 AND401      0.0000 
     28 H          10.3608  -42.6159   28.9974 H         1 AND401      0.0000 
     29 H          13.0532  -44.1668   27.5106 H         1 AND401      0.0000 
     30 H          13.0437  -45.6448   25.4083 H         1 AND401      0.0000 
     31 H          13.2509  -43.9355   24.9898 H         1 AND401      0.0000 
     32 H          11.1173  -43.7544   24.0704 H         1 AND401      0.0000 
     33 H          10.1466  -46.1430   25.7043 H         1 AND401      0.0000 
     34 H           8.5181  -44.2709   23.9299 H         1 AND401      0.0000 
     35 H           7.9115  -45.6495   24.8634 H         1 AND401      0.0000 
     36 H           8.1993  -46.1604   22.4221 H         1 AND401      0.0000 
     37 H           9.1356  -47.2292   23.4808 H         1 AND401      0.0000 
     38 H          11.5526  -46.7768   23.7934 H         1 AND401      0.0000 
     39 H          13.5742  -45.8334   22.9321 H         1 AND401      0.0000 
     40 H          12.6605  -44.7212   21.8985 H         1 AND401      0.0000 
     41 H          12.8316  -47.6782   21.8473 H         1 AND401      0.0000 
     42 H          12.7964  -46.5342   20.4946 H         1 AND401      0.0000 
     43 H          10.8597  -44.2788   20.9308 H         1 AND401      0.0000 
     44 H           9.3199  -44.7189   20.7840 H         1 AND401      0.0000 
     45 H           9.7714  -43.7649   21.9973 H         1 AND401      0.0000 
     46 H           9.8868  -42.2918   25.4673 H         1 AND401      0.0000 
     47 H           8.3665  -42.8076   25.3732 H         1 AND401      0.0000 
     48 H           8.9082  -42.1460   26.7351 H         1 AND401      0.0000 
     49 H           8.4547  -43.7687   30.9951 H         1 AND401      0.0000 
@<TRIPOS>BOND
     1    2    1 1    
     2   11    1 1    
     3   22    1 1    
     4   23    1 1    
     5    3    2 1    
     6   24    2 1    
     7   25    2 1    
     8    4    3 1    
     9    5    3 1    
    10   26    3 1    
    11   49    4 1    
    12    6    5 1    
    13   27    5 1    
    14   28    5 1    
    15    7    6 2    
    16   11    6 1    
    17    8    7 1    
    18   29    7 1    
    19    9    8 1    
    20   30    8 1    
    21   31    8 1    
    22   10    9 1    
    23   15    9 1    
    24   32    9 1    
    25   11   10 1    
    26   12   10 1    
    27   33   10 1    
    28   21   11 1    
    29   13   12 1    
    30   34   12 1    
    31   35   12 1    
    32   14   13 1    
    33   36   13 1    
    34   37   13 1    
    35   15   14 1    
    36   18   14 1    
    37   20   14 1    
    38   16   15 1    
    39   38   15 1    
    40   17   16 1    
    41   39   16 1    
    42   40   16 1    
    43   18   17 1    
    44   41   17 1    
    45   42   17 1    
    46   19   18 2    
    47   43   20 1    
    48   44   20 1    
    49   45   20 1    
    50   46   21 1    
    51   47   21 1    
    52   48   21 1    
@<TRIPOS>SUBSTRUCTURE
     1 AND401      1 GROUP   
@<TRIPOS>SET

