#    Name: 2a4z_BYM_1_INTS_M
#    Modification time : Mon Mar 24 18:27:56 2014

@<TRIPOS>MOLECULE
2a4z_BYM_1_INTS_M
   52     0     6     0     0
SMALL
NO_CHARGES


@<TRIPOS>ATOM
      1 CA         43.1695   15.9915   29.9495 C.3       2 GLC5        0.0000 
      2 CA         44.3290   14.6080   30.5810 C.3       6 GLL5        0.0000 
      3 CA         42.0100   17.3750   29.3180 C.3       4 GLP5        0.0000 
      4 CA         44.7035   10.4525   27.9225 C.3       2 GLC5        0.0000 
      5 CA         44.8870   12.3050   28.9590 C.3       6 GLL5        0.0000 
      6 CA         44.5200    8.6000   26.8860 C.3       4 GLP5        0.0000 
      7 N          38.6775   13.7825   33.6105 N.am      1 SEC2        0.0000 
      8 N          39.2970   13.5250   32.0170 N.am      5 SEL2        0.0000 
      9 N          38.0580   14.0400   35.2040 N.am      3 SEP2        0.0000 
     10 N          48.2660   12.1570   28.7550 N.am      1 SEC2        0.0000 
     11 N          47.2110   13.2780   28.8040 N.am      5 SEL2        0.0000 
     12 N          49.3210   11.0360   28.7060 N.am      3 SEP2        0.0000 
     13 CA         49.1850   14.4125   32.1865 C.3       2 GLC5        0.0000 
     14 CA         48.4290   13.7230   30.7450 C.3       6 GLL5        0.0000 
     15 CA         49.9410   15.1020   33.6280 C.3       4 GLP5        0.0000 
     16 CA         47.4515   13.3835   32.3520 C.3       2 GLC5        0.0000 
     17 CA         46.4740   13.0440   33.9590 C.3       4 GLP5        0.0000 
     18 CA         48.7750   11.9315   30.8450 C.3       2 GLC5        0.0000 
     19 CA         49.1210   10.1400   30.9450 C.3       4 GLP5        0.0000 
     20 CA         49.1525   12.4350   29.0560 C.3       2 GLC5        0.0000 
     21 CA         49.8760   11.1470   27.3670 C.3       4 GLP5        0.0000 
     22 CA         41.5110   12.4305   29.1880 C.3       2 GLC5        0.0000 
     23 CA         41.9390   13.7970   30.8820 C.3       6 GLL5        0.0000 
     24 CA         41.0830   11.0640   27.4940 C.3       4 GLP5        0.0000 
     25 CA         41.4255   14.6725   29.4200 C.3       2 GLC5        0.0000 
     26 CA         40.9120   15.5480   27.9580 C.3       4 GLP5        0.0000 
     27 CA         49.3920   15.5845   27.4870 C.3       2 GLC5        0.0000 
     28 CA         48.7360   14.9750   28.9060 C.3       6 GLL5        0.0000 
     29 CA         50.0480   16.1940   26.0680 C.3       4 GLP5        0.0000 
     30 CA         47.7810   14.7590   26.9360 C.3       2 GLC5        0.0000 
     31 CA         46.8260   14.5430   24.9660 C.3       4 GLP5        0.0000 
     32 CA         45.7347   13.7695   32.1243 C.3       2 GLC5        0.0000 
     33 CA         45.6620   14.3820   29.9980 C.3       6 GLL5        0.0000 
     34 CA         46.5268   11.8265   27.7135 C.3       2 GLC5        0.0000 
     35 CA         45.9180   13.3130   29.2450 C.3       6 GLL5        0.0000 
     36 CA         47.6510   10.8440   26.3250 C.3       4 GLP5        0.0000 
     37 CA         45.4778   15.8304   29.2296 C.3       2 GLC5        0.0000 
     38 CA         45.8960   17.4330   28.3580 C.3       4 GLP5        0.0000 
     39 CA         48.5618   13.1945   27.8410 C.3       2 GLC5        0.0000 
     40 CA         47.8010   14.2970   29.6520 C.3       6 GLL5        0.0000 
     41 CA         48.8550   11.7530   26.4030 C.3       4 GLP5        0.0000 
     42 CA         47.9262   16.0720   28.6440 C.3       2 GLC5        0.0000 
     43 CA         47.5840   17.5080   28.0090 C.3       4 GLP5        0.0000 
     44 CA         43.6780   11.4990   30.8999 C.3       2 GLC5        0.0000 
     45 CA         43.5540    9.9590   32.0200 C.3       4 GLP5        0.0000 
     46 CA         42.9815   14.1530   28.4629 C.3       2 GLC5        0.0000 
     47 CA         43.6510   12.4830   29.4800 C.3       6 GLL5        0.0000 
     48 CA         42.1610   15.2670   27.1460 C.3       4 GLP5        0.0000 
     49 CA         42.0050   16.1262   30.9580 C.3       2 GLC5        0.0000 
     50 CA         41.5320   14.3650   32.0450 C.3       6 GLL5        0.0000 
     51 CA         41.3443   12.4215   32.3923 C.3       2 GLC5        0.0000 
     52 CA         40.9530   10.7620   33.3210 C.3       4 GLP5        0.0000 
@<TRIPOS>BOND
@<TRIPOS>SUBSTRUCTURE
     1 SEC2        7 GROUP        1 X    SEC  0     ROOT SEC X 2
     2 GLC5        1 GROUP        1 X    GLC  0     **** GLC X 6
     3 SEP2        9 GROUP        1 Y    SEP  0     ROOT SEP Y 9
     4 GLP5        3 GROUP        1 Y    GLP  0     **** GLP Y 13
     5 SEL2        8 GROUP        1 Z    SEL  0     ROOT SEL Z 16
     6 GLL5        2 GROUP        1 Z    GLL  0     **** GLL Z 20
@<TRIPOS>SET

