#    Name: 2a4z_BYM_1_ligand
#    Modification time : Mon Mar 24 18:27:56 2014

@<TRIPOS>MOLECULE
2a4z_BYM_1_ligand
   24    26     1     0     0
SMALL
NO_CHARGES


@<TRIPOS>ATOM
      1 C1         40.1700   14.1920   32.5720 C.2       1 BYM101      0.0000 
      2 C3         41.0860   15.5690   34.2360 C.2       1 BYM101      0.0000 
      3 C8         45.6620   14.3820   29.9980 C.ar      1 BYM101      0.0000 
      4 C9         45.9180   13.3130   29.2450 C.ar      1 BYM101      0.0000 
      5 C11        44.3290   14.6080   30.5810 C.ar      1 BYM101      0.0000 
      6 C13        44.8870   12.3050   28.9590 C.ar      1 BYM101      0.0000 
      7 C14        47.8010   14.2970   29.6520 C.3       1 BYM101      0.0000 
      8 C15        43.3350   13.6840   30.3400 C.ar      1 BYM101      0.0000 
      9 C16        43.6510   12.4830   29.4800 C.ar      1 BYM101      0.0000 
     10 N2         39.9420   14.8700   33.7920 N.am      1 BYM101      0.0000 
     11 S4         42.4680   15.3900   33.1510 S.3       1 BYM101      0.0000 
     12 C5         41.5320   14.3650   32.0450 C.2       1 BYM101      0.0000 
     13 O6         41.1010   16.2320   35.2720 O.2       1 BYM101      0.0000 
     14 O7         39.2970   13.5250   32.0170 O.2       1 BYM101      0.0000 
     15 O10        46.7600   15.1970   30.1360 O.3       1 BYM101      0.0000 
     16 O12        47.2110   13.2780   28.8040 O.3       1 BYM101      0.0000 
     17 F17        48.4290   13.7230   30.7450 F         1 BYM101      0.0000 
     18 C18        41.9390   13.7970   30.8820 C.2       1 BYM101      0.0000 
     19 F19        48.7360   14.9750   28.9060 F         1 BYM101      0.0000 
     20 H          44.1890   15.4359   31.1396 H         1 BYM101      0.0000 
     21 H          45.1486   11.5172   28.3813 H         1 BYM101      0.0000 
     22 H          42.8734   11.8340   29.3291 H         1 BYM101      0.0000 
     23 H          39.1002   14.8560   34.2663 H         1 BYM101      0.0000 
     24 H          41.2056   13.3558   30.2265 H         1 BYM101      0.0000 
@<TRIPOS>BOND
     1   10    1 am   
     2   12    1 1    
     3   14    1 2    
     4   10    2 am   
     5   11    2 1    
     6   13    2 2    
     7    4    3 ar   
     8    5    3 ar   
     9   15    3 1    
    10    6    4 ar   
    11   16    4 1    
    12    8    5 ar   
    13   20    5 1    
    14    9    6 ar   
    15   21    6 1    
    16   15    7 1    
    17   16    7 1    
    18   17    7 1    
    19   19    7 1    
    20    9    8 ar   
    21   18    8 1    
    22   22    9 1    
    23   23   10 1    
    24   12   11 1    
    25   18   12 2    
    26   24   18 1    
@<TRIPOS>SUBSTRUCTURE
     1 BYM101      1 GROUP   
@<TRIPOS>SET

