#    Name: 2GG5_1_CAVITY_N1_6.mol2
#    Modification time : Mon Mar 10 14:41:41 2014

@<TRIPOS>MOLECULE
2GG5_1_CAVITY_N1_6.mol2
  103     0     6     0     0
SMALL
NO_CHARGES


@<TRIPOS>ATOM
      1 CZ         20.4763   -3.0688   18.0607 C.ar      4 PHE5        0.0000 
      2 CA         17.9994   -2.1649   20.6196 C.3       5 GLY6        0.0000 
      3 CA         18.4895   -1.8729   19.2324 C.3       5 GLY6        0.0000 
      4 CZ         18.9797   -1.5809   17.8451 C.ar      4 PHE5        0.0000 
      5 DU         18.5708   -3.3441   18.9514 H         6 CUB7        0.0000 
      6 CZ         19.0610   -3.0521   17.5642 C.ar      4 PHE5        0.0000 
      7 DU         18.6521   -4.8153   18.6705 H         6 CUB7        0.0000 
      8 CZ         19.1422   -4.5234   17.2832 C.ar      4 PHE5        0.0000 
      9 CZ         19.6324   -4.2314   15.8960 C.ar      4 PHE5        0.0000 
     10 CZ         17.4831   -0.0931   17.6295 C.ar      4 PHE5        0.0000 
     11 CZ         17.9732    0.1989   16.2422 C.ar      4 PHE5        0.0000 
     12 CZ         18.4634    0.4909   14.8549 C.ar      4 PHE5        0.0000 
     13 OG         16.5840   -2.1483   20.1231 O.2       1 SER1        0.0000 
     14 CZ         17.0742   -1.8563   18.7358 C.ar      4 PHE5        0.0000 
     15 CZ         17.5644   -1.5643   17.3485 C.ar      4 PHE5        0.0000 
     16 CZ         18.0545   -1.2723   15.9613 C.ar      4 PHE5        0.0000 
     17 DU         16.1752   -3.9114   21.2294 H         6 CUB7        0.0000 
     18 DU         16.6653   -3.6195   19.8421 H         6 CUB7        0.0000 
     19 DU         17.1555   -3.3275   18.4549 H         6 CUB7        0.0000 
     20 O          17.6456   -3.0355   17.0676 O.2       2 ALA2        0.0000 
     21 CZ         18.1358   -2.7435   15.6803 C.ar      4 PHE5        0.0000 
     22 CZ         16.7466   -5.0907   19.5612 C.ar      4 PHE5        0.0000 
     23 CZ         17.2368   -4.7987   18.1739 C.ar      4 PHE5        0.0000 
     24 O          17.7269   -4.5067   16.7867 O.2       2 ALA2        0.0000 
     25 OG         17.3181   -6.2699   17.8930 O.2       1 SER1        0.0000 
     26 CZ         15.9865    1.3947   17.4138 C.ar      4 PHE5        0.0000 
     27 CZ         16.4766    1.6867   16.0265 C.ar      4 PHE5        0.0000 
     28 CA         16.9668    1.9787   14.6393 C.3       5 GLY6        0.0000 
     29 CZ         15.5776   -0.3684   18.5201 C.ar      4 PHE5        0.0000 
     30 CZ         16.0677   -0.0765   17.1329 C.ar      4 PHE5        0.0000 
     31 DU         16.5579    0.2155   15.7456 H         6 CUB7        0.0000 
     32 CA         17.0481    0.5075   14.3584 C.3       5 GLY6        0.0000 
     33 CA         13.6983   -3.0076   23.7883 C.3       5 GLY6        0.0000 
     34 CA         14.1884   -2.7156   22.4010 C.3       5 GLY6        0.0000 
     35 N          14.6786   -2.4236   21.0137 N.2       2 ALA2        0.0000 
     36 N          15.1687   -2.1316   19.6265 N.2       2 ALA2        0.0000 
     37 CZ         15.6589   -1.8397   18.2392 C.ar      4 PHE5        0.0000 
     38 N          16.1490   -1.5477   16.8520 N.2       2 ALA2        0.0000 
     39 CA         16.6392   -1.2557   15.4647 C.3       5 GLY6        0.0000 
     40 DU         14.2697   -4.1868   22.1201 H         6 CUB7        0.0000 
     41 DU         14.7599   -3.8948   20.7328 H         6 CUB7        0.0000 
     42 DU         15.2500   -3.6028   19.3456 H         6 CUB7        0.0000 
     43 N          15.7402   -3.3109   17.9583 N.2       2 ALA2        0.0000 
     44 CZ         14.8411   -5.3660   20.4519 C.ar      4 PHE5        0.0000 
     45 CZ         15.3313   -5.0741   19.0646 C.ar      4 PHE5        0.0000 
     46 CZ         15.8214   -4.7821   17.6774 C.ar      4 PHE5        0.0000 
     47 CZ         14.9224   -6.8373   20.1710 C.ar      4 PHE5        0.0000 
     48 CZ         15.0613    1.7034   15.5300 C.ar      4 PHE5        0.0000 
     49 CA         15.5514    1.9953   14.1427 C.3       5 GLY6        0.0000 
     50 N          14.1623   -0.3518   18.0236 N.2       2 ALA2        0.0000 
     51 CZ         14.6524   -0.0598   16.6363 C.ar      4 PHE5        0.0000 
     52 CA         15.1426    0.2321   15.2491 C.3       5 GLY6        0.0000 
     53 CA         12.2829   -2.9909   23.2917 C.3       5 GLY6        0.0000 
     54 CA         12.7731   -2.6990   21.9044 C.3       5 GLY6        0.0000 
     55 N          13.2632   -2.4070   20.5172 N.2       2 ALA2        0.0000 
     56 N          13.7534   -2.1150   19.1299 N.2       2 ALA2        0.0000 
     57 N          14.2436   -1.8230   17.7427 N.2       2 ALA2        0.0000 
     58 N          14.7337   -1.5311   16.3554 N.2       2 ALA2        0.0000 
     59 DU         12.3642   -4.4622   23.0108 H         6 CUB7        0.0000 
     60 DU         12.8544   -4.1702   21.6235 H         6 CUB7        0.0000 
     61 CZ         13.3445   -3.8782   20.2363 C.ar      4 PHE5        0.0000 
     62 CZ         13.8347   -3.5862   18.8490 C.ar      4 PHE5        0.0000 
     63 N          14.3248   -3.2942   17.4617 N.2       2 ALA2        0.0000 
     64 CZ         12.9357   -5.6414   21.3426 C.ar      4 PHE5        0.0000 
     65 CZ         13.4258   -5.3494   19.9553 C.ar      4 PHE5        0.0000 
     66 CZ         13.6460    1.7200   15.0334 C.ar      4 PHE5        0.0000 
     67 CA         14.1361    2.0120   13.6461 C.3       5 GLY6        0.0000 
     68 N          12.7469   -0.3352   17.5270 N.2       2 ALA2        0.0000 
     69 CZ         13.2371   -0.0432   16.1397 C.ar      4 PHE5        0.0000 
     70 CA         13.7272    0.2488   14.7525 C.3       5 GLY6        0.0000 
     71 CA         10.8676   -2.9743   22.7951 C.3       5 GLY6        0.0000 
     72 CA         11.3578   -2.6823   21.4079 C.3       5 GLY6        0.0000 
     73 N          11.8479   -2.3904   20.0206 N.2       2 ALA2        0.0000 
     74 N          12.3381   -2.0984   18.6333 N.2       2 ALA2        0.0000 
     75 N          12.8282   -1.8064   17.2461 N.2       2 ALA2        0.0000 
     76 N          13.3184   -1.5144   15.8588 N.2       2 ALA2        0.0000 
     77 CA         10.9489   -4.4455   22.5142 C.3       5 GLY6        0.0000 
     78 N          11.4391   -4.1536   21.1269 N.2       2 ALA2        0.0000 
     79 CZ         11.9292   -3.8616   19.7397 C.ar      4 PHE5        0.0000 
     80 CZ         12.4194   -3.5696   18.3524 C.ar      4 PHE5        0.0000 
     81 N          12.9095   -3.2776   16.9652 N.2       2 ALA2        0.0000 
     82 O          11.5203   -5.6248   20.8460 O.2       2 ALA2        0.0000 
     83 CZ         12.0105   -5.3328   19.4588 C.ar      4 PHE5        0.0000 
     84 N          10.8415   -0.6106   18.4177 N.2       2 ALA2        0.0000 
     85 NZ         11.3316   -0.3186   17.0304 N.2       3 LYS4        0.0000 
     86 NZ         11.8218   -0.0266   15.6432 N.2       3 LYS4        0.0000 
     87 NZ         12.3119    0.2654   14.2559 N.2       3 LYS4        0.0000 
     88 N          10.4326   -2.3737   19.5240 N.2       2 ALA2        0.0000 
     89 N          10.9228   -2.0818   18.1368 N.2       2 ALA2        0.0000 
     90 NZ         11.4129   -1.7898   16.7495 N.2       3 LYS4        0.0000 
     91 N          11.9031   -1.4978   15.3623 N.2       2 ALA2        0.0000 
     92 CA         12.3932   -1.2058   13.9750 C.3       5 GLY6        0.0000 
     93 CA         12.8834   -0.9139   12.5877 C.3       5 GLY6        0.0000 
     94 N          10.5139   -3.8450   19.2431 N.2       2 ALA2        0.0000 
     95 N          11.0040   -3.5530   17.8559 N.2       2 ALA2        0.0000 
     96 CA         11.4942   -3.2610   16.4686 C.3       5 GLY6        0.0000 
     97 N          11.9843   -2.9690   15.0813 N.2       2 ALA2        0.0000 
     98 CA         12.4745   -2.6770   13.6941 C.3       5 GLY6        0.0000 
     99 NZ          9.9976   -1.7732   16.2529 N.2       3 LYS4        0.0000 
    100 NZ         10.4877   -1.4812   14.8657 N.2       3 LYS4        0.0000 
    101 CA         10.0789   -3.2444   15.9720 C.3       5 GLY6        0.0000 
    102 CA         10.5690   -2.9524   14.5848 C.3       5 GLY6        0.0000 
    103 N          11.0592   -2.6604   13.1975 N.2       2 ALA2        0.0000 
@<TRIPOS>BOND
@<TRIPOS>SUBSTRUCTURE
     1 SER1       13 GROUP   
     2 ALA2       20 GROUP   
     3 LYS4       85 GROUP   
     4 PHE5        1 GROUP   
     5 GLY6        2 GROUP   
     6 CUB7        5 GROUP   
@<TRIPOS>SET

