#    Name: 2gg5_U19_1_INTS_M
#    Modification time : Tue Mar 25 14:06:14 2014

@<TRIPOS>MOLECULE
2gg5_U19_1_INTS_M
   40     0     6     0     0
SMALL
NO_CHARGES


@<TRIPOS>ATOM
      1 CA         15.8360    2.5995   13.5830 C.3       2 GLC5        0.0000 
      2 CA         16.3300    0.6290   14.1890 C.3       6 GLL5        0.0000 
      3 CA         15.3420    4.5700   12.9770 C.3       4 GLP5        0.0000 
      4 CA         18.1690    0.6120   13.2275 C.3       2 GLC5        0.0000 
      5 CA         20.0080    0.5950   12.2660 C.3       4 GLP5        0.0000 
      6 CA         15.7065   -1.2825   13.9060 C.3       2 GLC5        0.0000 
      7 CA         15.0830   -3.1940   13.6230 C.3       4 GLP5        0.0000 
      8 CA         18.4660    1.4610   14.0075 C.3       2 GLC5        0.0000 
      9 CA         16.8770    1.0150   15.3270 C.3       6 GLL5        0.0000 
     10 CA         20.0550    1.9070   12.6880 C.3       4 GLP5        0.0000 
     11 CA         17.6190    3.6515   14.8370 C.3       2 GLC5        0.0000 
     12 CA         18.0400    1.6160   15.0960 C.3       6 GLL5        0.0000 
     13 CA         17.1980    5.6870   14.5780 C.3       4 GLP5        0.0000 
     14 CA         19.4185    1.9550   14.5260 C.3       2 GLC5        0.0000 
     15 CA         20.7970    2.2940   13.9560 C.3       4 GLP5        0.0000 
     16 CA         19.2990   -0.2200   15.0090 C.3       2 GLC5        0.0000 
     17 CA         20.5580   -2.0560   14.9220 C.3       4 GLP5        0.0000 
     18 CA         15.7195    3.2675   14.3990 C.3       2 GLC5        0.0000 
     19 CA         16.0970    1.9650   15.8210 C.3       6 GLL5        0.0000 
     20 CA         15.3200    2.8425   17.0255 C.3       2 GLC5        0.0000 
     21 CA         14.5430    3.7200   18.2300 C.3       4 GLP5        0.0000 
     22 CA         15.4840   -1.8885   15.3265 C.3       2 GLC5        0.0000 
     23 CA         15.8850   -0.5830   17.0300 C.3       6 GLL5        0.0000 
     24 Zn          9.4880    0.9130   16.9525 Zn        1 ZIC7        0.0000 
     25 Zn         10.5550    0.8580   16.0620 Zn        5 ZIL7        0.0000 
     26 Zn          8.4210    0.9680   17.8430 Zn        3 ZIP7        0.0000 
     27 Zn          9.8855    1.4835   15.3980 Zn        1 ZIC7        0.0000 
     28 Zn          9.2160    2.1090   14.7340 Zn        3 ZIP7        0.0000 
     29 Zn          9.2510    0.4665   17.4450 Zn        1 ZIC7        0.0000 
     30 Zn         10.0810   -0.0350   17.0470 Zn        5 ZIL7        0.0000 
     31 CA          9.8975   -0.3460   19.1635 C.3       2 GLC5        0.0000 
     32 CA         11.1660   -0.6580   17.5920 C.3       6 GLL5        0.0000 
     33 CA          8.6290   -0.0340   20.7350 C.3       4 GLP5        0.0000 
     34 CA         15.9138    0.9010   13.1210 C.3       2 GLC5        0.0000 
     35 CA         15.2240    0.9800   11.4840 C.3       4 GLP5        0.0000 
     36 CA         17.4714    1.8251   17.2461 C.3       2 GLC5        0.0000 
     37 CA         18.1650    2.0100   18.9760 C.3       4 GLP5        0.0000 
     38 CA         18.9725   -0.9960   19.5170 C.3       2 GLC5        0.0000 
     39 CA         18.3820   -1.5370   17.7690 C.3       6 GLL5        0.0000 
     40 CA         20.1330   -0.2020   20.9570 C.3       4 GLP5        0.0000 
@<TRIPOS>BOND
@<TRIPOS>SUBSTRUCTURE
     1 ZIC7       24 GROUP        1 X    ZIC  0     ROOT ZIC X 5
     2 GLC5        1 GROUP        1 X    GLC  0     **** GLC X 6
     3 ZIP7       26 GROUP        1 Y    ZIP  0     ROOT ZIP Y 12
     4 GLP5        3 GROUP        1 Y    GLP  0     **** GLP Y 13
     5 ZIL7       25 GROUP        1 Z    ZIL  0     ROOT ZIL Z 19
     6 GLL5        2 GROUP        1 Z    GLL  0     **** GLL Z 20
@<TRIPOS>SET

