#    Name: 2gg5_U19_1_ligand
#    Modification time : Tue Mar 25 14:06:14 2014

@<TRIPOS>MOLECULE
2gg5_U19_1_ligand
   28    29     1     0     0
SMALL
NO_CHARGES


@<TRIPOS>ATOM
      1 F3         16.3300    0.6290   14.1890 F         1 U19501      0.0000 
      2 C7         16.8770    1.0150   15.3270 C.3       1 U19501      0.0000 
      3 F1         18.0400    1.6160   15.0960 F         1 U19501      0.0000 
      4 F2         16.0970    1.9650   15.8210 F         1 U19501      0.0000 
      5 C3         17.0230   -0.0690   16.3960 C.ar      1 U19501      0.0000 
      6 C6         18.2730   -0.5620   16.7800 C.ar      1 U19501      0.0000 
      7 C2         18.3820   -1.5370   17.7690 C.ar      1 U19501      0.0000 
      8 C1         15.8850   -0.5830   17.0300 C.ar      1 U19501      0.0000 
      9 C4         15.9800   -1.5690   18.0280 C.ar      1 U19501      0.0000 
     10 C5         17.2420   -2.0430   18.3850 C.ar      1 U19501      0.0000 
     11 N1         14.6570   -0.1130   16.6610 N.2       1 U19501      0.0000 
     12 N2         13.6660   -0.5680   17.2390 N.2       1 U19501      0.0000 
     13 C8         12.3930   -0.1830   16.9580 C.2       1 U19501      0.0000 
     14 C10        11.8940    0.7920   15.9920 C.2       1 U19501      0.0000 
     15 N5         12.6790    1.5150   15.1470 N.4       1 U19501      0.0000 
     16 N6         10.5550    0.8580   16.0620 N.2       1 U19501      0.0000 
     17 N3         10.0810   -0.0350   17.0470 N.2       1 U19501      0.0000 
     18 C9         11.1660   -0.6580   17.5920 C.2       1 U19501      0.0000 
     19 N4         11.1760   -1.6070   18.5710 N.pl3     1 U19501      0.0000 
     20 H          19.1247   -0.1980   16.3241 H         1 U19501      0.0000 
     21 H          19.3116   -1.8844   18.0449 H         1 U19501      0.0000 
     22 H          15.1414   -1.9261   18.4776 H         1 U19501      0.0000 
     23 H          17.3287   -2.7709   19.1081 H         1 U19501      0.0000 
     24 H          12.0749   -1.9543   18.8380 H         1 U19501      0.0000 
     25 H          10.2835   -1.8722   18.9359 H         1 U19501      0.0000 
     26 H          13.2075    0.9260   14.5356 H         1 U19501      0.0000 
     27 H          12.1382    2.1267   14.5696 H         1 U19501      0.0000 
     28 H          13.3339    2.0842   15.6441 H         1 U19501      0.0000 
@<TRIPOS>BOND
     1    2    1 1    
     2    3    2 1    
     3    4    2 1    
     4    5    2 1    
     5    6    5 ar   
     6    8    5 ar   
     7    7    6 ar   
     8   20    6 1    
     9   10    7 ar   
    10   21    7 1    
    11    9    8 ar   
    12   11    8 1    
    13   10    9 ar   
    14   22    9 1    
    15   23   10 1    
    16   12   11 2    
    17   13   12 1    
    18   14   13 2    
    19   18   13 1    
    20   15   14 1    
    21   16   14 1    
    22   26   15 1    
    23   27   15 1    
    24   28   15 1    
    25   17   16 2    
    26   18   17 1    
    27   19   18 2    
    28   24   19 1    
    29   25   19 1    
@<TRIPOS>SUBSTRUCTURE
     1 U19501      1 GROUP   
@<TRIPOS>SET

