#    Name: 1uwh_BAX_1_INTS_M
#    Modification time : Tue Mar 25 07:10:29 2014

@<TRIPOS>MOLECULE
1uwh_BAX_1_INTS_M
   89     0     9     0     0
SMALL
NO_CHARGES


@<TRIPOS>ATOM
      1 CA         74.9400   46.7235   60.0445 C.3       3 GLC5        0.0000 
      2 CA         74.9730   44.9030   61.2950 C.3       9 GLL5        0.0000 
      3 CA         74.9070   48.5440   58.7940 C.3       6 GLP5        0.0000 
      4 CA         75.6435   38.7455   60.9495 C.3       3 GLC5        0.0000 
      5 CA         74.6010   39.9590   62.0580 C.3       9 GLL5        0.0000 
      6 CA         76.6860   37.5320   59.8410 C.3       6 GLP5        0.0000 
      7 CA         74.4290   38.3935   63.0035 C.3       3 GLC5        0.0000 
      8 CA         74.2570   36.8280   63.9490 C.3       6 GLP5        0.0000 
      9 CA         70.8210   37.1215   58.9630 C.3       3 GLC5        0.0000 
     10 CA         70.0640   37.0280   60.3220 C.3       9 GLL5        0.0000 
     11 CA         71.5780   37.2150   57.6040 C.3       6 GLP5        0.0000 
     12 CA         70.1425   36.8770   62.2975 C.3       3 GLC5        0.0000 
     13 CA         70.2210   36.7260   64.2730 C.3       6 GLP5        0.0000 
     14 CA         80.5200   49.2590   71.0115 C.3       3 GLC5        0.0000 
     15 CA         79.5630   47.3940   71.1380 C.3       9 GLL5        0.0000 
     16 CA         81.4770   51.1240   70.8850 C.3       6 GLP5        0.0000 
     17 CA         81.5335   46.9400   71.3410 C.3       3 GLC5        0.0000 
     18 CA         83.5040   46.4860   71.5440 C.3       6 GLP5        0.0000 
     19 CA         80.2860   45.3245   70.8205 C.3       3 GLC5        0.0000 
     20 CA         81.0090   43.2550   70.5030 C.3       6 GLP5        0.0000 
     21 CA         80.2325   46.9190   72.6885 C.3       3 GLC5        0.0000 
     22 CA         80.9020   46.4440   74.2390 C.3       6 GLP5        0.0000 
     23 CA         76.0920   47.2050   72.8230 C.3       3 GLC5        0.0000 
     24 CA         77.5040   47.0700   71.7710 C.3       9 GLL5        0.0000 
     25 CA         74.6800   47.3400   73.8750 C.3       6 GLP5        0.0000 
     26 CA         76.3395   45.4050   72.5840 C.3       3 GLC5        0.0000 
     27 CA         75.1750   43.7400   73.3970 C.3       6 GLP5        0.0000 
     28 CA         79.3980   46.4585   68.4615 C.3       3 GLC5        0.0000 
     29 CA         78.3720   45.9370   70.1830 C.3       9 GLL5        0.0000 
     30 CA         80.4240   46.9800   66.7400 C.3       6 GLP5        0.0000 
     31 CA         79.6905   44.5960   70.3430 C.3       3 GLC5        0.0000 
     32 CA         79.7615   50.6320   71.4010 C.3       3 GLC5        0.0000 
     33 CA         78.0460   50.1400   71.9170 C.3       9 GLL5        0.0000 
     34 CA         79.3350   50.4910   73.2705 C.3       3 GLC5        0.0000 
     35 CA         80.6240   50.8420   74.6240 C.3       6 GLP5        0.0000 
     36 CA         76.7185   50.3710   73.6480 C.3       3 GLC5        0.0000 
     37 CA         75.3910   50.6020   75.3790 C.3       6 GLP5        0.0000 
     38 O          76.7600   49.3465   65.0905 O.2       1 ALC1        0.0000 
     39 O          76.9190   48.4000   66.3580 O.2       7 ALL1        0.0000 
     40 O          76.6010   50.2930   63.8230 O.2       4 ALP1        0.0000 
     41 O          76.3330   48.8240   63.9840 O.2       1 ALC1        0.0000 
     42 O          76.0650   47.3550   64.1450 O.2       7 ALL1        0.0000 
     43 N          75.1460   46.4875   67.1525 N.am      2 SEC2        0.0000 
     44 N          76.2500   46.2990   66.0550 N.am      8 SEL2        0.0000 
     45 N          74.0420   46.6760   68.2500 N.am      5 SEP2        0.0000 
     46 N          74.2995   38.1060   61.7015 N.am      2 SEC2        0.0000 
     47 N          73.3930   39.2430   61.7070 N.am      8 SEL2        0.0000 
     48 N          75.2060   36.9690   61.6960 N.am      5 SEP2        0.0000 
     49 CA         76.4675   46.4142   69.2805 C.3       3 GLC5        0.0000 
     50 CA         77.6250   47.8530   68.5610 C.3       9 GLL5        0.0000 
     51 CA         75.1700   44.8230   69.3470 C.3       6 GLP5        0.0000 
     52 CA         75.4485   48.7050   68.1685 C.3       3 GLC5        0.0000 
     53 CA         73.4850   49.0720   68.2180 C.3       6 GLP5        0.0000 
     54 CA         77.7285   50.5807   66.3225 C.3       3 GLC5        0.0000 
     55 CA         77.1990   48.8230   67.6770 C.3       9 GLL5        0.0000 
     56 CA         78.3370   51.6740   64.7740 C.3       6 GLP5        0.0000 
     57 CA         75.3295   49.7005   68.4643 C.3       3 GLC5        0.0000 
     58 CA         77.0410   50.1520   68.0650 C.3       9 GLL5        0.0000 
     59 CA         79.4995   50.5748   70.3477 C.3       3 GLC5        0.0000 
     60 CA         77.3070   50.5060   69.3560 C.3       9 GLL5        0.0000 
     61 CA         74.8388   47.8030   61.7923 C.3       3 GLC5        0.0000 
     62 CA         75.3080   46.2050   63.3490 C.3       9 GLL5        0.0000 
     63 CA         74.1720   49.5700   60.9200 C.3       6 GLP5        0.0000 
     64 CA         76.1118   44.6190   63.8272 C.3       3 GLC5        0.0000 
     65 CA         75.7030   45.8670   61.9800 C.3       9 GLL5        0.0000 
     66 CA         76.7180   43.2020   64.9900 C.3       6 GLP5        0.0000 
     67 CA         73.1277   44.6988   59.8985 C.3       3 GLC5        0.0000 
     68 CA         71.8210   44.8170   58.2060 C.3       6 GLP5        0.0000 
     69 CA         75.0457   43.2082   60.0945 C.3       3 GLC5        0.0000 
     70 CA         73.8960   44.2580   61.8870 C.3       9 GLL5        0.0000 
     71 CA         75.6570   41.8360   58.5980 C.3       6 GLP5        0.0000 
     72 CA         75.5763   43.8912   63.2905 C.3       3 GLC5        0.0000 
     73 CA         77.1636   45.0782   62.0189 C.3       3 GLC5        0.0000 
     74 CA         79.0880   44.6870   62.0580 C.3       6 GLP5        0.0000 
     75 CA         75.2915   44.1283   64.2825 C.3       3 GLC5        0.0000 
     76 CA         74.2130   45.5420   63.9430 C.3       9 GLL5        0.0000 
     77 CA         72.1970   45.6493   64.5400 C.3       3 GLC5        0.0000 
     78 CA         70.5290   46.2440   65.5050 C.3       6 GLP5        0.0000 
     79 CA         75.1342   41.2410   60.2883 C.3       3 GLC5        0.0000 
     80 CA         74.6220   41.3330   61.8990 C.3       9 GLL5        0.0000 
     81 CA         75.7567   40.7000   63.6038 C.3       3 GLC5        0.0000 
     82 CA         76.9020   40.7540   65.2290 C.3       6 GLP5        0.0000 
     83 CA         74.2650   41.7258   59.9142 C.3       3 GLC5        0.0000 
     84 CA         73.4160   41.9760   61.3840 C.3       9 GLL5        0.0000 
     85 CA         79.0413   47.6140   67.8665 C.3       3 GLC5        0.0000 
     86 CA         78.2290   46.7375   73.1460 C.3       3 GLC5        0.0000 
     87 CA         78.3340   47.1480   70.7270 C.3       9 GLL5        0.0000 
     88 CA         78.5390   46.3660   75.0430 C.3       6 GLP5        0.0000 
     89 CA         76.6577   45.6730   70.0315 C.3       3 GLC5        0.0000 
@<TRIPOS>BOND
@<TRIPOS>SUBSTRUCTURE
     1 ALC1       38 GROUP        1 X    ALC  0     ROOT ALC X 1
     2 SEC2       43 GROUP        1 X    SEC  0     **** SEC X 2
     3 GLC5        1 GROUP        1 X    GLC  0     **** GLC X 6
     4 ALP1       40 GROUP        1 Y    ALP  0     ROOT ALP Y 8
     5 SEP2       45 GROUP        1 Y    SEP  0     **** SEP Y 9
     6 GLP5        3 GROUP        1 Y    GLP  0     **** GLP Y 13
     7 ALL1       39 GROUP        1 Z    ALL  0     ROOT ALL Z 15
     8 SEL2       44 GROUP        1 Z    SEL  0     **** SEL Z 16
     9 GLL5        2 GROUP        1 Z    GLL  0     **** GLL Z 20
@<TRIPOS>SET

