#    Name: 1uwh_BAX_1_ligand
#    Modification time : Tue Mar 25 07:10:30 2014

@<TRIPOS>MOLECULE
1uwh_BAX_1_ligand
   48    50     1     0     0
SMALL
NO_CHARGES


@<TRIPOS>ATOM
      1 C1         77.6250   47.8530   68.5610 C.ar      1 BAX1723     0.0000 
      2 C2         77.1990   48.8230   67.6770 C.ar      1 BAX1723     0.0000 
      3 C3         77.0410   50.1520   68.0650 C.ar      1 BAX1723     0.0000 
      4 C4         77.3070   50.5060   69.3560 C.ar      1 BAX1723     0.0000 
      5 C13        76.1690   47.3550   65.5280 C.2       1 BAX1723     0.0000 
      6 C16        75.3080   46.2050   63.3490 C.ar      1 BAX1723     0.0000 
      7 C17        75.7030   45.8670   61.9800 C.ar      1 BAX1723     0.0000 
      8 C18        74.9730   44.9030   61.2950 C.ar      1 BAX1723     0.0000 
      9 C19        73.8960   44.2580   61.8870 C.ar      1 BAX1723     0.0000 
     10 C20        73.5170   44.5670   63.2070 C.ar      1 BAX1723     0.0000 
     11 C21        74.2130   45.5420   63.9430 C.ar      1 BAX1723     0.0000 
     12 O22        73.2130   43.3320   61.1480 O.3       1 BAX1723     0.0000 
     13 C24        74.6220   41.3330   61.8990 C.ar      1 BAX1723     0.0000 
     14 C25        74.6010   39.9590   62.0580 C.ar      1 BAX1723     0.0000 
     15 C27        72.2730   39.9270   61.2150 C.ar      1 BAX1723     0.0000 
     16 C28        72.3300   41.2550   61.0770 C.ar      1 BAX1723     0.0000 
     17 N30        70.5070   37.9140   61.3520 N.am      1 BAX1723     0.0000 
     18 C31        70.0640   37.0280   60.3220 C.3       1 BAX1723     0.0000 
     19 C5         77.7370   49.5450   70.2650 C.ar      1 BAX1723     0.0000 
     20 C6         77.9050   48.1580   69.8670 C.ar      1 BAX1723     0.0000 
     21 C7         78.3340   47.1480   70.7270 C.3       1 BAX1723     0.0000 
     22 F8         79.5630   47.3940   71.1380 F         1 BAX1723     0.0000 
     23 F9         77.5040   47.0700   71.7710 F         1 BAX1723     0.0000 
     24 F10        78.3720   45.9370   70.1830 F         1 BAX1723     0.0000 
     25 CL11       78.0460   50.1400   71.9170 Cl        1 BAX1723     0.0000 
     26 N12        76.9190   48.4000   66.3580 N.am      1 BAX1723     0.0000 
     27 N14        76.0650   47.3550   64.1450 N.am      1 BAX1723     0.0000 
     28 O15        76.2500   46.2990   66.0550 O.2       1 BAX1723     0.0000 
     29 C23        73.4160   41.9760   61.3840 C.ar      1 BAX1723     0.0000 
     30 N26        73.3930   39.2430   61.7070 N.ar      1 BAX1723     0.0000 
     31 C29        70.9260   39.2220   60.8210 C.2       1 BAX1723     0.0000 
     32 O32        69.9160   39.9770   60.5670 O.2       1 BAX1723     0.0000 
     33 H          77.7343   46.8731   68.2255 H         1 BAX1723     0.0000 
     34 H          76.7273   50.8475   67.3775 H         1 BAX1723     0.0000 
     35 H          77.1928   51.4829   69.6691 H         1 BAX1723     0.0000 
     36 H          76.4921   46.3424   61.5736 H         1 BAX1723     0.0000 
     37 H          75.2391   44.6611   60.3212 H         1 BAX1723     0.0000 
     38 H          72.7238   44.0747   63.6362 H         1 BAX1723     0.0000 
     39 H          73.9319   45.7689   64.8941 H         1 BAX1723     0.0000 
     40 H          75.4189   41.8995   62.1191 H         1 BAX1723     0.0000 
     41 H          75.3934   39.4411   62.4080 H         1 BAX1723     0.0000 
     42 H          71.4706   41.7660   60.7049 H         1 BAX1723     0.0000 
     43 H          70.5365   37.7042   62.2812 H         1 BAX1723     0.0000 
     44 H          77.4611   49.1102   65.5748 H         1 BAX1723     0.0000 
     45 H          76.4570   48.0761   63.5445 H         1 BAX1723     0.0000 
     46 H          70.7837   36.8488   59.6513 H         1 BAX1723     0.0000 
     47 H          69.7797   36.1429   60.6904 H         1 BAX1723     0.0000 
     48 H          69.2831   37.4015   59.8213 H         1 BAX1723     0.0000 
@<TRIPOS>BOND
     1    2    1 ar   
     2   20    1 ar   
     3   33    1 1    
     4    3    2 ar   
     5   26    2 1    
     6    4    3 ar   
     7   34    3 1    
     8   19    4 ar   
     9   35    4 1    
    10   26    5 am   
    11   27    5 am   
    12   28    5 2    
    13    7    6 ar   
    14   11    6 ar   
    15   27    6 1    
    16    8    7 ar   
    17   36    7 1    
    18    9    8 ar   
    19   37    8 1    
    20   10    9 ar   
    21   12    9 1    
    22   11   10 ar   
    23   38   10 1    
    24   39   11 1    
    25   29   12 1    
    26   14   13 ar   
    27   29   13 ar   
    28   40   13 1    
    29   30   14 ar   
    30   41   14 1    
    31   16   15 ar   
    32   30   15 ar   
    33   31   15 1    
    34   29   16 ar   
    35   42   16 1    
    36   18   17 1    
    37   31   17 am   
    38   43   17 1    
    39   46   18 1    
    40   47   18 1    
    41   48   18 1    
    42   20   19 ar   
    43   25   19 1    
    44   21   20 1    
    45   22   21 1    
    46   23   21 1    
    47   24   21 1    
    48   44   26 1    
    49   45   27 1    
    50   32   31 2    
@<TRIPOS>SUBSTRUCTURE
     1 BAX1723     1 GROUP   
@<TRIPOS>SET

