#    Name: 3gb2_G3B_1_INTS_M
#    Modification time : Tue Mar 25 07:25:14 2014

@<TRIPOS>MOLECULE
3gb2_G3B_1_INTS_M
   53     0     6     0     0
SMALL
NO_CHARGES


@<TRIPOS>ATOM
      1 CA         32.3475   21.5790    2.0915 C.3       2 GLC5        0.0000 
      2 CA         32.6450   19.4440    1.7090 C.3       6 GLL5        0.0000 
      3 CA         32.0500   23.7140    2.4740 C.3       4 GLP5        0.0000 
      4 N          30.8395   21.8415    1.8075 N.am      1 SEC2        0.0000 
      5 N          31.7880   20.4900    2.0660 N.am      5 SEL2        0.0000 
      6 N          29.8910   23.1930    1.5490 N.am      3 SEP2        0.0000 
      7 CA         31.3085   21.8215    2.5675 C.3       2 GLC5        0.0000 
      8 CA         30.5670   19.9290    2.6610 C.3       6 GLL5        0.0000 
      9 CA         29.5875   21.6585    1.7895 C.3       2 GLC5        0.0000 
     10 CA         28.6080   23.3880    0.9180 C.3       4 GLP5        0.0000 
     11 CA         31.7590   18.2960    0.3770 C.3       2 GLC5        0.0000 
     12 CA         32.6880   16.9870    1.7830 C.3       6 GLL5        0.0000 
     13 CA         30.8300   19.6050   -1.0290 C.3       4 GLP5        0.0000 
     14 CA         33.9160   17.8735   -1.1095 C.3       2 GLC5        0.0000 
     15 CA         34.5070   18.3150    0.8760 C.3       6 GLL5        0.0000 
     16 CA         33.3250   17.4320   -3.0950 C.3       4 GLP5        0.0000 
     17 CA         36.0740   11.4560    2.2750 C.3       2 GLC5        0.0000 
     18 CA         35.2290   12.3230    0.9530 C.3       6 GLL5        0.0000 
     19 CA         36.9190   10.5890    3.5970 C.3       4 GLP5        0.0000 
     20 CA         35.3485   13.3390    2.8535 C.3       2 GLC5        0.0000 
     21 CA         35.4680   14.3550    4.7540 C.3       4 GLP5        0.0000 
     22 CA         35.1510   12.7320   -0.9735 C.3       2 GLC5        0.0000 
     23 CA         35.0730   13.1410   -2.9000 C.3       4 GLP5        0.0000 
     24 N          37.4540   13.6870   -0.1020 N.am      1 SEC2        0.0000 
     25 N          36.1750   14.5050   -0.1110 N.am      5 SEL2        0.0000 
     26 N          38.7330   12.8690   -0.0930 N.am      3 SEP2        0.0000 
     27 CA         27.0883   16.4960    1.3395 C.3       2 GLC5        0.0000 
     28 CA         28.4170   17.5990    2.6300 C.3       6 GLL5        0.0000 
     29 CA         26.2260   15.8390   -0.2060 C.3       4 GLP5        0.0000 
     30 CA         30.4630   17.2660    5.3857 C.3       2 GLC5        0.0000 
     31 CA         30.0420   16.7360    4.2050 C.3       6 GLL5        0.0000 
     32 CA         31.3510   18.2410    6.3150 C.3       4 GLP5        0.0000 
     33 CA         28.8371   17.7425    1.1640 C.3       2 GLC5        0.0000 
     34 CA         29.6960   17.5970    3.1690 C.3       6 GLL5        0.0000 
     35 CA         28.8510   18.1100   -0.6990 C.3       4 GLP5        0.0000 
     36 CA         33.5725   19.7350    3.0565 C.3       2 GLC5        0.0000 
     37 CA         32.0350   18.1740    2.0450 C.3       6 GLL5        0.0000 
     38 CA         34.8050   20.6610    4.2360 C.3       4 GLP5        0.0000 
     39 CA         31.2806   18.4136    4.3649 C.3       2 GLC5        0.0000 
     40 CA         30.9000   19.3739    0.7372 C.3       2 GLC5        0.0000 
     41 CA         30.7110   18.5390    2.6470 C.3       6 GLL5        0.0000 
     42 CA         34.5000   19.7900    2.6195 C.3       2 GLC5        0.0000 
     43 CA         33.8830   19.5230    1.1300 C.3       6 GLL5        0.0000 
     44 CA         34.8785   20.2405   -0.4660 C.3       2 GLC5        0.0000 
     45 CA         35.5620   21.5620   -1.9350 C.3       4 GLP5        0.0000 
     46 CA         36.0725   19.0845    0.9440 C.3       2 GLC5        0.0000 
     47 CA         37.9500   19.2500    0.8850 C.3       4 GLP5        0.0000 
     48 CA         34.2810   16.9192    3.2890 C.3       2 GLC5        0.0000 
     49 CA         33.9400   17.0860    1.2030 C.3       6 GLL5        0.0000 
     50 CA         35.2480   16.8020    5.0850 C.3       4 GLP5        0.0000 
     51 CA         32.7160   16.6258   -0.5140 C.3       2 GLC5        0.0000 
     52 CA         32.1180   16.2150   -2.5210 C.3       4 GLP5        0.0000 
     53 CA         32.3577   19.2521    0.0594 C.3       2 GLC5        0.0000 
@<TRIPOS>BOND
@<TRIPOS>SUBSTRUCTURE
     1 SEC2        4 GROUP        1 X    SEC  0     ROOT SEC X 2
     2 GLC5        1 GROUP        1 X    GLC  0     **** GLC X 6
     3 SEP2        6 GROUP        1 Y    SEP  0     ROOT SEP Y 9
     4 GLP5        3 GROUP        1 Y    GLP  0     **** GLP Y 13
     5 SEL2        5 GROUP        1 Z    SEL  0     ROOT SEL Z 16
     6 GLL5        2 GROUP        1 Z    GLL  0     **** GLL Z 20
@<TRIPOS>SET

