#    Name: 3gb2_G3B_1_ligand
#    Modification time : Tue Mar 25 07:25:14 2014

@<TRIPOS>MOLECULE
3gb2_G3B_1_ligand
   38    41     1     0     0
SMALL
NO_CHARGES


@<TRIPOS>ATOM
      1 O21        25.2600   15.3140    4.4490 O.2       1 G3B999      0.0000 
      2 S24        26.5780   14.6940    4.7990 S.o       1 G3B999      0.0000 
      3 C18        26.7030   13.0690    4.0250 C.3       1 G3B999      0.0000 
      4 C14        27.8280   15.8350    4.1750 C.ar      1 G3B999      0.0000 
      5 C5         27.4840   16.7070    3.1400 C.ar      1 G3B999      0.0000 
      6 C6         29.1080   15.8460    4.7080 C.ar      1 G3B999      0.0000 
      7 C3         30.0420   16.7360    4.2050 C.ar      1 G3B999      0.0000 
      8 C10        29.6960   17.5970    3.1690 C.ar      1 G3B999      0.0000 
      9 C2         28.4170   17.5990    2.6300 C.ar      1 G3B999      0.0000 
     10 C12        30.7110   18.5390    2.6470 C.2       1 G3B999      0.0000 
     11 C9         32.0350   18.1740    2.0450 C.ar      1 G3B999      0.0000 
     12 C13        32.6450   19.4440    1.7090 C.ar      1 G3B999      0.0000 
     13 O22        31.7880   20.4900    2.0660 O.3       1 G3B999      0.0000 
     14 C8         30.5670   19.9290    2.6610 C.2       1 G3B999      0.0000 
     15 C4         33.8830   19.5230    1.1300 C.ar      1 G3B999      0.0000 
     16 C7         32.6880   16.9870    1.7830 C.ar      1 G3B999      0.0000 
     17 C11        33.9400   17.0860    1.2030 C.ar      1 G3B999      0.0000 
     18 C1         34.5070   18.3150    0.8760 C.ar      1 G3B999      0.0000 
     19 C15        34.6890   15.8600    0.8600 C.2       1 G3B999      0.0000 
     20 O23        34.4080   14.5910    1.2630 O.3       1 G3B999      0.0000 
     21 C16        35.3360   13.7940    0.6560 C.2       1 G3B999      0.0000 
     22 C17        35.2290   12.3230    0.9530 C.3       1 G3B999      0.0000 
     23 N20        36.1750   14.5050   -0.1110 N.2       1 G3B999      0.0000 
     24 N19        35.7450   15.8300    0.0230 N.2       1 G3B999      0.0000 
     25 H          26.5277   16.6851    2.7539 H         1 G3B999      0.0000 
     26 H          29.3589   15.2029    5.4650 H         1 G3B999      0.0000 
     27 H          30.9939   16.7625    4.5963 H         1 G3B999      0.0000 
     28 H          28.1692   18.2395    1.8784 H         1 G3B999      0.0000 
     29 H          29.8611   20.4353    2.9730 H         1 G3B999      0.0000 
     30 H          34.3168   20.3995    0.9014 H         1 G3B999      0.0000 
     31 H          32.2761   16.0943    2.0019 H         1 G3B999      0.0000 
     32 H          35.4509   18.3209    0.4160 H         1 G3B999      0.0000 
     33 H          27.5710   12.6212    4.2397 H         1 G3B999      0.0000 
     34 H          25.9738   12.4558    4.3288 H         1 G3B999      0.0000 
     35 H          26.6414   13.1265    3.0286 H         1 G3B999      0.0000 
     36 H          35.9338   11.7960    0.4781 H         1 G3B999      0.0000 
     37 H          35.3293   12.1331    1.9297 H         1 G3B999      0.0000 
     38 H          34.3447   11.9506    0.6712 H         1 G3B999      0.0000 
@<TRIPOS>BOND
     1    2    1 2    
     2    3    2 1    
     3    4    2 1    
     4   33    3 1    
     5   34    3 1    
     6   35    3 1    
     7    5    4 ar   
     8    6    4 ar   
     9    9    5 ar   
    10   25    5 1    
    11    7    6 ar   
    12   26    6 1    
    13    8    7 ar   
    14   27    7 1    
    15    9    8 ar   
    16   10    8 1    
    17   28    9 1    
    18   11   10 1    
    19   14   10 2    
    20   12   11 ar   
    21   16   11 ar   
    22   13   12 1    
    23   15   12 ar   
    24   14   13 1    
    25   29   14 1    
    26   18   15 ar   
    27   30   15 1    
    28   17   16 ar   
    29   31   16 1    
    30   18   17 ar   
    31   19   17 1    
    32   32   18 1    
    33   20   19 1    
    34   24   19 2    
    35   21   20 1    
    36   22   21 1    
    37   23   21 2    
    38   36   22 1    
    39   37   22 1    
    40   38   22 1    
    41   24   23 1    
@<TRIPOS>SUBSTRUCTURE
     1 G3B999      1 GROUP   
@<TRIPOS>SET

