#    Name: 3jz0_APC_3_INTS_M
#    Modification time : Tue Mar 25 18:03:48 2014

@<TRIPOS>MOLECULE
3jz0_APC_3_INTS_M
   56     0    12     0     0
SMALL
NO_CHARGES


@<TRIPOS>ATOM
      1 Zn         -9.3200   -7.2680   17.3810 Zn        3 ZIC7        0.0000 
      2 Zn         -9.1930   -7.4650   18.3930 Zn       11 ZIL7        0.0000 
      3 Zn         -9.4470   -7.0710   16.3690 Zn        7 ZIP7        0.0000 
      4 NZ         -9.5250  -10.2635   20.5090 N.4       2 LYC4        0.0000 
      5 NZ         -9.4060   -9.8960   19.1630 N.4      10 LYL4        0.0000 
      6 NZ         -8.5520  -10.8390   22.5750 N.4       6 LYP4        0.0000 
      7 N          -9.5250  -10.2635   20.5090 N.am      1 SEC2        0.0000 
      8 N          -9.4060   -9.8960   19.1630 N.am      9 SEL2        0.0000 
      9 N          -9.6440  -10.6310   21.8550 N.am      5 SEP2        0.0000 
     10 N          -9.7315  -10.4655   17.9895 N.am      1 SEC2        0.0000 
     11 N         -10.0570  -11.0350   16.8160 N.am      5 SEP2        0.0000 
     12 N         -10.5190  -10.4550   19.4565 N.am      1 SEC2        0.0000 
     13 N         -11.6320  -11.0140   19.7500 N.am      5 SEP2        0.0000 
     14 NZ         -8.7955   -9.4370   21.1530 N.4       2 LYC4        0.0000 
     15 NZ         -7.9470   -8.2430   20.4510 N.4      10 LYL4        0.0000 
     16 NZ         -6.6920   -7.8615   20.8305 N.4       2 LYC4        0.0000 
     17 NZ         -4.9700   -6.2330   21.1040 N.4       6 LYP4        0.0000 
     18 N          -7.6925   -9.2035   21.3730 N.am      1 SEC2        0.0000 
     19 N          -7.9470   -8.2430   20.4510 N.am      9 SEL2        0.0000 
     20 N          -7.4380  -10.1640   22.2950 N.am      5 SEP2        0.0000 
     21 N          -8.7955   -9.4370   21.1530 N.am      1 SEC2        0.0000 
     22 N          -6.6920   -7.8615   20.8305 N.am      1 SEC2        0.0000 
     23 N          -5.4370   -7.4800   21.2100 N.am      5 SEP2        0.0000 
     24 Zn         -8.6345   -7.6230   16.1430 Zn        3 ZIC7        0.0000 
     25 Zn         -7.8220   -8.1750   15.9170 Zn       11 ZIL7        0.0000 
     26 N          -8.2405   -9.3760   15.1115 N.am      1 SEC2        0.0000 
     27 N          -7.8220   -8.1750   15.9170 N.am      9 SEL2        0.0000 
     28 N          -8.6590  -10.5770   14.3060 N.am      5 SEP2        0.0000 
     29 Zn         -8.6740   -6.1965   16.3710 Zn        3 ZIC7        0.0000 
     30 Zn         -7.9010   -5.3220   16.3730 Zn       11 ZIL7        0.0000 
     31 Zn         -8.4365   -4.3860   16.1705 Zn        3 ZIC7        0.0000 
     32 Zn         -8.9720   -3.4500   15.9680 Zn        7 ZIP7        0.0000 
     33 CA         -6.9475   -5.2565   12.2205 C.3       4 GLC5        0.0000 
     34 CA         -6.4560   -6.1090   13.9140 C.3      12 GLL5        0.0000 
     35 CA         -7.4390   -4.4040   10.5270 C.3       8 GLP5        0.0000 
     36 CA         -6.4360   -6.1735   11.4125 C.3       4 GLC5        0.0000 
     37 CA         -5.4500   -6.6710   12.8930 C.3      12 GLL5        0.0000 
     38 CA         -7.4220   -5.6760    9.9320 C.3       8 GLP5        0.0000 
     39 CA         -4.6460   -9.7925   13.0210 C.3       4 GLC5        0.0000 
     40 CA         -4.4790   -7.6630   13.5340 C.3      12 GLL5        0.0000 
     41 CA         -4.8130  -11.9220   12.5080 C.3       8 GLP5        0.0000 
     42 N          -4.2910  -10.1025   13.2390 N.am      1 SEC2        0.0000 
     43 N          -5.0350   -8.9800   13.5170 N.am      9 SEL2        0.0000 
     44 N          -3.5470  -11.2250   12.9610 N.am      5 SEP2        0.0000 
     45 N          -3.5175   -9.7730   12.1860 N.am      1 SEC2        0.0000 
     46 N          -3.4880   -8.3210   11.4110 N.am      9 SEL2        0.0000 
     47 CA          0.1340   -4.5885    9.6265 C.3       4 GLC5        0.0000 
     48 CA         -0.0400   -3.1800   11.2000 C.3      12 GLL5        0.0000 
     49 CA          0.3080   -5.9970    8.0530 C.3       8 GLP5        0.0000 
     50 CA          1.6745   -3.6745   11.0210 C.3       4 GLC5        0.0000 
     51 CA          3.3890   -4.1690   10.8420 C.3       8 GLP5        0.0000 
     52 CA         -6.7345   -8.0207   12.9884 C.3       4 GLC5        0.0000 
     53 CA         -8.2530   -9.0150   12.5080 C.3       8 GLP5        0.0000 
     54 CA          1.5933   -4.0925   13.4352 C.3       4 GLC5        0.0000 
     55 CA         -0.7530   -3.8590   13.7160 C.3      12 GLL5        0.0000 
     56 CA          3.4260   -4.7830   13.2660 C.3       8 GLP5        0.0000 
@<TRIPOS>BOND
@<TRIPOS>SUBSTRUCTURE
     1 SEC2        7 GROUP        1 X    SEC  0     ROOT SEC X 2
     2 LYC4        4 GROUP        1 X    LYC  0     **** LYC X 4
     3 ZIC7        1 GROUP        1 X    ZIC  0     **** ZIC X 5
     4 GLC5       33 GROUP        1 X    GLC  0     **** GLC X 6
     5 SEP2        9 GROUP        1 Y    SEP  0     ROOT SEP Y 9
     6 LYP4        6 GROUP        1 Y    LYP  0     **** LYP Y 11
     7 ZIP7        3 GROUP        1 Y    ZIP  0     **** ZIP Y 12
     8 GLP5       35 GROUP        1 Y    GLP  0     **** GLP Y 13
     9 SEL2        8 GROUP        1 Z    SEL  0     ROOT SEL Z 16
    10 LYL4        5 GROUP        1 Z    LYL  0     **** LYL Z 18
    11 ZIL7        2 GROUP        1 Z    ZIL  0     **** ZIL Z 19
    12 GLL5       34 GROUP        1 Z    GLL  0     **** GLL Z 20
@<TRIPOS>SET

