#    Name: 3jz0_APC_3_ligand
#    Modification time : Tue Mar 25 18:03:49 2014

@<TRIPOS>MOLECULE
3jz0_APC_3_ligand
   45    47     1     0     0
SMALL
NO_CHARGES


@<TRIPOS>ATOM
      1 PG         -8.4760   -8.6160   19.0060 P.3       1 APC738      0.0000 
      2 O1G        -9.1930   -7.4650   18.3930 O.co2     1 APC738      0.0000 
      3 O2G        -9.4060   -9.8960   19.1630 O.co2     1 APC738      0.0000 
      4 O3G        -7.9470   -8.2430   20.4510 O.co2     1 APC738      0.0000 
      5 PB         -6.6860   -8.4530   16.8000 P.3       1 APC738      0.0000 
      6 O1B        -5.5620   -9.2810   16.2990 O.co2     1 APC738      0.0000 
      7 O2B        -7.8220   -8.1750   15.9170 O.co2     1 APC738      0.0000 
      8 O3B        -7.2030   -9.1320   18.1630 O.3       1 APC738      0.0000 
      9 PA         -6.4240   -5.3820   16.4960 P.3       1 APC738      0.0000 
     10 O1A        -7.9010   -5.3220   16.3730 O.co2     1 APC738      0.0000 
     11 O2A        -5.6940   -4.2090   17.0370 O.co2     1 APC738      0.0000 
     12 C3A        -5.9580   -6.8780   17.4290 C.3       1 APC738      0.0000 
     13 O5'        -5.7630   -5.6570   15.0700 O.3       1 APC738      0.0000 
     14 C5'        -6.4560   -6.1090   13.9140 C.3       1 APC738      0.0000 
     15 C4'        -5.4500   -6.6710   12.8930 C.3       1 APC738      0.0000 
     16 O4'        -4.6140   -5.5730   12.4740 O.3       1 APC738      0.0000 
     17 C3'        -4.4790   -7.6630   13.5340 C.3       1 APC738      0.0000 
     18 O3'        -5.0350   -8.9800   13.5170 O.3       1 APC738      0.0000 
     19 C2'        -3.2710   -7.5630   12.6050 C.3       1 APC738      0.0000 
     20 O2'        -3.4880   -8.3210   11.4110 O.3       1 APC738      0.0000 
     21 C1'        -3.2630   -6.0710   12.2460 C.3       1 APC738      0.0000 
     22 N9         -2.3250   -5.2530   13.0860 N.pl3     1 APC738      0.0000 
     23 C8         -2.2620   -5.2210   14.4190 C.2       1 APC738      0.0000 
     24 N7         -1.3040   -4.3710   14.8070 N.2       1 APC738      0.0000 
     25 C5         -0.7530   -3.8590   13.7160 C.ar      1 APC738      0.0000 
     26 C6          0.2740   -2.9450   13.4930 C.ar      1 APC738      0.0000 
     27 N6          0.9170   -2.3860   14.5130 N.pl3     1 APC738      0.0000 
     28 N1          0.6030   -2.6310   12.2270 N.ar      1 APC738      0.0000 
     29 C2         -0.0400   -3.1800   11.2000 C.ar      1 APC738      0.0000 
     30 N3         -1.0250   -4.0600   11.3820 N.ar      1 APC738      0.0000 
     31 C4         -1.4050   -4.4140   12.6210 C.ar      1 APC738      0.0000 
     32 H          -4.9214   -6.9819   17.3409 H         1 APC738      0.0000 
     33 H          -6.3233   -6.7573   18.4012 H         1 APC738      0.0000 
     34 H          -7.0061   -5.3004   13.4201 H         1 APC738      0.0000 
     35 H          -7.1679   -6.9088   14.1460 H         1 APC738      0.0000 
     36 H          -5.9441   -7.1128   12.0905 H         1 APC738      0.0000 
     37 H          -4.2118   -7.3074   14.4797 H         1 APC738      0.0000 
     38 H          -2.4067   -7.7909   13.1257 H         1 APC738      0.0000 
     39 H          -3.0128   -5.9677   11.2085 H         1 APC738      0.0000 
     40 H          -2.8306   -5.7407   15.0238 H         1 APC738      0.0000 
     41 H           1.6002   -1.6950   14.2769 H         1 APC738      0.0000 
     42 H           0.6595   -2.7069   15.4245 H         1 APC738      0.0000 
     43 H           0.2361   -2.9125   10.2136 H         1 APC738      0.0000 
     44 H          -4.8178   -9.3641   14.4144 H         1 APC738      0.0000 
     45 H          -4.1963   -8.9848   11.6512 H         1 APC738      0.0000 
@<TRIPOS>BOND
     1    2    1 ar   
     2    3    1 ar   
     3    4    1 ar   
     4    8    1 1    
     5    6    5 ar   
     6    7    5 ar   
     7    8    5 1    
     8   12    5 1    
     9   10    9 ar   
    10   11    9 ar   
    11   12    9 1    
    12   13    9 1    
    13   32   12 1    
    14   33   12 1    
    15   14   13 1    
    16   15   14 1    
    17   34   14 1    
    18   35   14 1    
    19   16   15 1    
    20   17   15 1    
    21   36   15 1    
    22   21   16 1    
    23   18   17 1    
    24   19   17 1    
    25   37   17 1    
    26   44   18 1    
    27   20   19 1    
    28   21   19 1    
    29   38   19 1    
    30   45   20 1    
    31   22   21 1    
    32   39   21 1    
    33   23   22 1    
    34   31   22 1    
    35   24   23 2    
    36   40   23 1    
    37   25   24 1    
    38   26   25 ar   
    39   31   25 ar   
    40   27   26 1    
    41   28   26 ar   
    42   41   27 1    
    43   42   27 1    
    44   29   28 ar   
    45   30   29 ar   
    46   43   29 1    
    47   31   30 ar   
@<TRIPOS>SUBSTRUCTURE
     1 APC738      1 GROUP   
@<TRIPOS>SET

