#    Name: 3da1_FAD_1_INTS_M
#    Modification time : Mon Mar 24 22:57:34 2014

@<TRIPOS>MOLECULE
3da1_FAD_1_INTS_M
  118     0     9     0     0
SMALL
NO_CHARGES


@<TRIPOS>ATOM
      1 N          29.7630   41.5195   81.3455 N.am      2 SEC2        0.0000 
      2 N          30.2110   41.0640   79.8320 N.am      8 SEL2        0.0000 
      3 N          29.3150   41.9750   82.8590 N.am      5 SEP2        0.0000 
      4 N          31.1775   41.3140   80.9040 N.am      2 SEC2        0.0000 
      5 N          32.1440   41.5640   81.9760 N.am      5 SEP2        0.0000 
      6 CA         30.8920   42.1800   77.9365 C.3       3 GLC5        0.0000 
      7 CA         28.7870   41.7400   77.3860 C.3       9 GLL5        0.0000 
      8 CA         32.9970   42.6200   78.4870 C.3       6 GLP5        0.0000 
      9 N          27.4940   46.0760   76.9320 N.am      2 SEC2        0.0000 
     10 N          28.0540   44.8900   76.3530 N.am      8 SEL2        0.0000 
     11 N          26.9340   47.2620   77.5110 N.am      5 SEP2        0.0000 
     12 O          28.1655   45.7995   75.4370 O.2       1 ALC1        0.0000 
     13 O          28.0540   44.8900   76.3530 O.2       7 ALL1        0.0000 
     14 O          28.2770   46.7090   74.5210 O.2       4 ALP1        0.0000 
     15 CA         25.0680   43.7220   73.9440 C.3       3 GLC5        0.0000 
     16 CA         26.8720   43.3720   74.7990 C.3       9 GLL5        0.0000 
     17 CA         23.2640   44.0720   73.0890 C.3       6 GLP5        0.0000 
     18 O          27.3410   45.6750   74.4320 O.2       1 ALC1        0.0000 
     19 O          26.4050   44.6410   74.3430 O.2       7 ALL1        0.0000 
     20 CA         30.1155   42.4695   73.5150 C.3       3 GLC5        0.0000 
     21 CA         28.0020   42.7830   73.9340 C.3       9 GLL5        0.0000 
     22 CA         32.2290   42.1560   73.0960 C.3       6 GLP5        0.0000 
     23 CA         27.0605   44.1685   72.6120 C.3       3 GLC5        0.0000 
     24 CA         26.1190   45.5540   71.2900 C.3       6 GLP5        0.0000 
     25 CA         26.6140   41.3325   74.8930 C.3       3 GLC5        0.0000 
     26 CA         25.2260   39.8820   75.8520 C.3       6 GLP5        0.0000 
     27 CA         27.7855   42.0300   67.2235 C.3       3 GLC5        0.0000 
     28 CA         27.0270   41.9320   69.1250 C.3       9 GLL5        0.0000 
     29 CA         28.5440   42.1280   65.3220 C.3       6 GLP5        0.0000 
     30 O          25.9805   41.5115   66.8145 O.2       1 ALC1        0.0000 
     31 O          26.2950   41.1530   68.2350 O.2       7 ALL1        0.0000 
     32 O          25.6660   41.8700   65.3940 O.2       4 ALP1        0.0000 
     33 N          27.5745   43.5575   67.2940 N.am      2 SEC2        0.0000 
     34 N          27.8570   42.9130   68.6650 N.am      8 SEL2        0.0000 
     35 N          27.2920   44.2020   65.9230 N.am      5 SEP2        0.0000 
     36 CA         29.6010   42.3315   69.0485 C.3       3 GLC5        0.0000 
     37 CA         28.5770   43.6780   69.5160 C.3       9 GLL5        0.0000 
     38 CA         30.6250   40.9850   68.5810 C.3       6 GLP5        0.0000 
     39 CA         29.6815   45.1545   70.6455 C.3       3 GLC5        0.0000 
     40 CA         30.7860   46.6310   71.7750 C.3       6 GLP5        0.0000 
     41 CA         27.3480   44.6160   70.4030 C.3       3 GLC5        0.0000 
     42 CA         27.5075   44.9540   68.2185 C.3       3 GLC5        0.0000 
     43 CA         26.4380   46.2300   66.9210 C.3       6 GLP5        0.0000 
     44 CA         29.2155   43.2120   67.6450 C.3       3 GLC5        0.0000 
     45 CA         29.8540   42.7460   65.7740 C.3       6 GLP5        0.0000 
     46 N          28.4535   44.9670   71.1080 N.am      2 SEC2        0.0000 
     47 N          28.5080   43.5180   70.8350 N.am      8 SEL2        0.0000 
     48 N          28.3990   46.4160   71.3810 N.am      5 SEP2        0.0000 
     49 N          35.4740   36.0790   89.8580 N.am      2 SEC2        0.0000 
     50 N          34.0150   36.4490   89.3750 N.am      8 SEL2        0.0000 
     51 N          36.9330   35.7090   90.3410 N.am      5 SEP2        0.0000 
     52 O          33.7590   37.0990   91.7365 O.2       1 ALC1        0.0000 
     53 O          32.5800   36.5080   90.9720 O.2       7 ALL1        0.0000 
     54 O          34.9380   37.6900   92.5010 O.2       4 ALP1        0.0000 
     55 N          30.4325   37.6115   93.4065 N.am      2 SEC2        0.0000 
     56 N          31.0920   36.5630   92.6200 N.am      8 SEL2        0.0000 
     57 N          29.7730   38.6600   94.1930 N.am      5 SEP2        0.0000 
     58 N          28.7835   38.3855   91.1805 N.am      2 SEC2        0.0000 
     59 N          28.9710   36.7330   90.7700 N.am      8 SEL2        0.0000 
     60 N          28.5960   40.0380   91.5910 N.am      5 SEP2        0.0000 
     61 CA         22.3895   36.7985   89.6530 C.3       3 GLC5        0.0000 
     62 CA         24.1460   37.1090   89.7840 C.3       9 GLL5        0.0000 
     63 CA         20.6330   36.4880   89.5220 C.3       6 GLP5        0.0000 
     64 CA         23.4590   36.2125   91.2780 C.3       3 GLC5        0.0000 
     65 CA         22.7720   35.3160   92.7720 C.3       6 GLP5        0.0000 
     66 CA         26.0175   37.9025   85.3620 C.3       3 GLC5        0.0000 
     67 CA         24.7680   37.1490   86.9520 C.3       9 GLL5        0.0000 
     68 CA         27.2670   38.6560   83.7720 C.3       6 GLP5        0.0000 
     69 CA         23.7095   38.5220   86.2210 C.3       3 GLC5        0.0000 
     70 CA         22.6510   39.8950   85.4900 C.3       6 GLP5        0.0000 
     71 CA         23.7625   37.0480   85.0255 C.3       3 GLC5        0.0000 
     72 CA         22.7570   36.9470   83.0990 C.3       6 GLP5        0.0000 
     73 CA         24.9485   35.2985   86.0800 C.3       3 GLC5        0.0000 
     74 CA         25.1290   33.4480   85.2080 C.3       6 GLP5        0.0000 
     75 CA         27.2220   37.8110   85.6305 C.3       3 GLC5        0.0000 
     76 CA         27.1770   36.9660   87.4890 C.3       9 GLL5        0.0000 
     77 CA         28.9285   38.4875   88.6255 C.3       3 GLC5        0.0000 
     78 CA         28.2470   36.8660   88.4370 C.3       9 GLL5        0.0000 
     79 CA         29.6100   40.1090   88.8140 C.3       6 GLP5        0.0000 
     80 CA         28.5415   37.7685   85.1325 C.3       3 GLC5        0.0000 
     81 CA         29.8160   36.8810   86.4930 C.3       9 GLL5        0.0000 
     82 CA         29.7130   38.4950   87.6535 C.3       3 GLC5        0.0000 
     83 CA         32.9885   37.3380   86.3380 C.3       3 GLC5        0.0000 
     84 CA         31.1810   36.7310   85.8050 C.3       9 GLL5        0.0000 
     85 CA         34.7960   37.9450   86.8710 C.3       6 GLP5        0.0000 
     86 CA         29.0990   37.8760   84.0420 C.3       3 GLC5        0.0000 
     87 CA         30.9310   37.0960   84.3120 C.3       9 GLL5        0.0000 
     88 CA         33.7910   35.7640   83.4745 C.3       3 GLC5        0.0000 
     89 CA         32.1470   37.0580   83.3560 C.3       9 GLL5        0.0000 
     90 CA         35.4350   34.4700   83.5930 C.3       6 GLP5        0.0000 
     91 CA         33.9905   37.2755   84.6060 C.3       3 GLC5        0.0000 
     92 CA         35.8340   37.4930   85.8560 C.3       6 GLP5        0.0000 
     93 N          34.4195   39.6100   79.5960 N.am      2 SEC2        0.0000 
     94 N          32.8580   39.3670   79.9140 N.am      8 SEL2        0.0000 
     95 N          35.9810   39.8530   79.2780 N.am      5 SEP2        0.0000 
     96 CA         26.9483   41.5028   76.7965 C.3       3 GLC5        0.0000 
     97 CA         25.1360   40.8570   76.8460 C.3       6 GLP5        0.0000 
     98 CA         27.4114   43.1604   78.1500 C.3       3 GLC5        0.0000 
     99 CA         26.6600   43.4680   79.8490 C.3       6 GLP5        0.0000 
    100 CA         26.1773   42.1608   76.1615 C.3       3 GLC5        0.0000 
    101 CA         27.5650   43.5570   76.1550 C.3       9 GLL5        0.0000 
    102 CA         27.7037   40.0110   69.3202 C.3       3 GLC5        0.0000 
    103 CA         26.9220   41.7400   70.5620 C.3       9 GLL5        0.0000 
    104 CA         28.4330   38.1860   68.7970 C.3       6 GLP5        0.0000 
    105 CA         28.9829   41.5957   69.6021 C.3       3 GLC5        0.0000 
    106 CA         26.7299   43.8803   70.9566 C.3       3 GLC5        0.0000 
    107 CA         27.7410   38.6775   89.6483 C.3       3 GLC5        0.0000 
    108 CA         27.9650   36.8360   89.8530 C.3       9 GLL5        0.0000 
    109 CA         28.1940   40.4780   89.2120 C.3       6 GLP5        0.0000 
    110 CA         27.3910   37.5570   91.7917 C.3       3 GLC5        0.0000 
    111 CA         27.4940   38.2370   93.4990 C.3       6 GLP5        0.0000 
    112 CA         27.3221   38.7376   88.6410 C.3       3 GLC5        0.0000 
    113 CA         25.5780   37.0130   89.3510 C.3       9 GLL5        0.0000 
    114 CA         33.5250   38.5173   82.3992 C.3       3 GLC5        0.0000 
    115 CA         35.1570   39.6890   82.0980 C.3       6 GLP5        0.0000 
    116 CA         32.6800   35.8233   81.5228 C.3       3 GLC5        0.0000 
    117 CA         31.6390   37.6330   82.0450 C.3       9 GLL5        0.0000 
    118 CA         33.4670   34.3010   80.3450 C.3       6 GLP5        0.0000 
@<TRIPOS>BOND
@<TRIPOS>SUBSTRUCTURE
     1 ALC1       12 GROUP        1 X    ALC  0     ROOT ALC X 1
     2 SEC2        1 GROUP        1 X    SEC  0     **** SEC X 2
     3 GLC5        6 GROUP        1 X    GLC  0     **** GLC X 6
     4 ALP1       14 GROUP        1 Y    ALP  0     ROOT ALP Y 8
     5 SEP2        3 GROUP        1 Y    SEP  0     **** SEP Y 9
     6 GLP5        8 GROUP        1 Y    GLP  0     **** GLP Y 13
     7 ALL1       13 GROUP        1 Z    ALL  0     ROOT ALL Z 15
     8 SEL2        2 GROUP        1 Z    SEL  0     **** SEL Z 16
     9 GLL5        7 GROUP        1 Z    GLL  0     **** GLL Z 20
@<TRIPOS>SET

