#    Name: 3da1_FAD_1_ligand
#    Modification time : Mon Mar 24 22:57:35 2014

@<TRIPOS>MOLECULE
3da1_FAD_1_ligand
   84    89     1     0     0
SMALL
NO_CHARGES


@<TRIPOS>ATOM
      1 PA         30.0910   40.1010   78.7110 P.3       1 FAD609      0.0000 
      2 O1A        30.2110   41.0640   79.8320 O.co2     1 FAD609      0.0000 
      3 O2A        28.8070   39.1720   79.0130 O.co2     1 FAD609      0.0000 
      4 O5B        29.9200   40.8950   77.3070 O.3       1 FAD609      0.0000 
      5 C5B        28.7870   41.7400   77.3860 C.3       1 FAD609      0.0000 
      6 C4B        28.7340   42.5570   76.1080 C.3       1 FAD609      0.0000 
      7 O4B        28.6330   41.8180   74.8350 O.3       1 FAD609      0.0000 
      8 C3B        27.5650   43.5570   76.1550 C.3       1 FAD609      0.0000 
      9 O3B        28.0540   44.8900   76.3530 O.3       1 FAD609      0.0000 
     10 C2B        26.8720   43.3720   74.7990 C.3       1 FAD609      0.0000 
     11 O2B        26.4050   44.6410   74.3430 O.3       1 FAD609      0.0000 
     12 C1B        28.0020   42.7830   73.9340 C.3       1 FAD609      0.0000 
     13 N9A        27.4290   42.1830   72.7020 N.pl3     1 FAD609      0.0000 
     14 C8A        26.5220   41.1640   72.6150 C.2       1 FAD609      0.0000 
     15 N7A        26.2390   40.9070   71.3750 N.2       1 FAD609      0.0000 
     16 C5A        26.9220   41.7400   70.5620 C.ar      1 FAD609      0.0000 
     17 C6A        27.0270   41.9320   69.1250 C.ar      1 FAD609      0.0000 
     18 N6A        26.2950   41.1530   68.2350 N.pl3     1 FAD609      0.0000 
     19 N1A        27.8570   42.9130   68.6650 N.ar      1 FAD609      0.0000 
     20 C2A        28.5770   43.6780   69.5160 C.ar      1 FAD609      0.0000 
     21 N3A        28.5080   43.5180   70.8350 N.ar      1 FAD609      0.0000 
     22 C4A        27.7070   42.5770   71.4030 C.ar      1 FAD609      0.0000 
     23 N1         31.9390   36.6170   88.7020 N.2       1 FAD609      0.0000 
     24 C2         32.8530   36.5090   89.6810 C.2       1 FAD609      0.0000 
     25 O2         34.0150   36.4490   89.3750 O.2       1 FAD609      0.0000 
     26 N3         32.5800   36.5080   90.9720 N.am      1 FAD609      0.0000 
     27 C4         31.3150   36.5590   91.4370 C.2       1 FAD609      0.0000 
     28 O4         31.0920   36.5630   92.6200 O.2       1 FAD609      0.0000 
     29 C4X        30.2300   36.6860   90.4210 C.2       1 FAD609      0.0000 
     30 N5         28.9710   36.7330   90.7700 N.2       1 FAD609      0.0000 
     31 C5X        27.9650   36.8360   89.8530 C.ar      1 FAD609      0.0000 
     32 C6         26.6110   36.9180   90.3160 C.ar      1 FAD609      0.0000 
     33 C7         25.5780   37.0130   89.3510 C.ar      1 FAD609      0.0000 
     34 C7M        24.1460   37.1090   89.7840 C.3       1 FAD609      0.0000 
     35 C8         25.8690   37.0440   87.9510 C.ar      1 FAD609      0.0000 
     36 C8M        24.7680   37.1490   86.9520 C.3       1 FAD609      0.0000 
     37 C9         27.1770   36.9660   87.4890 C.ar      1 FAD609      0.0000 
     38 C9A        28.2470   36.8660   88.4370 C.ar      1 FAD609      0.0000 
     39 N10        29.6160   36.8000   87.9770 N.pl3     1 FAD609      0.0000 
     40 C10        30.6350   36.6620   88.9660 C.2       1 FAD609      0.0000 
     41 C1'        29.8160   36.8810   86.4930 C.3       1 FAD609      0.0000 
     42 C2'        31.1810   36.7310   85.8050 C.3       1 FAD609      0.0000 
     43 O2'        32.0670   37.6550   86.4080 O.3       1 FAD609      0.0000 
     44 C3'        30.9310   37.0960   84.3120 C.3       1 FAD609      0.0000 
     45 O3'        30.0190   36.1500   83.7350 O.3       1 FAD609      0.0000 
     46 C4'        32.1470   37.0580   83.3560 C.3       1 FAD609      0.0000 
     47 O4'        33.1490   37.9620   83.8640 O.3       1 FAD609      0.0000 
     48 C5'        31.6390   37.6330   82.0450 C.3       1 FAD609      0.0000 
     49 O5'        32.5370   37.6650   80.9200 O.3       1 FAD609      0.0000 
     50 P          31.6140   38.5560   79.9680 P.3       1 FAD609      0.0000 
     51 O1P        32.8580   39.3670   79.9140 O.co2     1 FAD609      0.0000 
     52 O2P        31.4080   37.1970   79.1420 O.co2     1 FAD609      0.0000 
     53 O3P        31.4790   39.2180   78.5650 O.3       1 FAD609      0.0000 
     54 H          28.8480   42.4320   78.2259 H         1 FAD609      0.0000 
     55 H          27.8578   41.1756   77.4638 H         1 FAD609      0.0000 
     56 H          29.6499   43.1932   76.0711 H         1 FAD609      0.0000 
     57 H          26.8963   43.2303   76.9176 H         1 FAD609      0.0000 
     58 H          26.1223   42.6426   74.9192 H         1 FAD609      0.0000 
     59 H          28.6717   43.5813   73.7121 H         1 FAD609      0.0000 
     60 H          26.1550   40.7099   73.4111 H         1 FAD609      0.0000 
     61 H          26.4295   41.3503   67.2639 H         1 FAD609      0.0000 
     62 H          25.6974   40.4628   68.6430 H         1 FAD609      0.0000 
     63 H          29.2106   44.4225   69.1125 H         1 FAD609      0.0000 
     64 H          33.3723   36.4660   91.6770 H         1 FAD609      0.0000 
     65 H          26.4080   36.9078   91.2992 H         1 FAD609      0.0000 
     66 H          27.3925   36.9782   86.4968 H         1 FAD609      0.0000 
     67 H          29.3644   37.8731   86.1237 H         1 FAD609      0.0000 
     68 H          29.1066   36.1248   85.9935 H         1 FAD609      0.0000 
     69 H          31.4820   35.7320   85.8660 H         1 FAD609      0.0000 
     70 H          30.4962   38.0859   84.2567 H         1 FAD609      0.0000 
     71 H          32.4676   36.0903   83.2308 H         1 FAD609      0.0000 
     72 H          31.2529   38.6749   82.2659 H         1 FAD609      0.0000 
     73 H          30.6962   37.0656   81.7758 H         1 FAD609      0.0000 
     74 H          23.8645   36.3104   90.3159 H         1 FAD609      0.0000 
     75 H          23.9839   37.9136   90.3552 H         1 FAD609      0.0000 
     76 H          23.5253   37.1744   89.0027 H         1 FAD609      0.0000 
     77 H          25.1169   37.1643   86.0150 H         1 FAD609      0.0000 
     78 H          24.1337   36.3786   87.0160 H         1 FAD609      0.0000 
     79 H          24.2303   37.9826   87.0782 H         1 FAD609      0.0000 
     80 H          27.8691   45.3639   75.4921 H         1 FAD609      0.0000 
     81 H          27.1711   45.2667   74.4901 H         1 FAD609      0.0000 
     82 H          32.5261   37.1389   87.1311 H         1 FAD609      0.0000 
     83 H          30.6001   35.4410   83.3356 H         1 FAD609      0.0000 
     84 H          32.9992   37.9853   84.8524 H         1 FAD609      0.0000 
@<TRIPOS>BOND
     1    2    1 ar   
     2    3    1 ar   
     3    4    1 1    
     4   53    1 1    
     5    5    4 1    
     6    6    5 1    
     7   54    5 1    
     8   55    5 1    
     9    7    6 1    
    10    8    6 1    
    11   56    6 1    
    12   12    7 1    
    13    9    8 1    
    14   10    8 1    
    15   57    8 1    
    16   80    9 1    
    17   11   10 1    
    18   12   10 1    
    19   58   10 1    
    20   81   11 1    
    21   13   12 1    
    22   59   12 1    
    23   14   13 1    
    24   22   13 1    
    25   15   14 2    
    26   60   14 1    
    27   16   15 1    
    28   17   16 ar   
    29   22   16 ar   
    30   18   17 1    
    31   19   17 ar   
    32   61   18 1    
    33   62   18 1    
    34   20   19 ar   
    35   21   20 ar   
    36   63   20 1    
    37   22   21 ar   
    38   24   23 1    
    39   40   23 2    
    40   25   24 2    
    41   26   24 am   
    42   27   26 am   
    43   64   26 1    
    44   28   27 2    
    45   29   27 1    
    46   30   29 2    
    47   40   29 1    
    48   31   30 1    
    49   32   31 ar   
    50   38   31 ar   
    51   33   32 ar   
    52   65   32 1    
    53   34   33 1    
    54   35   33 ar   
    55   74   34 1    
    56   75   34 1    
    57   76   34 1    
    58   36   35 1    
    59   37   35 ar   
    60   77   36 1    
    61   78   36 1    
    62   79   36 1    
    63   38   37 ar   
    64   66   37 1    
    65   39   38 1    
    66   40   39 1    
    67   41   39 1    
    68   42   41 1    
    69   67   41 1    
    70   68   41 1    
    71   43   42 1    
    72   44   42 1    
    73   69   42 1    
    74   82   43 1    
    75   45   44 1    
    76   46   44 1    
    77   70   44 1    
    78   83   45 1    
    79   47   46 1    
    80   48   46 1    
    81   71   46 1    
    82   84   47 1    
    83   49   48 1    
    84   72   48 1    
    85   73   48 1    
    86   50   49 1    
    87   51   50 ar   
    88   52   50 ar   
    89   53   50 1    
@<TRIPOS>SUBSTRUCTURE
     1 FAD609      1 GROUP   
@<TRIPOS>SET

