#    Name: 3RM2_1_CAVITY_N1_ALL.mol2
#    Modification time : Mon Mar 10 20:49:03 2014

@<TRIPOS>MOLECULE
3RM2_1_CAVITY_N1_ALL.mol2
  113     0     7     0     0
SMALL
NO_CHARGES


@<TRIPOS>ATOM
      1 OG         21.5978  -15.8678   22.3323 O.2       1 SER1        0.0000 
      2 OG         20.3750  -16.1714   21.5182 O.2       1 SER1        0.0000 
      3 OG         21.2230  -16.2817   20.2858 O.2       1 SER1        0.0000 
      4 N          14.1630  -16.7511   22.7732 N.2       2 ALA2        0.0000 
      5 O          12.9403  -17.0547   21.9591 O.2       2 ALA2        0.0000 
      6 CA         11.7175  -17.3583   21.1450 C.3       6 GLY6        0.0000 
      7 N          11.3427  -17.7722   19.0985 N.2       2 ALA2        0.0000 
      8 OG         20.5603  -14.2927   23.3032 O.2       1 SER1        0.0000 
      9 OG         21.4082  -14.4030   22.0708 O.2       1 SER1        0.0000 
     10 DU         18.4896  -14.4859   23.7215 H         7 CUB7        0.0000 
     11 DU         19.3376  -14.5963   22.4891 H         7 CUB7        0.0000 
     12 OG         20.1855  -14.7066   21.2567 O.2       1 SER1        0.0000 
     13 OG         21.0334  -14.8169   20.0242 O.2       1 SER1        0.0000 
     14 N          17.2669  -14.7895   22.9074 N.2       2 ALA2        0.0000 
     15 DU         18.1148  -14.8998   21.6750 H         7 CUB7        0.0000 
     16 CZ         18.9628  -15.0101   20.4426 C.ar      5 PHE5        0.0000 
     17 N          16.0442  -15.0931   22.0933 N.2       2 ALA2        0.0000 
     18 CZ         16.8921  -15.2034   20.8609 C.ar      5 PHE5        0.0000 
     19 N          14.8214  -15.3966   21.2792 N.2       2 ALA2        0.0000 
     20 CZ         15.6693  -15.5070   20.0468 C.ar      5 PHE5        0.0000 
     21 O          12.7507  -15.5899   21.6975 O.2       2 ALA2        0.0000 
     22 DU         13.5987  -15.7002   20.4651 H         7 CUB7        0.0000 
     23 DU         14.4466  -15.8105   19.2327 H         7 CUB7        0.0000 
     24 CA         11.5280  -15.8935   20.8834 C.3       6 GLY6        0.0000 
     25 DU         12.3759  -16.0038   19.6510 H         7 CUB7        0.0000 
     26 N          11.1532  -16.3073   18.8369 N.2       2 ALA2        0.0000 
     27 CA         20.3708  -12.8279   23.0416 C.3       6 GLY6        0.0000 
     28 CA         21.2187  -12.9382   21.8092 C.3       6 GLY6        0.0000 
     29 CA         18.3001  -13.0211   23.4600 C.3       6 GLY6        0.0000 
     30 CA         19.1480  -13.1314   22.2275 C.3       6 GLY6        0.0000 
     31 CA         19.9960  -13.2418   20.9951 C.3       6 GLY6        0.0000 
     32 CZ         20.8439  -13.3521   19.7627 C.ar      5 PHE5        0.0000 
     33 CA         17.0774  -13.3247   22.6459 C.3       6 GLY6        0.0000 
     34 DU         17.9253  -13.4350   21.4134 H         7 CUB7        0.0000 
     35 CZ         18.7732  -13.5453   20.1810 C.ar      5 PHE5        0.0000 
     36 CZ         19.6211  -13.6557   18.9486 C.ar      5 PHE5        0.0000 
     37 N          15.8546  -13.6283   21.8318 N.2       2 ALA2        0.0000 
     38 DU         16.7025  -13.7386   20.5994 H         7 CUB7        0.0000 
     39 CZ         17.5505  -13.8489   19.3669 C.ar      5 PHE5        0.0000 
     40 N          14.6319  -13.9318   21.0177 N.2       2 ALA2        0.0000 
     41 DU         15.4798  -14.0421   19.7853 H         7 CUB7        0.0000 
     42 CZ         16.3277  -14.1525   18.5528 C.ar      5 PHE5        0.0000 
     43 N          12.5612  -14.1251   21.4360 N.2       2 ALA2        0.0000 
     44 DU         13.4091  -14.2354   20.2036 H         7 CUB7        0.0000 
     45 CA         14.2571  -14.3457   18.9712 C.3       6 GLY6        0.0000 
     46 CZ         15.1050  -14.4560   17.7387 C.ar      5 PHE5        0.0000 
     47 CA         11.3385  -14.4286   20.6219 C.3       6 GLY6        0.0000 
     48 CA         12.1864  -14.5390   19.3895 C.3       6 GLY6        0.0000 
     49 CA         13.0343  -14.6493   18.1571 C.3       6 GLY6        0.0000 
     50 CA         13.8822  -14.7596   16.9247 C.3       6 GLY6        0.0000 
     51 CA         18.9585  -11.6666   21.9660 C.3       6 GLY6        0.0000 
     52 CA         19.8064  -11.7770   20.7336 C.3       6 GLY6        0.0000 
     53 CA         20.6543  -11.8873   19.5012 C.3       6 GLY6        0.0000 
     54 CA         16.8878  -11.8599   22.3843 C.3       6 GLY6        0.0000 
     55 N          17.7357  -11.9702   21.1519 N.2       2 ALA2        0.0000 
     56 CA         18.5837  -12.0805   19.9195 C.3       6 GLY6        0.0000 
     57 CA         19.4316  -12.1908   18.6871 C.3       6 GLY6        0.0000 
     58 CA         15.6651  -12.1634   21.5702 C.3       6 GLY6        0.0000 
     59 N          16.5130  -12.2738   20.3378 N.2       2 ALA2        0.0000 
     60 CZ         17.3609  -12.3841   19.1054 C.ar      5 PHE5        0.0000 
     61 CZ         18.2089  -12.4944   17.8730 C.ar      5 PHE5        0.0000 
     62 O          12.7465  -12.2464   23.2210 O.2       2 ALA2        0.0000 
     63 O          13.5944  -12.3567   21.9886 O.2       2 ALA2        0.0000 
     64 DU         14.4423  -12.4670   20.7561 H         7 CUB7        0.0000 
     65 DU         15.2903  -12.5773   19.5237 H         7 CUB7        0.0000 
     66 CZ         16.1382  -12.6877   18.2913 C.ar      5 PHE5        0.0000 
     67 CZ         16.9861  -12.7980   17.0589 C.ar      5 PHE5        0.0000 
     68 N          11.5237  -12.5499   22.4069 N.2       2 ALA2        0.0000 
     69 O          12.3717  -12.6603   21.1745 O.2       2 ALA2        0.0000 
     70 O          13.2196  -12.7706   19.9420 O.2       2 ALA2        0.0000 
     71 CA         14.0675  -12.8809   18.7096 C.3       6 GLY6        0.0000 
     72 CA         14.9154  -12.9912   17.4772 C.3       6 GLY6        0.0000 
     73 CZ         15.7634  -13.1015   16.2448 C.ar      5 PHE5        0.0000 
     74 CZ         16.6113  -13.2119   15.0124 C.ar      5 PHE5        0.0000 
     75 CZ         17.4592  -13.3222   13.7800 C.ar      5 PHE5        0.0000 
     76 NZ         15.3886  -13.5154   14.1983 N.2       4 LYS4        0.0000 
     77 N          18.3941  -10.6157   19.6580 N.2       2 ALA2        0.0000 
     78 N          15.4755  -10.6986   21.3087 N.2       2 ALA2        0.0000 
     79 N          16.3235  -10.8090   20.0763 N.2       2 ALA2        0.0000 
     80 N          17.1714  -10.9193   18.8439 N.2       2 ALA2        0.0000 
     81 CA         11.7090  -10.6712   24.1919 C.3       6 GLY6        0.0000 
     82 O          12.5569  -10.7816   22.9594 O.2       2 ALA2        0.0000 
     83 O          13.4049  -10.8919   21.7270 O.2       2 ALA2        0.0000 
     84 OG         14.2528  -11.0022   20.4946 O.2       1 SER1        0.0000 
     85 OG         15.1007  -11.1125   19.2622 O.2       1 SER1        0.0000 
     86 OG         15.9486  -11.2228   18.0298 O.2       1 SER1        0.0000 
     87 OG         16.7966  -11.3332   16.7974 O.2       1 SER1        0.0000 
     88 OD1        17.6445  -11.4435   15.5649 O.3       3 ASP3        0.0000 
     89 N          10.4863  -10.9748   23.3778 N.2       2 ALA2        0.0000 
     90 N          11.3342  -11.0851   22.1453 N.2       2 ALA2        0.0000 
     91 O          12.1821  -11.1954   20.9129 O.2       2 ALA2        0.0000 
     92 O          13.0301  -11.3058   19.6805 O.2       2 ALA2        0.0000 
     93 CA         13.8780  -11.4161   18.4481 C.3       6 GLY6        0.0000 
     94 OG         14.7259  -11.5264   17.2157 O.2       1 SER1        0.0000 
     95 OG         15.5738  -11.6367   15.9833 O.2       1 SER1        0.0000 
     96 DU         16.4218  -11.7471   14.7508 H         7 CUB7        0.0000 
     97 OD1        17.2697  -11.8574   13.5184 O.3       3 ASP3        0.0000 
     98 CA         14.3511  -11.9403   15.1692 C.3       6 GLY6        0.0000 
     99 CA         15.1990  -12.0506   13.9368 C.3       6 GLY6        0.0000 
    100 DU         16.0469  -12.1610   12.7043 H         7 CUB7        0.0000 
    101 N          13.5901   -9.0132   23.5120 N.2       2 ALA2        0.0000 
    102 N          11.5195   -9.2064   23.9303 N.2       2 ALA2        0.0000 
    103 CA         12.3674   -9.3167   22.6979 C.3       6 GLY6        0.0000 
    104 CA         13.2153   -9.4271   21.4655 C.3       6 GLY6        0.0000 
    105 OG         14.0633   -9.5374   20.2331 O.2       1 SER1        0.0000 
    106 OD1        17.4550   -9.9787   15.3034 O.3       3 ASP3        0.0000 
    107 O          11.1447   -9.6203   21.8838 O.2       2 ALA2        0.0000 
    108 N          11.9926   -9.7306   20.6514 N.2       2 ALA2        0.0000 
    109 N          12.8405   -9.8410   19.4190 N.2       2 ALA2        0.0000 
    110 OG         15.3843  -10.1719   15.7217 O.2       1 SER1        0.0000 
    111 OG         16.2322  -10.2822   14.4893 O.2       1 SER1        0.0000 
    112 OD1        17.0801  -10.3926   13.2569 O.3       3 ASP3        0.0000 
    113 N          15.8574  -10.6961   12.4428 N.2       2 ALA2        0.0000 
@<TRIPOS>BOND
@<TRIPOS>SUBSTRUCTURE
     1 SER1        1 GROUP   
     2 ALA2        4 GROUP   
     3 ASP3       88 GROUP   
     4 LYS4       76 GROUP   
     5 PHE5       16 GROUP   
     6 GLY6        6 GROUP   
     7 CUB7       10 GROUP   
@<TRIPOS>SET

