#    Name: 3rm2_S00_1_INTS_M
#    Modification time : Tue Mar 25 11:41:01 2014

@<TRIPOS>MOLECULE
3rm2_S00_1_INTS_M
   90     0     9     0     0
SMALL
NO_CHARGES


@<TRIPOS>ATOM
      1 CA          9.7145  -17.3670   20.2815 C.3       3 GLC5        0.0000 
      2 CA         11.3750  -16.1440   19.5080 C.3       9 GLL5        0.0000 
      3 CA          8.0540  -18.5900   21.0550 C.3       6 GLP5        0.0000 
      4 CA          9.6735  -14.8475   19.4150 C.3       3 GLC5        0.0000 
      5 CA          7.9720  -13.5510   19.3220 C.3       6 GLP5        0.0000 
      6 N          13.1680  -17.1285   23.4480 N.am      2 SEC2        0.0000 
      7 N          14.4080  -17.2980   22.5290 N.am      8 SEL2        0.0000 
      8 N          11.9280  -16.9590   24.3670 N.am      5 SEP2        0.0000 
      9 CA         18.5180  -12.5530   24.4890 C.3       3 GLC5        0.0000 
     10 CA         19.5630  -14.4100   24.4290 C.3       9 GLL5        0.0000 
     11 CA         17.4730  -10.6960   24.5490 C.3       6 GLP5        0.0000 
     12 CA         19.5105  -12.1710   26.4990 C.3       3 GLC5        0.0000 
     13 CA         21.2770  -13.2530   25.8570 C.3       9 GLL5        0.0000 
     14 CA         17.7440  -11.0890   27.1410 C.3       6 GLP5        0.0000 
     15 CA         18.4860  -13.0960   26.6380 C.3       3 GLC5        0.0000 
     16 CA         19.9020  -13.9110   25.8350 C.3       9 GLL5        0.0000 
     17 CA         17.0700  -12.2810   27.4410 C.3       6 GLP5        0.0000 
     18 CA         17.6185  -13.6565   25.9220 C.3       3 GLC5        0.0000 
     19 CA         18.1670  -15.0320   24.4030 C.3       9 GLL5        0.0000 
     20 N          15.6290  -12.5060   23.7745 N.am      2 SEC2        0.0000 
     21 N          16.5580  -13.1020   22.6820 N.am      8 SEL2        0.0000 
     22 N          14.7000  -11.9100   24.8670 N.am      5 SEP2        0.0000 
     23 CA         17.8370  -11.4520   22.6485 C.3       3 GLC5        0.0000 
     24 CA         18.2010  -12.2080   20.7480 C.3       9 GLL5        0.0000 
     25 CA         21.6085  -14.0695   19.1060 C.3       3 GLC5        0.0000 
     26 CA         20.0510  -13.4490   19.7530 C.3       9 GLL5        0.0000 
     27 CA         23.1660  -14.6900   18.4590 C.3       6 GLP5        0.0000 
     28 CA         21.5115  -14.2950   20.2750 C.3       3 GLC5        0.0000 
     29 CA         19.4310  -14.3140   20.8410 C.3       9 GLL5        0.0000 
     30 CA         23.5920  -14.2760   19.7090 C.3       6 GLP5        0.0000 
     31 O          16.6690   -9.8480   21.1010 O.2       1 ALC1        0.0000 
     32 O          16.2000  -10.9660   20.1790 O.2       7 ALL1        0.0000 
     33 O          17.1380   -8.7300   22.0230 O.2       4 ALP1        0.0000 
     34 CA         15.1335   -8.9925   18.3210 C.3       3 GLC5        0.0000 
     35 CA         14.9000  -10.7320   19.5780 C.3       9 GLL5        0.0000 
     36 CA         15.3670   -7.2530   17.0640 C.3       6 GLP5        0.0000 
     37 CA         12.2330  -11.9375   18.9730 C.3       3 GLC5        0.0000 
     38 CA         13.1050  -11.8820   20.9070 C.3       9 GLL5        0.0000 
     39 CA         11.3610  -11.9930   17.0390 C.3       6 GLP5        0.0000 
     40 CA         10.4990  -12.9945   21.5200 C.3       3 GLC5        0.0000 
     41 CA         12.1680  -11.9160   21.9310 C.3       9 GLL5        0.0000 
     42 CA          8.8300  -14.0730   21.1090 C.3       6 GLP5        0.0000 
     43 CA         10.0460   -9.0255   22.9925 C.3       3 GLC5        0.0000 
     44 CA         10.9760  -10.8260   23.8540 C.3       9 GLL5        0.0000 
     45 CA          9.1160   -7.2250   22.1310 C.3       6 GLP5        0.0000 
     46 CA         11.0560   -9.8665   25.8410 C.3       3 GLC5        0.0000 
     47 CA         11.1360   -8.9070   27.8280 C.3       6 GLP5        0.0000 
     48 O           9.1570  -11.7645   24.9180 O.2       1 ALC1        0.0000 
     49 O          10.3460  -11.8870   24.1570 O.2       7 ALL1        0.0000 
     50 O           7.9680  -11.6420   25.6790 O.2       4 ALP1        0.0000 
     51 O          10.4385  -13.3010   23.9295 O.2       1 ALC1        0.0000 
     52 O          10.5310  -14.7150   23.7020 O.2       4 ALP1        0.0000 
     53 O           9.4345   -9.5775   25.0940 O.2       1 ALC1        0.0000 
     54 O          10.7260   -9.6960   24.4960 O.2       7 ALL1        0.0000 
     55 O           8.1430   -9.4590   25.6920 O.2       4 ALP1        0.0000 
     56 CA         10.9440   -8.4545   22.3335 C.3       3 GLC5        0.0000 
     57 CA         12.7720   -9.6840   22.5360 C.3       9 GLL5        0.0000 
     58 CA         11.2468  -16.5123   21.8287 C.3       3 GLC5        0.0000 
     59 CA         12.3020  -15.6870   20.4450 C.3       9 GLL5        0.0000 
     60 CA         10.6550  -17.1090   23.6810 C.3       6 GLP5        0.0000 
     61 CA         10.3342  -14.9942   20.5428 C.3       3 GLC5        0.0000 
     62 CA         11.4893  -14.8900   17.6770 C.3       3 GLC5        0.0000 
     63 CA         11.3940  -13.4170   16.4740 C.3       6 GLP5        0.0000 
     64 CA         12.5023  -14.8750   17.4383 C.3       3 GLC5        0.0000 
     65 CA         13.1480  -16.5600   17.9350 C.3       9 GLL5        0.0000 
     66 CA         23.1118  -12.6985   26.5673 C.3       3 GLC5        0.0000 
     67 CA         24.4120  -11.6570   27.5180 C.3       6 GLP5        0.0000 
     68 CA         22.0377  -11.9955   24.5168 C.3       3 GLC5        0.0000 
     69 CA         22.2640  -10.2510   23.4170 C.3       6 GLP5        0.0000 
     70 CA         21.0254  -14.8608   27.3779 C.3       3 GLC5        0.0000 
     71 CA         21.1940  -15.8960   29.0300 C.3       6 GLP5        0.0000 
     72 CA         18.9868  -10.5508   19.0685 C.3       3 GLC5        0.0000 
     73 CA         19.2000   -8.9430   17.8880 C.3       6 GLP5        0.0000 
     74 CA         19.7898  -11.2402   21.6155 C.3       3 GLC5        0.0000 
     75 CA         19.3460  -12.1090   19.7500 C.3       9 GLL5        0.0000 
     76 CA         20.8060  -10.3220   22.9820 C.3       6 GLP5        0.0000 
     77 CA         19.0679  -14.6103   18.9021 C.3       3 GLC5        0.0000 
     78 CA         18.5710  -15.6740   17.5080 C.3       6 GLP5        0.0000 
     79 CA         14.9505  -10.1608   22.6085 C.3       3 GLC5        0.0000 
     80 CA         13.8760  -10.7510   20.6910 C.3       9 GLL5        0.0000 
     81 CA         16.1100  -10.1240   24.1160 C.3       6 GLP5        0.0000 
     82 CA         10.8343  -11.4375   20.6420 C.3       3 GLC5        0.0000 
     83 CA          9.0320  -10.9760   19.8650 C.3       6 GLP5        0.0000 
     84 CA         10.2585  -10.8975   21.5847 C.3       3 GLC5        0.0000 
     85 CA         11.9940  -10.8120   22.7550 C.3       9 GLL5        0.0000 
     86 CA         14.2465  -10.1860   23.3807 C.3       3 GLC5        0.0000 
     87 CA         12.9575   -7.9185   21.6018 C.3       3 GLC5        0.0000 
     88 CA         12.6760   -6.1730   21.1800 C.3       6 GLP5        0.0000 
     89 CA         12.9141  -11.4688   24.2391 C.3       3 GLC5        0.0000 
     90 CA         13.6780  -12.5480   25.6610 C.3       6 GLP5        0.0000 
@<TRIPOS>BOND
@<TRIPOS>SUBSTRUCTURE
     1 ALC1       31 GROUP        1 X    ALC  0     ROOT ALC X 1
     2 SEC2        6 GROUP        1 X    SEC  0     **** SEC X 2
     3 GLC5        1 GROUP        1 X    GLC  0     **** GLC X 6
     4 ALP1       33 GROUP        1 Y    ALP  0     ROOT ALP Y 8
     5 SEP2        8 GROUP        1 Y    SEP  0     **** SEP Y 9
     6 GLP5        3 GROUP        1 Y    GLP  0     **** GLP Y 13
     7 ALL1       32 GROUP        1 Z    ALL  0     ROOT ALL Z 15
     8 SEL2        7 GROUP        1 Z    SEL  0     **** SEL Z 16
     9 GLL5        2 GROUP        1 Z    GLL  0     **** GLL Z 20
@<TRIPOS>SET

