#    Name: 3rm2_S00_1_ligand
#    Modification time : Tue Mar 25 11:41:01 2014

@<TRIPOS>MOLECULE
3rm2_S00_1_ligand
   79    82     1     0     0
SMALL
NO_CHARGES


@<TRIPOS>ATOM
      1 C7         14.6630  -15.1830   21.1480 C.3       1 S001        0.0000 
      2 S8         15.4190  -16.4520   21.9520 S.o2      1 S001        0.0000 
      3 C4         13.6560  -15.6750   20.1290 C.ar      1 S001        0.0000 
      4 C5         12.3020  -15.6870   20.4450 C.ar      1 S001        0.0000 
      5 C6         11.3750  -16.1440   19.5080 C.ar      1 S001        0.0000 
      6 C1         11.7940  -16.5820   18.2520 C.ar      1 S001        0.0000 
      7 C2         13.1480  -16.5600   17.9350 C.ar      1 S001        0.0000 
      8 C3         14.0730  -16.1060   18.8700 C.ar      1 S001        0.0000 
      9 O12        16.3110  -17.1490   21.0800 O.2       1 S001        0.0000 
     10 O13        14.4080  -17.2980   22.5290 O.2       1 S001        0.0000 
     11 C15        19.5630  -14.4100   24.4290 C.3       1 S001        0.0000 
     12 C16        20.6010  -15.4370   23.9910 C.3       1 S001        0.0000 
     13 C17        21.9960  -14.8170   24.0120 C.3       1 S001        0.0000 
     14 C18        22.3460  -14.2270   25.3760 C.3       1 S001        0.0000 
     15 C19        21.2770  -13.2530   25.8570 C.3       1 S001        0.0000 
     16 C20        19.9020  -13.9110   25.8350 C.3       1 S001        0.0000 
     17 N9         16.2880  -15.8500   23.1620 N.pl3     1 S001        0.0000 
     18 C10        17.5880  -15.2250   22.9950 C.3       1 S001        0.0000 
     19 C14        18.1670  -15.0320   24.4030 C.3       1 S001        0.0000 
     20 C11        17.4520  -13.8710   22.3380 C.2       1 S001        0.0000 
     21 O31        16.5580  -13.1020   22.6820 O.2       1 S001        0.0000 
     22 N21        18.3250  -13.5250   21.3860 N.am      1 S001        0.0000 
     23 C22        18.2010  -12.2080   20.7480 C.3       1 S001        0.0000 
     24 C26        16.8790  -12.0970   20.0460 C.2       1 S001        0.0000 
     25 O30        16.4410  -13.0330   19.3920 O.2       1 S001        0.0000 
     26 C23        19.3460  -12.1090   19.7500 C.3       1 S001        0.0000 
     27 C24        20.0510  -13.4490   19.7530 C.3       1 S001        0.0000 
     28 C25        19.4310  -14.3140   20.8410 C.3       1 S001        0.0000 
     29 N27        16.2000  -10.9660   20.1790 N.am      1 S001        0.0000 
     30 C28        14.9000  -10.7320   19.5780 C.3       1 S001        0.0000 
     31 C29        13.8760  -10.7510   20.6910 C.ar      1 S001        0.0000 
     32 C33        13.1050  -11.8820   20.9070 C.ar      1 S001        0.0000 
     33 C34        12.1680  -11.9160   21.9310 C.ar      1 S001        0.0000 
     34 C35        11.9940  -10.8120   22.7550 C.ar      1 S001        0.0000 
     35 C37        10.9760  -10.8260   23.8540 C.2       1 S001        0.0000 
     36 N38        10.3460  -11.8870   24.1570 N.pl3     1 S001        0.0000 
     37 N39        10.7260   -9.6960   24.4960 N.pl3     1 S001        0.0000 
     38 C36        12.7720   -9.6840   22.5360 C.ar      1 S001        0.0000 
     39 C32        13.7060   -9.6440   21.5110 C.ar      1 S001        0.0000 
     40 H          15.4629  -14.6221   20.6854 H         1 S001        0.0000 
     41 H          14.1956  -14.5926   21.9235 H         1 S001        0.0000 
     42 H          11.9833  -15.3610   21.3645 H         1 S001        0.0000 
     43 H          10.3723  -16.1580   19.7461 H         1 S001        0.0000 
     44 H          11.1082  -16.9172   17.5691 H         1 S001        0.0000 
     45 H          13.4654  -16.8788   17.0109 H         1 S001        0.0000 
     46 H          15.0763  -16.0875   18.6311 H         1 S001        0.0000 
     47 H          19.5891  -13.5777   23.7496 H         1 S001        0.0000 
     48 H          20.3727  -15.7735   22.9836 H         1 S001        0.0000 
     49 H          20.5755  -16.2867   24.6674 H         1 S001        0.0000 
     50 H          22.0490  -14.0272   23.2553 H         1 S001        0.0000 
     51 H          22.7334  -15.5840   23.7531 H         1 S001        0.0000 
     52 H          23.3034  -13.7053   25.3058 H         1 S001        0.0000 
     53 H          22.4477  -15.0375   26.1016 H         1 S001        0.0000 
     54 H          21.2680  -12.3788   25.2082 H         1 S001        0.0000 
     55 H          21.5085  -12.9370   26.8727 H         1 S001        0.0000 
     56 H          19.8933  -14.7529   26.5248 H         1 S001        0.0000 
     57 H          19.1507  -13.1886   26.1487 H         1 S001        0.0000 
     58 H          15.8500  -15.9414   24.0731 H         1 S001        0.0000 
     59 H          18.2501  -15.8379   22.4417 H         1 S001        0.0000 
     60 H          17.4796  -14.3948   24.9844 H         1 S001        0.0000 
     61 H          18.2013  -16.0114   24.9092 H         1 S001        0.0000 
     62 H          18.3073  -11.4345   21.4698 H         1 S001        0.0000 
     63 H          20.0271  -11.3375   20.0599 H         1 S001        0.0000 
     64 H          18.9525  -11.9057   18.7707 H         1 S001        0.0000 
     65 H          21.1018  -13.3080   19.9614 H         1 S001        0.0000 
     66 H          19.9229  -13.9309   18.7944 H         1 S001        0.0000 
     67 H          19.0764  -15.2275   20.3985 H         1 S001        0.0000 
     68 H          20.1742  -14.5131   21.5920 H         1 S001        0.0000 
     69 H          16.5828  -10.1594   20.7438 H         1 S001        0.0000 
     70 H          14.6520  -11.5101   18.8631 H         1 S001        0.0000 
     71 H          14.8627   -9.7649   19.0867 H         1 S001        0.0000 
     72 H          13.2279  -12.7101   20.2997 H         1 S001        0.0000 
     73 H          11.6002  -12.7627   22.0799 H         1 S001        0.0000 
     74 H           9.6821  -11.8074   24.9006 H         1 S001        0.0000 
     75 H          10.5736  -12.7015   23.6233 H         1 S001        0.0000 
     76 H          10.0207   -9.7387   25.2036 H         1 S001        0.0000 
     77 H          11.2650   -8.9019   24.2153 H         1 S001        0.0000 
     78 H          12.6530   -8.8560   23.1497 H         1 S001        0.0000 
     79 H          14.2697   -8.7986   21.3592 H         1 S001        0.0000 
@<TRIPOS>BOND
     1    2    1 1    
     2    3    1 1    
     3   40    1 1    
     4   41    1 1    
     5    9    2 2    
     6   10    2 2    
     7   17    2 1    
     8    4    3 ar   
     9    8    3 ar   
    10    5    4 ar   
    11   42    4 1    
    12    6    5 ar   
    13   43    5 1    
    14    7    6 ar   
    15   44    6 1    
    16    8    7 ar   
    17   45    7 1    
    18   46    8 1    
    19   12   11 1    
    20   16   11 1    
    21   19   11 1    
    22   47   11 1    
    23   13   12 1    
    24   48   12 1    
    25   49   12 1    
    26   14   13 1    
    27   50   13 1    
    28   51   13 1    
    29   15   14 1    
    30   52   14 1    
    31   53   14 1    
    32   16   15 1    
    33   54   15 1    
    34   55   15 1    
    35   56   16 1    
    36   57   16 1    
    37   18   17 1    
    38   58   17 1    
    39   19   18 1    
    40   20   18 1    
    41   59   18 1    
    42   60   19 1    
    43   61   19 1    
    44   21   20 2    
    45   22   20 am   
    46   23   22 1    
    47   28   22 1    
    48   24   23 1    
    49   26   23 1    
    50   62   23 1    
    51   25   24 2    
    52   29   24 am   
    53   27   26 1    
    54   63   26 1    
    55   64   26 1    
    56   28   27 1    
    57   65   27 1    
    58   66   27 1    
    59   67   28 1    
    60   68   28 1    
    61   30   29 1    
    62   69   29 1    
    63   31   30 1    
    64   70   30 1    
    65   71   30 1    
    66   32   31 ar   
    67   39   31 ar   
    68   33   32 ar   
    69   72   32 1    
    70   34   33 ar   
    71   73   33 1    
    72   35   34 1    
    73   38   34 ar   
    74   36   35 2    
    75   37   35 1    
    76   74   36 1    
    77   75   36 1    
    78   76   37 1    
    79   77   37 1    
    80   39   38 ar   
    81   78   38 1    
    82   79   39 1    
@<TRIPOS>SUBSTRUCTURE
     1 S001        1 GROUP   
@<TRIPOS>SET

