#    Name: 4k28_NAD_1_INTS_M
#    Modification time : Tue Mar 25 06:46:17 2014

@<TRIPOS>MOLECULE
4k28_NAD_1_INTS_M
   77     0     9     0     0
SMALL
NO_CHARGES


@<TRIPOS>ATOM
      1 N          -9.8520    2.9500  -11.2220 N.am      2 SEC2        0.0000 
      2 N          -8.2670    2.8950  -10.8240 N.am      8 SEL2        0.0000 
      3 N         -11.4370    3.0050  -11.6200 N.am      5 SEP2        0.0000 
      4 CA         -7.6475   -0.0980   -6.4955 C.3       3 GLC5        0.0000 
      5 CA         -8.6250    1.3270   -7.6210 C.3       9 GLL5        0.0000 
      6 CA         -6.6700   -1.5230   -5.3700 C.3       6 GLP5        0.0000 
      7 CA        -11.0695    1.2200   -5.5225 C.3       3 GLC5        0.0000 
      8 CA         -9.3000    1.9650   -6.4570 C.3       9 GLL5        0.0000 
      9 CA        -12.8390    0.4750   -4.5880 C.3       6 GLP5        0.0000 
     10 N          -9.4655    5.5590   -6.3835 N.am      2 SEC2        0.0000 
     11 N          -9.7250    4.2650   -6.1670 N.am      8 SEL2        0.0000 
     12 N          -9.2060    6.8530   -6.6000 N.am      5 SEP2        0.0000 
     13 O         -10.6220    4.1780   -5.1995 O.2       1 ALC1        0.0000 
     14 O          -9.7250    4.2650   -6.1670 O.2       7 ALL1        0.0000 
     15 O         -11.5190    4.0910   -4.2320 O.2       4 ALP1        0.0000 
     16 N          -7.8075    5.4570   -4.6250 N.am      2 SEC2        0.0000 
     17 N          -8.2700    4.2160   -4.0160 N.am      8 SEL2        0.0000 
     18 N          -7.3450    6.6980   -5.2340 N.am      5 SEP2        0.0000 
     19 O          -9.3290    4.5450   -3.2670 O.2       1 ALC1        0.0000 
     20 O          -8.2700    4.2160   -4.0160 O.2       7 ALL1        0.0000 
     21 O         -10.3880    4.8740   -2.5180 O.2       4 ALP1        0.0000 
     22 O          -9.8945    4.1535   -4.1240 O.2       1 ALC1        0.0000 
     23 CA        -10.9730    1.2170   -4.4400 C.3       3 GLC5        0.0000 
     24 CA         -9.1070    1.9590   -4.2920 C.3       9 GLL5        0.0000 
     25 CA         -9.2700   -0.1195   -4.1300 C.3       3 GLC5        0.0000 
     26 CA         -9.4330   -2.1980   -3.9680 C.3       6 GLP5        0.0000 
     27 CA         -7.8885    0.2180   -4.8310 C.3       3 GLC5        0.0000 
     28 CA        -12.1620   -1.1675   -0.8525 C.3       3 GLC5        0.0000 
     29 CA        -11.2640    0.2410   -0.8190 C.3       9 GLL5        0.0000 
     30 CA        -13.0600   -2.5760   -0.8860 C.3       6 GLP5        0.0000 
     31 CA        -12.0515    0.3580   -2.7035 C.3       3 GLC5        0.0000 
     32 CA        -12.5945    0.5625    0.6230 C.3       3 GLC5        0.0000 
     33 CA        -13.9250    0.8840    2.0650 C.3       6 GLP5        0.0000 
     34 CA        -11.8925    2.0300   -0.7980 C.3       3 GLC5        0.0000 
     35 CA        -12.5210    3.8190   -0.7770 C.3       6 GLP5        0.0000 
     36 CA        -10.5065    1.8305   -0.4035 C.3       3 GLC5        0.0000 
     37 CA         -9.7490    3.4200    0.0120 C.3       6 GLP5        0.0000 
     38 CA        -10.3485   -0.9785   -2.3935 C.3       3 GLC5        0.0000 
     39 CA        -11.1505    0.6540   -3.3340 C.3       3 GLC5        0.0000 
     40 CA         -9.4620    0.8330   -2.0800 C.3       9 GLL5        0.0000 
     41 CA        -10.9915    2.3260   -1.4285 C.3       3 GLC5        0.0000 
     42 N         -11.1095    0.2635  -11.7350 N.am      2 SEC2        0.0000 
     43 N          -9.8570    0.0630  -11.0100 N.am      8 SEL2        0.0000 
     44 N         -12.3620    0.4640  -12.4600 N.am      5 SEP2        0.0000 
     45 CA         -9.7320   -2.0425  -11.5460 C.3       3 GLC5        0.0000 
     46 CA         -8.3550   -2.1030   -9.8750 C.3       9 GLL5        0.0000 
     47 CA        -11.1090   -1.9820  -13.2170 C.3       6 GLP5        0.0000 
     48 CA         -9.4045   -4.8490   -9.4510 C.3       3 GLC5        0.0000 
     49 CA         -8.1060   -3.5980   -9.8150 C.3       9 GLL5        0.0000 
     50 CA        -10.7030   -6.1000   -9.0870 C.3       6 GLP5        0.0000 
     51 CA         -6.2505   -3.8925   -8.0420 C.3       3 GLC5        0.0000 
     52 CA         -6.6920   -4.0500  -10.1660 C.3       9 GLL5        0.0000 
     53 CA         -5.8090   -3.7350   -5.9180 C.3       6 GLP5        0.0000 
     54 CA         -4.9060   -4.8940   -9.1805 C.3       3 GLC5        0.0000 
     55 CA         -3.1200   -5.7380   -8.1950 C.3       6 GLP5        0.0000 
     56 CA         -9.4635   -5.6500  -10.2795 C.3       3 GLC5        0.0000 
     57 CA         -8.2240   -5.2000  -11.4720 C.3       9 GLL5        0.0000 
     58 O         -10.3150   -9.0075  -12.3495 O.2       1 ALC1        0.0000 
     59 O         -10.9620   -9.1510  -13.6680 O.2       7 ALL1        0.0000 
     60 O          -9.6680   -8.8640  -11.0310 O.2       4 ALP1        0.0000 
     61 O         -11.2805  -10.6065  -13.7145 O.2       1 ALC1        0.0000 
     62 O         -11.5990  -12.0620  -13.7610 O.2       4 ALP1        0.0000 
     63 CA        -10.2249    2.9577   -7.9247 C.3       3 GLC5        0.0000 
     64 CA        -11.6060    3.4250   -9.2510 C.3       6 GLP5        0.0000 
     65 CA         -7.6525   -1.5528   -0.7808 C.3       3 GLC5        0.0000 
     66 CA         -8.6700    0.3090   -1.1320 C.3       9 GLL5        0.0000 
     67 CA         -6.3460   -3.1420   -0.9880 C.3       6 GLP5        0.0000 
     68 CA         -9.4797    1.9274   -0.6574 C.3       3 GLC5        0.0000 
     69 CA         -9.3217   -0.8816   -2.6474 C.3       3 GLC5        0.0000 
     70 CA        -10.8075   -6.8105  -11.7940 C.3       3 GLC5        0.0000 
     71 CA         -9.5760   -6.6970  -12.9930 C.3       9 GLL5        0.0000 
     72 CA        -11.6650   -6.8240  -10.0090 C.3       6 GLP5        0.0000 
     73 CA        -12.4935   -6.3455  -14.4175 C.3       3 GLC5        0.0000 
     74 CA        -10.3240   -6.8970  -14.1650 C.3       9 GLL5        0.0000 
     75 CA        -14.5650   -6.3150  -14.2360 C.3       6 GLP5        0.0000 
     76 CA        -10.4125   -3.4205  -13.7310 C.3       3 GLC5        0.0000 
     77 CA         -9.1980   -4.4640  -13.5980 C.3       9 GLL5        0.0000 
@<TRIPOS>BOND
@<TRIPOS>SUBSTRUCTURE
     1 ALC1       13 GROUP        1 X    ALC  0     ROOT ALC X 1
     2 SEC2        1 GROUP        1 X    SEC  0     **** SEC X 2
     3 GLC5        4 GROUP        1 X    GLC  0     **** GLC X 6
     4 ALP1       15 GROUP        1 Y    ALP  0     ROOT ALP Y 8
     5 SEP2        3 GROUP        1 Y    SEP  0     **** SEP Y 9
     6 GLP5        6 GROUP        1 Y    GLP  0     **** GLP Y 13
     7 ALL1       14 GROUP        1 Z    ALL  0     ROOT ALL Z 15
     8 SEL2        2 GROUP        1 Z    SEL  0     **** SEL Z 16
     9 GLL5        5 GROUP        1 Z    GLL  0     **** GLL Z 20
@<TRIPOS>SET

