#    Name: 4k28_NAD_1_ligand
#    Modification time : Tue Mar 25 06:46:17 2014

@<TRIPOS>MOLECULE
4k28_NAD_1_ligand
   70    74     1     0     0
SMALL
NO_CHARGES


@<TRIPOS>ATOM
      1 PA         -7.7760    2.0360   -9.8280 P.3       1 NAD301      0.0000 
      2 O1A        -6.6190    2.4540   -9.2780 O.co2     1 NAD301      0.0000 
      3 O2A        -8.2670    2.8950  -10.8240 O.co2     1 NAD301      0.0000 
      4 O5B        -8.7770    2.0010   -8.7680 O.3       1 NAD301      0.0000 
      5 C5B        -8.6250    1.3270   -7.6210 C.3       1 NAD301      0.0000 
      6 C4B        -9.3000    1.9650   -6.4570 C.3       1 NAD301      0.0000 
      7 O4B        -9.0660    1.1900   -5.3370 O.3       1 NAD301      0.0000 
      8 C3B        -8.7250    3.3350   -6.1580 C.3       1 NAD301      0.0000 
      9 O3B        -9.7250    4.2650   -6.1670 O.3       1 NAD301      0.0000 
     10 C2B        -8.1850    3.1020   -4.7680 C.3       1 NAD301      0.0000 
     11 O2B        -8.2700    4.2160   -4.0160 O.3       1 NAD301      0.0000 
     12 C1B        -9.1070    1.9590   -4.2920 C.3       1 NAD301      0.0000 
     13 N9A        -8.7100    1.2940   -3.0210 N.pl3     1 NAD301      0.0000 
     14 C8A        -7.4930    1.0540   -2.6630 C.2       1 NAD301      0.0000 
     15 N7A        -7.4610    0.4980   -1.5170 N.2       1 NAD301      0.0000 
     16 C5A        -8.6700    0.3090   -1.1320 C.ar      1 NAD301      0.0000 
     17 C6A        -9.2480   -0.2360   -0.0150 C.ar      1 NAD301      0.0000 
     18 N6A        -8.5500   -0.7480    0.9590 N.pl3     1 NAD301      0.0000 
     19 N1A       -10.5340   -0.2390    0.0980 N.ar      1 NAD301      0.0000 
     20 C2A       -11.2640    0.2410   -0.8190 C.ar      1 NAD301      0.0000 
     21 N3A       -10.7530    0.7660   -1.8780 N.ar      1 NAD301      0.0000 
     22 C4A        -9.4620    0.8330   -2.0800 C.ar      1 NAD301      0.0000 
     23 O3         -7.6170    0.6780  -10.5150 O.3       1 NAD301      0.0000 
     24 PN         -8.5510   -0.1080  -11.3490 P.3       1 NAD301      0.0000 
     25 O1N        -8.2330    0.0080  -12.6130 O.co2     1 NAD301      0.0000 
     26 O2N        -9.8570    0.0630  -11.0100 O.co2     1 NAD301      0.0000 
     27 O5D        -8.2990   -1.4840  -11.1230 O.3       1 NAD301      0.0000 
     28 C5D        -8.3550   -2.1030   -9.8750 C.3       1 NAD301      0.0000 
     29 C4D        -8.1060   -3.5980   -9.8150 C.3       1 NAD301      0.0000 
     30 O4D        -8.9550   -4.2540  -10.7320 O.3       1 NAD301      0.0000 
     31 C3D        -6.6920   -4.0500  -10.1660 C.3       1 NAD301      0.0000 
     32 O3D        -6.2750   -5.1490   -9.4080 O.3       1 NAD301      0.0000 
     33 C2D        -6.9210   -4.4890  -11.5970 C.3       1 NAD301      0.0000 
     34 O2D        -5.9070   -5.3130  -11.9640 O.3       1 NAD301      0.0000 
     35 C1D        -8.2240   -5.2000  -11.4720 C.3       1 NAD301      0.0000 
     36 N1N        -8.9970   -5.4600  -12.7050 N.pl3     1 NAD301      0.0000 
     37 C2N        -9.5760   -6.6970  -12.9930 C.ar      1 NAD301      0.0000 
     38 C3N       -10.3240   -6.8970  -14.1650 C.ar      1 NAD301      0.0000 
     39 C7N       -10.9900   -8.1980  -14.5430 C.2       1 NAD301      0.0000 
     40 O7N       -11.5350   -8.3050  -15.6140 O.2       1 NAD301      0.0000 
     41 N7N       -10.9620   -9.1510  -13.6680 N.am      1 NAD301      0.0000 
     42 C4N       -10.5200   -5.8550  -15.0330 C.ar      1 NAD301      0.0000 
     43 C5N        -9.9480   -4.6530  -14.7510 C.ar      1 NAD301      0.0000 
     44 C6N        -9.1980   -4.4640  -13.5980 C.ar      1 NAD301      0.0000 
     45 H          -7.5419    1.1930   -7.3349 H         1 NAD301      0.0000 
     46 H          -9.0139    0.2697   -7.6824 H         1 NAD301      0.0000 
     47 H         -10.3460    2.0731   -6.6580 H         1 NAD301      0.0000 
     48 H          -7.9197    3.4977   -6.8097 H         1 NAD301      0.0000 
     49 H          -7.2081    2.6762   -4.8808 H         1 NAD301      0.0000 
     50 H         -10.0950    2.4298   -4.1732 H         1 NAD301      0.0000 
     51 H          -6.6862    1.2791   -3.2200 H         1 NAD301      0.0000 
     52 H          -7.5579   -0.7539    0.8336 H         1 NAD301      0.0000 
     53 H          -9.0707   -1.0879    1.7422 H         1 NAD301      0.0000 
     54 H         -12.3343    0.2141   -0.7200 H         1 NAD301      0.0000 
     55 H          -9.3577   -1.9233   -9.3715 H         1 NAD301      0.0000 
     56 H          -7.6255   -1.6257   -9.1461 H         1 NAD301      0.0000 
     57 H          -8.3231   -3.9508   -8.8045 H         1 NAD301      0.0000 
     58 H          -6.0634   -3.2206  -10.1721 H         1 NAD301      0.0000 
     59 H          -7.0531   -3.6196  -12.1777 H         1 NAD301      0.0000 
     60 H          -8.0971   -6.0827  -10.8897 H         1 NAD301      0.0000 
     61 H          -9.4541   -7.4839  -12.3332 H         1 NAD301      0.0000 
     62 H         -11.4088  -10.0053  -13.9335 H         1 NAD301      0.0000 
     63 H         -10.4962   -8.9447  -12.8075 H         1 NAD301      0.0000 
     64 H         -11.0887   -5.9833  -15.8794 H         1 NAD301      0.0000 
     65 H         -10.0682   -3.8507  -15.4060 H         1 NAD301      0.0000 
     66 H          -8.7821   -3.5169  -13.4286 H         1 NAD301      0.0000 
     67 H         -10.2767    4.0595   -5.3587 H         1 NAD301      0.0000 
     68 H          -9.1788    4.1789   -3.6005 H         1 NAD301      0.0000 
     69 H          -5.5069   -4.8115   -8.8639 H         1 NAD301      0.0000 
     70 H          -5.6081   -5.7493  -11.1153 H         1 NAD301      0.0000 
@<TRIPOS>BOND
     1    2    1 ar   
     2    3    1 ar   
     3    4    1 1    
     4   23    1 1    
     5    5    4 1    
     6    6    5 1    
     7   45    5 1    
     8   46    5 1    
     9    7    6 1    
    10    8    6 1    
    11   47    6 1    
    12   12    7 1    
    13    9    8 1    
    14   10    8 1    
    15   48    8 1    
    16   67    9 1    
    17   11   10 1    
    18   12   10 1    
    19   49   10 1    
    20   68   11 1    
    21   13   12 1    
    22   50   12 1    
    23   14   13 1    
    24   22   13 1    
    25   15   14 2    
    26   51   14 1    
    27   16   15 1    
    28   17   16 ar   
    29   22   16 ar   
    30   18   17 1    
    31   19   17 ar   
    32   52   18 1    
    33   53   18 1    
    34   20   19 ar   
    35   21   20 ar   
    36   54   20 1    
    37   22   21 ar   
    38   24   23 1    
    39   25   24 ar   
    40   26   24 ar   
    41   27   24 1    
    42   28   27 1    
    43   29   28 1    
    44   55   28 1    
    45   56   28 1    
    46   30   29 1    
    47   31   29 1    
    48   57   29 1    
    49   35   30 1    
    50   32   31 1    
    51   33   31 1    
    52   58   31 1    
    53   69   32 1    
    54   34   33 1    
    55   35   33 1    
    56   59   33 1    
    57   70   34 1    
    58   36   35 1    
    59   60   35 1    
    60   37   36 ar   
    61   44   36 ar   
    62   38   37 ar   
    63   61   37 1    
    64   39   38 1    
    65   42   38 ar   
    66   40   39 2    
    67   41   39 am   
    68   62   41 1    
    69   63   41 1    
    70   43   42 ar   
    71   64   42 1    
    72   44   43 ar   
    73   65   43 1    
    74   66   44 1    
@<TRIPOS>SUBSTRUCTURE
     1 NAD301      1 GROUP   
@<TRIPOS>SET

