#    Name: 2j7p_GNP_2_INTS_M
#    Modification time : Tue Mar 25 19:27:21 2014

@<TRIPOS>MOLECULE
2j7p_GNP_2_INTS_M
   77     0    15     0     0
SMALL
NO_CHARGES


@<TRIPOS>ATOM
      1 Zn         18.8580   67.6590   76.0940 Zn        4 ZIC7        0.0000 
      2 Zn         17.8950   67.7520   76.4560 Zn       14 ZIL7        0.0000 
      3 Zn         19.8210   67.5660   75.7320 Zn        9 ZIP7        0.0000 
      4 NZ         15.8940   65.4720   76.5045 N.4       3 LYC4        0.0000 
      5 NZ         15.9600   66.5320   77.4300 N.4      13 LYL4        0.0000 
      6 NZ         15.8280   64.4120   75.5790 N.4       8 LYP4        0.0000 
      7 N          15.7860   65.6075   78.4850 N.am      2 SEC2        0.0000 
      8 N          15.9600   66.5320   77.4300 N.am     12 SEL2        0.0000 
      9 N          15.6120   64.6830   79.5400 N.am      7 SEP2        0.0000 
     10 N          15.8940   65.4720   76.5045 N.am      2 SEC2        0.0000 
     11 N          15.8280   64.4120   75.5790 N.am      7 SEP2        0.0000 
     12 NZ         18.1960   68.5435   79.5295 N.4       3 LYC4        0.0000 
     13 NZ         17.0950   68.3180   78.7060 N.4      13 LYL4        0.0000 
     14 NZ         20.2080   69.7520   80.3100 N.4       8 LYP4        0.0000 
     15 N          18.1960   68.5435   79.5295 N.am      2 SEC2        0.0000 
     16 N          17.0950   68.3180   78.7060 N.am     12 SEL2        0.0000 
     17 N          19.2970   68.7690   80.3530 N.am      7 SEP2        0.0000 
     18 N          16.0915   68.9130   79.3155 N.am      2 SEC2        0.0000 
     19 N          15.0880   69.5080   79.9250 N.am      7 SEP2        0.0000 
     20 NZ         16.9800   64.1580   76.2795 N.4       3 LYC4        0.0000 
     21 NZ         18.1320   63.9040   76.9800 N.4      13 LYL4        0.0000 
     22 N          18.5150   62.6345   77.4930 N.am      2 SEC2        0.0000 
     23 N          18.1320   63.9040   76.9800 N.am     12 SEL2        0.0000 
     24 N          18.8980   61.3650   78.0060 N.am      7 SEP2        0.0000 
     25 N          18.9905   63.0750   76.2465 N.am      2 SEC2        0.0000 
     26 N          19.8490   62.2460   75.5130 N.am      7 SEP2        0.0000 
     27 N          16.9800   64.1580   76.2795 N.am      2 SEC2        0.0000 
     28 Zn         19.8725   66.5905   76.0455 Zn        4 ZIC7        0.0000 
     29 Zn         19.9240   65.6150   76.3590 Zn       14 ZIL7        0.0000 
     30 N          20.7620   65.0095   75.4005 N.am      2 SEC2        0.0000 
     31 N          19.9240   65.6150   76.3590 N.am     12 SEL2        0.0000 
     32 N          21.6000   64.4040   74.4420 N.am      7 SEP2        0.0000 
     33 N          23.3000   63.9305   76.6095 N.am      2 SEC2        0.0000 
     34 N          22.5190   64.1890   77.7230 N.am     12 SEL2        0.0000 
     35 N          24.0810   63.6720   75.4960 N.am      7 SEP2        0.0000 
     36 N          23.6730   63.6965   77.9495 N.am      2 SEC2        0.0000 
     37 N          24.8270   63.2040   78.1760 N.am      7 SEP2        0.0000 
     38 N          22.8830   66.8380   78.9730 N.am      2 SEC2        0.0000 
     39 N          21.5330   66.0100   79.2840 N.am     12 SEL2        0.0000 
     40 N          24.2330   67.6660   78.6620 N.am      7 SEP2        0.0000 
     41 CA         20.7255   62.3985   79.4630 C.3       5 GLC5        0.0000 
     42 CA         21.1260   63.6200   81.2660 C.3      15 GLL5        0.0000 
     43 CA         20.3250   61.1770   77.6600 C.3      10 GLP5        0.0000 
     44 N          24.1410   62.7490   84.5165 N.am      2 SEC2        0.0000 
     45 N          23.8710   63.8050   83.4930 N.am     12 SEL2        0.0000 
     46 N          24.4110   61.6930   85.5400 N.am      7 SEP2        0.0000 
     47 CA         24.7235   62.3865   79.4170 C.3       5 GLC5        0.0000 
     48 CA         24.4290   62.6200   81.6150 C.3      15 GLL5        0.0000 
     49 CA         25.0180   62.1530   77.2190 C.3      10 GLP5        0.0000 
     50 CA         21.7555   60.1755   81.9240 C.3       5 GLC5        0.0000 
     51 CA         23.6540   61.3570   81.8930 C.3      15 GLL5        0.0000 
     52 CA         19.8570   58.9940   81.9550 C.3      10 GLP5        0.0000 
     53 CA         22.8850   61.2305   83.5315 C.3       5 GLC5        0.0000 
     54 CA         22.1160   61.1040   85.1700 C.3      10 GLP5        0.0000 
     55 N          23.1105   55.2305   80.0855 N.am      2 SEC2        0.0000 
     56 N          24.5020   55.8680   79.7650 N.am     12 SEL2        0.0000 
     57 N          21.7190   54.5930   80.4060 N.am      7 SEP2        0.0000 
     58 O          25.0620   55.0565   82.4455 O.2       1 ALC1        0.0000 
     59 O          24.9810   56.4200   81.9510 O.2      11 ALL1        0.0000 
     60 O          25.1430   53.6930   82.9400 O.2       6 ALP1        0.0000 
     61 O          25.2865   55.3065   83.5695 O.2       1 ALC1        0.0000 
     62 O          25.4300   56.9200   84.1990 O.2      11 ALL1        0.0000 
     63 O          26.0710   55.6260   84.2615 O.2       1 ALC1        0.0000 
     64 O          26.7120   54.3320   84.3240 O.2       6 ALP1        0.0000 
     65 CA         20.0922   63.6038   83.0210 C.3       5 GLC5        0.0000 
     66 CA         22.1070   63.0890   82.3100 C.3      15 GLL5        0.0000 
     67 CA         18.5680   63.8530   84.2540 C.3      10 GLP5        0.0000 
     68 CA         22.4585   62.2437   83.6908 C.3       5 GLC5        0.0000 
     69 CA         24.7445   64.9745   82.1190 C.3       5 GLC5        0.0000 
     70 CA         23.4950   63.6780   82.1130 C.3      15 GLL5        0.0000 
     71 CA         25.5270   66.8000   82.3740 C.3      10 GLP5        0.0000 
     72 CA         22.5890   57.6685   81.4860 C.3       5 GLC5        0.0000 
     73 CA         24.1870   58.9910   81.4740 C.3      15 GLL5        0.0000 
     74 CA         21.0170   56.8040   82.0480 C.3      10 GLP5        0.0000 
     75 CA         26.2325   58.7405   81.3180 C.3       5 GLC5        0.0000 
     76 CA         24.1350   58.0750   80.3740 C.3      15 GLL5        0.0000 
     77 CA         28.3040   58.9480   81.7120 C.3      10 GLP5        0.0000 
@<TRIPOS>BOND
@<TRIPOS>SUBSTRUCTURE
     1 ALC1       58 GROUP        1 X    ALC  0     ROOT ALC X 1
     2 SEC2        7 GROUP        1 X    SEC  0     **** SEC X 2
     3 LYC4        4 GROUP        1 X    LYC  0     **** LYC X 4
     4 ZIC7        1 GROUP        1 X    ZIC  0     **** ZIC X 5
     5 GLC5       41 GROUP        1 X    GLC  0     **** GLC X 6
     6 ALP1       60 GROUP        1 Y    ALP  0     ROOT ALP Y 8
     7 SEP2        9 GROUP        1 Y    SEP  0     **** SEP Y 9
     8 LYP4        6 GROUP        1 Y    LYP  0     **** LYP Y 11
     9 ZIP7        3 GROUP        1 Y    ZIP  0     **** ZIP Y 12
    10 GLP5       43 GROUP        1 Y    GLP  0     **** GLP Y 13
    11 ALL1       59 GROUP        1 Z    ALL  0     ROOT ALL Z 15
    12 SEL2        8 GROUP        1 Z    SEL  0     **** SEL Z 16
    13 LYL4        5 GROUP        1 Z    LYL  0     **** LYL Z 18
    14 ZIL7        2 GROUP        1 Z    ZIL  0     **** ZIL Z 19
    15 GLL5       42 GROUP        1 Z    GLL  0     **** GLL Z 20
@<TRIPOS>SET

