#    Name: 2j7p_GNP_2_ligand
#    Modification time : Tue Mar 25 19:27:21 2014

@<TRIPOS>MOLECULE
2j7p_GNP_2_ligand
   44    46     1     0     0
SMALL
NO_CHARGES


@<TRIPOS>ATOM
      1 PG         17.2560   67.2370   77.7060 P.3       1 GNP1400     0.0000 
      2 O1G        17.8950   67.7520   76.4560 O.co2     1 GNP1400     0.0000 
      3 O2G        15.9600   66.5320   77.4300 O.co2     1 GNP1400     0.0000 
      4 O3G        17.0950   68.3180   78.7060 O.co2     1 GNP1400     0.0000 
      5 N3B        18.3140   66.1050   78.3580 N.4       1 GNP1400     0.0000 
      6 PB         19.1020   64.9720   77.4090 P.3       1 GNP1400     0.0000 
      7 O1B        18.1320   63.9040   76.9800 O.co2     1 GNP1400     0.0000 
      8 O2B        19.9240   65.6150   76.3590 O.co2     1 GNP1400     0.0000 
      9 O3A        20.0760   64.2060   78.4320 O.3       1 GNP1400     0.0000 
     10 PA         21.5810   64.5970   78.8140 P.3       1 GNP1400     0.0000 
     11 O1A        22.5190   64.1890   77.7230 O.co2     1 GNP1400     0.0000 
     12 O2A        21.5330   66.0100   79.2840 O.co2     1 GNP1400     0.0000 
     13 O5'        21.7760   63.5300   79.9950 O.3       1 GNP1400     0.0000 
     14 C5'        21.1260   63.6200   81.2660 C.3       1 GNP1400     0.0000 
     15 C4'        22.1070   63.0890   82.3100 C.3       1 GNP1400     0.0000 
     16 O4'        22.2560   61.6740   82.1500 O.3       1 GNP1400     0.0000 
     17 C3'        23.4950   63.6780   82.1130 C.3       1 GNP1400     0.0000 
     18 O3'        23.8710   63.8050   83.4930 O.3       1 GNP1400     0.0000 
     19 C2'        24.4290   62.6200   81.6150 C.3       1 GNP1400     0.0000 
     20 O2'        25.8320   62.6800   81.9490 O.3       1 GNP1400     0.0000 
     21 C1'        23.6540   61.3570   81.8930 C.3       1 GNP1400     0.0000 
     22 N9         23.7950   60.1650   81.0430 N.pl3     1 GNP1400     0.0000 
     23 C8         23.4540   60.0220   79.7450 C.2       1 GNP1400     0.0000 
     24 N7         23.6870   58.7610   79.3140 N.2       1 GNP1400     0.0000 
     25 C5         24.1350   58.0750   80.3740 C.2       1 GNP1400     0.0000 
     26 C6         24.5450   56.7090   80.7000 C.2       1 GNP1400     0.0000 
     27 O6         24.5020   55.8680   79.7650 O.2       1 GNP1400     0.0000 
     28 N1         24.9810   56.4200   81.9510 N.am      1 GNP1400     0.0000 
     29 C2         25.0270   57.3160   82.9650 C.2       1 GNP1400     0.0000 
     30 N2         25.4300   56.9200   84.1990 N.pl3     1 GNP1400     0.0000 
     31 N3         24.6560   58.6010   82.7850 N.2       1 GNP1400     0.0000 
     32 C4         24.1870   58.9910   81.4740 C.2       1 GNP1400     0.0000 
     33 H          20.2288   63.0114   81.3078 H         1 GNP1400     0.0000 
     34 H          20.8809   64.6445   81.5257 H         1 GNP1400     0.0000 
     35 H          21.7620   63.3350   83.2847 H         1 GNP1400     0.0000 
     36 H          23.4957   64.5204   81.6099 H         1 GNP1400     0.0000 
     37 H          24.3250   62.7194   80.4527 H         1 GNP1400     0.0000 
     38 H          24.0433   61.0206   82.9576 H         1 GNP1400     0.0000 
     39 H          23.0843   60.7396   79.1843 H         1 GNP1400     0.0000 
     40 H          25.3087   55.4223   82.1481 H         1 GNP1400     0.0000 
     41 H          25.4679   57.6328   84.8993 H         1 GNP1400     0.0000 
     42 H          25.6534   55.9504   84.2988 H         1 GNP1400     0.0000 
     43 H          24.8704   63.8382   83.4868 H         1 GNP1400     0.0000 
     44 H          26.1258   61.7257   82.0043 H         1 GNP1400     0.0000 
@<TRIPOS>BOND
     1    2    1 ar   
     2    3    1 ar   
     3    4    1 ar   
     4    5    1 1    
     5    6    5 1    
     6    7    6 ar   
     7    8    6 ar   
     8    9    6 1    
     9   10    9 1    
    10   11   10 ar   
    11   12   10 ar   
    12   13   10 1    
    13   14   13 1    
    14   15   14 1    
    15   33   14 1    
    16   34   14 1    
    17   16   15 1    
    18   17   15 1    
    19   35   15 1    
    20   21   16 1    
    21   18   17 1    
    22   19   17 1    
    23   36   17 1    
    24   43   18 1    
    25   20   19 1    
    26   21   19 1    
    27   37   19 1    
    28   44   20 1    
    29   22   21 1    
    30   38   21 1    
    31   23   22 1    
    32   32   22 1    
    33   24   23 2    
    34   39   23 1    
    35   25   24 1    
    36   26   25 1    
    37   32   25 2    
    38   27   26 2    
    39   28   26 am   
    40   29   28 1    
    41   40   28 1    
    42   30   29 1    
    43   31   29 2    
    44   41   30 1    
    45   42   30 1    
    46   32   31 1    
@<TRIPOS>SUBSTRUCTURE
     1 GNP1400     1 GROUP   
@<TRIPOS>SET

