#    Name: 2d1o_FA4_2_INTS_M
#    Modification time : Tue Mar 25 01:30:20 2014

@<TRIPOS>MOLECULE
2d1o_FA4_2_INTS_M
   80     0    12     0     0
SMALL
NO_CHARGES


@<TRIPOS>ATOM
      1 CA         14.8615    7.9475   25.5445 C.3       4 GLC5        0.0000 
      2 CA         16.0930    6.5760   24.7140 C.3      12 GLL5        0.0000 
      3 CA         13.6300    9.3190   26.3750 C.3       8 GLP5        0.0000 
      4 CA         13.5705    9.8240   24.3390 C.3       4 GLC5        0.0000 
      5 CA         13.5110   10.3290   22.3030 C.3      12 GLL5        0.0000 
      6 CA         10.9355   11.4560   21.8075 C.3       4 GLC5        0.0000 
      7 CA         13.0310   11.3810   21.3080 C.3      12 GLL5        0.0000 
      8 CA          8.8400   11.5310   22.3070 C.3       8 GLP5        0.0000 
      9 CA         13.3620   13.5455   22.9795 C.3       4 GLC5        0.0000 
     10 CA         13.8270   12.6780   21.4020 C.3      12 GLL5        0.0000 
     11 CA         12.8970   14.4130   24.5570 C.3       8 GLP5        0.0000 
     12 CA         13.0400   14.6755   22.1870 C.3       4 GLC5        0.0000 
     13 CA         13.3590   13.7300   20.4030 C.3      12 GLL5        0.0000 
     14 CA         12.7210   15.6210   23.9710 C.3       8 GLP5        0.0000 
     15 CA         12.2030   14.2485   16.8595 C.3       4 GLC5        0.0000 
     16 CA         13.6940   15.4770   17.3600 C.3      12 GLL5        0.0000 
     17 CA         10.7120   13.0200   16.3590 C.3       8 GLP5        0.0000 
     18 CA         12.4535   17.9085   15.7630 C.3       4 GLC5        0.0000 
     19 CA         13.8410   16.9190   16.8750 C.3      12 GLL5        0.0000 
     20 CA         11.0660   18.8980   14.6510 C.3       8 GLP5        0.0000 
     21 CA         11.6500   20.0515   17.8865 C.3       4 GLC5        0.0000 
     22 CA         13.1710   19.6530   19.3850 C.3      12 GLL5        0.0000 
     23 CA         10.1290   20.4500   16.3880 C.3       8 GLP5        0.0000 
     24 N          10.7920   17.4700   16.8580 N.am      2 SEC2        0.0000 
     25 N          11.7670   17.7010   17.8130 N.am     10 SEL2        0.0000 
     26 N           9.8170   17.2390   15.9030 N.am      6 SEP2        0.0000 
     27 N          10.0460   17.7090   17.9935 N.am      2 SEC2        0.0000 
     28 N           8.3250   17.7170   18.1740 N.am      6 SEP2        0.0000 
     29 O          10.8040   19.2100   20.6280 O.2       1 ALC1        0.0000 
     30 O          11.9580   19.0910   21.3980 O.2       9 ALL1        0.0000 
     31 O           9.6500   19.3290   19.8580 O.2       5 ALP1        0.0000 
     32 CA         12.6020   21.6835   16.9250 C.3       4 GLC5        0.0000 
     33 CA         13.1940   22.1730   18.9340 C.3      12 GLL5        0.0000 
     34 CA         12.0100   21.1940   14.9160 C.3       8 GLP5        0.0000 
     35 CA         18.9145   11.2945   23.4560 C.3       4 GLC5        0.0000 
     36 CA         17.2330    9.9030   23.1240 C.3      12 GLL5        0.0000 
     37 CA         20.5960   12.6860   23.7880 C.3       8 GLP5        0.0000 
     38 O          17.5015   10.1245   20.7465 O.2       1 ALC1        0.0000 
     39 O          18.1220    9.7010   21.9720 O.2       9 ALL1        0.0000 
     40 O          16.8810   10.5480   19.5210 O.2       5 ALP1        0.0000 
     41 O          21.3855    8.8525   22.3330 O.2       1 ALC1        0.0000 
     42 O          20.1600    8.9390   21.1230 O.2       9 ALL1        0.0000 
     43 O          22.6110    8.7660   23.5430 O.2       5 ALP1        0.0000 
     44 O          21.2925    9.0360   23.4700 O.2       1 ALC1        0.0000 
     45 O          19.9740    9.3060   23.3970 O.2       9 ALL1        0.0000 
     46 O          19.5035    9.8790   24.6200 O.2       1 ALC1        0.0000 
     47 O          19.0330   10.4520   25.8430 O.2       5 ALP1        0.0000 
     48 Zn         12.8685   18.4340   22.9825 Zn        3 ZIC7        0.0000 
     49 Zn         11.7970   18.5730   22.6810 Zn       11 ZIL7        0.0000 
     50 Zn         13.9400   18.2950   23.2840 Zn        7 ZIP7        0.0000 
     51 O          10.3650   18.5040   23.1350 O.2       1 ALC1        0.0000 
     52 O          11.7970   18.5730   22.6810 O.2       9 ALL1        0.0000 
     53 O           8.9330   18.4350   23.5890 O.2       5 ALP1        0.0000 
     54 O          10.9120   17.6450   22.7195 O.2       1 ALC1        0.0000 
     55 O          10.0270   16.7170   22.7580 O.2       5 ALP1        0.0000 
     56 Zn         14.0555   18.4285   22.2855 Zn        3 ZIC7        0.0000 
     57 Zn         14.1710   18.5620   21.2870 Zn       11 ZIL7        0.0000 
     58 CA         16.1630    4.6875   24.6032 C.3       4 GLC5        0.0000 
     59 CA         14.8470    6.3220   24.0550 C.3      12 GLL5        0.0000 
     60 CA         16.8560    2.9260   24.8220 C.3       8 GLP5        0.0000 
     61 CA         12.8085    6.1575   23.8620 C.3       4 GLC5        0.0000 
     62 CA         11.0190    5.5380   24.1590 C.3       8 GLP5        0.0000 
     63 CA         14.6225    5.0920   22.2720 C.3       4 GLC5        0.0000 
     64 CA         14.3490    7.2320   23.0750 C.3      12 GLL5        0.0000 
     65 CA         14.6470    3.4070   20.9790 C.3       8 GLP5        0.0000 
     66 CA         14.2358    8.4578   24.7620 C.3       4 GLC5        0.0000 
     67 CA         12.5935   12.0985   23.3618 C.3       4 GLC5        0.0000 
     68 CA         11.9160   13.3420   24.9180 C.3       8 GLP5        0.0000 
     69 CA         12.7715    9.8190   20.0351 C.3       4 GLC5        0.0000 
     70 CA         12.0180    9.0260   18.4170 C.3       8 GLP5        0.0000 
     71 CA         13.6762   12.2248   18.5258 C.3       4 GLC5        0.0000 
     72 CA         13.5430   10.6850   17.2670 C.3       8 GLP5        0.0000 
     73 CA         16.0607   14.9780   20.0030 C.3       4 GLC5        0.0000 
     74 CA         14.2600   13.7990   19.1660 C.3      12 GLL5        0.0000 
     75 CA         17.7760   15.4470   21.0860 C.3       8 GLP5        0.0000 
     76 CA         16.0367   13.5505   18.7570 C.3       4 GLC5        0.0000 
     77 CA         14.4310   15.2190   18.6740 C.3      12 GLL5        0.0000 
     78 CA         17.7280   12.5920   18.5940 C.3       8 GLP5        0.0000 
     79 CA         16.7444    9.6714   25.2789 C.3       4 GLC5        0.0000 
     80 CA         16.5690   10.2820   27.0480 C.3       8 GLP5        0.0000 
@<TRIPOS>BOND
@<TRIPOS>SUBSTRUCTURE
     1 ALC1       29 GROUP        1 X    ALC  0     ROOT ALC X 1
     2 SEC2       24 GROUP        1 X    SEC  0     **** SEC X 2
     3 ZIC7       48 GROUP        1 X    ZIC  0     **** ZIC X 5
     4 GLC5        1 GROUP        1 X    GLC  0     **** GLC X 6
     5 ALP1       31 GROUP        1 Y    ALP  0     ROOT ALP Y 8
     6 SEP2       26 GROUP        1 Y    SEP  0     **** SEP Y 9
     7 ZIP7       50 GROUP        1 Y    ZIP  0     **** ZIP Y 12
     8 GLP5        3 GROUP        1 Y    GLP  0     **** GLP Y 13
     9 ALL1       30 GROUP        1 Z    ALL  0     ROOT ALL Z 15
    10 SEL2       25 GROUP        1 Z    SEL  0     **** SEL Z 16
    11 ZIL7       49 GROUP        1 Z    ZIL  0     **** ZIL Z 19
    12 GLL5        2 GROUP        1 Z    GLL  0     **** GLL Z 20
@<TRIPOS>SET

