#    Name: 2d1o_FA4_2_ligand
#    Modification time : Tue Mar 25 01:30:20 2014

@<TRIPOS>MOLECULE
2d1o_FA4_2_ligand
   77    77     1     0     0
SMALL
NO_CHARGES


@<TRIPOS>ATOM
      1 C1         14.8470    6.3220   24.0550 C.ar      1 FA41002     0.0000 
      2 C2         14.3490    7.2320   23.0750 C.ar      1 FA41002     0.0000 
      3 C3         15.0850    8.4160   22.7330 C.ar      1 FA41002     0.0000 
      4 C4         16.3630    8.6830   23.4020 C.ar      1 FA41002     0.0000 
      5 C5         16.8500    7.7540   24.3890 C.ar      1 FA41002     0.0000 
      6 C6         16.0930    6.5760   24.7140 C.ar      1 FA41002     0.0000 
      7 C7         14.5270    9.3570   21.6940 C.3       1 FA41002     0.0000 
      8 C8         13.5110   10.3290   22.3030 C.3       1 FA41002     0.0000 
      9 C9         13.0310   11.3810   21.3080 C.3       1 FA41002     0.0000 
     10 C10        13.8270   12.6780   21.4020 C.3       1 FA41002     0.0000 
     11 C11        13.3590   13.7300   20.4030 C.3       1 FA41002     0.0000 
     12 C12        14.2600   13.7990   19.1660 C.3       1 FA41002     0.0000 
     13 C13        14.4310   15.2190   18.6740 C.3       1 FA41002     0.0000 
     14 C14        13.6940   15.4770   17.3600 C.3       1 FA41002     0.0000 
     15 C15        13.8410   16.9190   16.8750 C.3       1 FA41002     0.0000 
     16 C16        12.9890   17.8210   17.7690 C.2       1 FA41002     0.0000 
     17 N17        13.7520   18.6980   18.4610 N.am      1 FA41002     0.0000 
     18 C18        13.1710   19.6530   19.3850 C.3       1 FA41002     0.0000 
     19 O19        11.7670   17.7010   17.8130 O.2       1 FA41002     0.0000 
     20 C20        14.0020   20.9420   19.3600 C.3       1 FA41002     0.0000 
     21 C21        13.1590   19.0410   20.7980 C.2       1 FA41002     0.0000 
     22 N22        11.9580   19.0910   21.3980 N.am      1 FA41002     0.0000 
     23 C23        13.1940   22.1730   18.9340 C.3       1 FA41002     0.0000 
     24 C24        14.0380   23.4530   18.9220 C.3       1 FA41002     0.0000 
     25 C25        13.5660   24.4770   17.8810 C.3       1 FA41002     0.0000 
     26 N26        14.3830   25.6910   17.8940 N.4       1 FA41002     0.0000 
     27 C27        17.2330    9.9030   23.1240 C.3       1 FA41002     0.0000 
     28 N28        18.1220    9.7010   21.9720 N.pl3     1 FA41002     0.0000 
     29 C29        19.4240    9.3150   22.1690 C.cat     1 FA41002     0.0000 
     30 N30        20.1600    8.9390   21.1230 N.pl3     1 FA41002     0.0000 
     31 N31        19.9740    9.3060   23.3970 N.pl3     1 FA41002     0.0000 
     32 O32        11.7970   18.5730   22.6810 O.3       1 FA41002     0.0000 
     33 O33        14.1710   18.5620   21.2870 O.2       1 FA41002     0.0000 
     34 H          14.3147    5.4860   24.2889 H         1 FA41002     0.0000 
     35 H          13.4611    7.0424   22.6106 H         1 FA41002     0.0000 
     36 H          17.7325    7.9331   24.8569 H         1 FA41002     0.0000 
     37 H          16.4427    5.9271   25.4092 H         1 FA41002     0.0000 
     38 H          14.0354    8.7838   20.9032 H         1 FA41002     0.0000 
     39 H          15.3398    9.9337   21.2441 H         1 FA41002     0.0000 
     40 H          13.9702   10.8301   23.1639 H         1 FA41002     0.0000 
     41 H          12.6484    9.7587   22.6688 H         1 FA41002     0.0000 
     42 H          11.9721   11.5950   21.4952 H         1 FA41002     0.0000 
     43 H          13.1176   10.9792   20.2916 H         1 FA41002     0.0000 
     44 H          14.8883   12.4613   21.2244 H         1 FA41002     0.0000 
     45 H          13.7355   13.0823   22.4184 H         1 FA41002     0.0000 
     46 H          13.3478   14.7107   20.8900 H         1 FA41002     0.0000 
     47 H          12.3369   13.4976   20.0860 H         1 FA41002     0.0000 
     48 H          13.8190   13.1868   18.3736 H         1 FA41002     0.0000 
     49 H          15.2379   13.3777   19.4177 H         1 FA41002     0.0000 
     50 H          15.4986   15.4294   18.5284 H         1 FA41002     0.0000 
     51 H          14.0553   15.9168   19.4336 H         1 FA41002     0.0000 
     52 H          12.6295   15.2518   17.4963 H         1 FA41002     0.0000 
     53 H          14.0843   14.7991   16.5914 H         1 FA41002     0.0000 
     54 H          13.4949   16.9930   15.8559 H         1 FA41002     0.0000 
     55 H          14.8751   17.2183   16.9441 H         1 FA41002     0.0000 
     56 H          14.7847   18.7211   18.3570 H         1 FA41002     0.0000 
     57 H          12.1629   19.8889   19.1080 H         1 FA41002     0.0000 
     58 H          14.8437   20.8102   18.6677 H         1 FA41002     0.0000 
     59 H          14.4187   21.1170   20.3604 H         1 FA41002     0.0000 
     60 H          11.1371   19.5106   20.9247 H         1 FA41002     0.0000 
     61 H          12.3541   22.3055   19.6236 H         1 FA41002     0.0000 
     62 H          12.7870   22.0042   17.9319 H         1 FA41002     0.0000 
     63 H          15.0830   23.1899   18.7145 H         1 FA41002     0.0000 
     64 H          14.0018   23.9141   19.9172 H         1 FA41002     0.0000 
     65 H          12.5119   24.7137   18.0923 H         1 FA41002     0.0000 
     66 H          13.5993   23.9947   16.8920 H         1 FA41002     0.0000 
     67 H          17.8208   10.1214   24.0301 H         1 FA41002     0.0000 
     68 H          16.5711   10.7671   22.9524 H         1 FA41002     0.0000 
     69 H          17.7311    9.8585   21.0439 H         1 FA41002     0.0000 
     70 H          21.0837    8.6157   21.3284 H         1 FA41002     0.0000 
     71 H          19.7221    9.0141   20.2271 H         1 FA41002     0.0000 
     72 H          20.9316    9.0225   23.4482 H         1 FA41002     0.0000 
     73 H          19.3761    9.5837   24.1490 H         1 FA41002     0.0000 
     74 H          15.3422   25.4953   17.6900 H         1 FA41002     0.0000 
     75 H          14.0694   26.3570   17.2172 H         1 FA41002     0.0000 
     76 H          14.3595   26.1450   18.7847 H         1 FA41002     0.0000 
     77 H          10.8408   18.2834   22.7249 H         1 FA41002     0.0000 
@<TRIPOS>BOND
     1    2    1 ar   
     2    6    1 ar   
     3   34    1 1    
     4    3    2 ar   
     5   35    2 1    
     6    4    3 ar   
     7    7    3 1    
     8    5    4 ar   
     9   27    4 1    
    10    6    5 ar   
    11   36    5 1    
    12   37    6 1    
    13    8    7 1    
    14   38    7 1    
    15   39    7 1    
    16    9    8 1    
    17   40    8 1    
    18   41    8 1    
    19   10    9 1    
    20   42    9 1    
    21   43    9 1    
    22   11   10 1    
    23   44   10 1    
    24   45   10 1    
    25   12   11 1    
    26   46   11 1    
    27   47   11 1    
    28   13   12 1    
    29   48   12 1    
    30   49   12 1    
    31   14   13 1    
    32   50   13 1    
    33   51   13 1    
    34   15   14 1    
    35   52   14 1    
    36   53   14 1    
    37   16   15 1    
    38   54   15 1    
    39   55   15 1    
    40   17   16 am   
    41   19   16 2    
    42   18   17 1    
    43   56   17 1    
    44   20   18 1    
    45   21   18 1    
    46   57   18 1    
    47   23   20 1    
    48   58   20 1    
    49   59   20 1    
    50   22   21 am   
    51   33   21 2    
    52   32   22 1    
    53   60   22 1    
    54   24   23 1    
    55   61   23 1    
    56   62   23 1    
    57   25   24 1    
    58   63   24 1    
    59   64   24 1    
    60   26   25 1    
    61   65   25 1    
    62   66   25 1    
    63   74   26 1    
    64   75   26 1    
    65   76   26 1    
    66   28   27 1    
    67   67   27 1    
    68   68   27 1    
    69   29   28 ar   
    70   69   28 1    
    71   30   29 ar   
    72   31   29 ar   
    73   70   30 1    
    74   71   30 1    
    75   72   31 1    
    76   73   31 1    
    77   77   32 1    
@<TRIPOS>SUBSTRUCTURE
     1 FA41002     1 GROUP   
@<TRIPOS>SET

