#    Name: 2wms_ZYS_1_INTS_M
#    Modification time : Tue Mar 25 04:29:29 2014

@<TRIPOS>MOLECULE
2wms_ZYS_1_INTS_M
   39     0     9     0     0
SMALL
NO_CHARGES


@<TRIPOS>ATOM
      1 CA         16.0300   -3.8970    4.5965 C.3       3 GLC5        0.0000 
      2 CA         16.4710   -3.0180    6.0340 C.3       9 GLL5        0.0000 
      3 CA         15.5890   -4.7760    3.1590 C.3       6 GLP5        0.0000 
      4 CA         15.4210   -1.1870   10.0315 C.3       3 GLC5        0.0000 
      5 CA         16.1790   -2.0560    8.3300 C.3       9 GLL5        0.0000 
      6 CA         14.6630   -0.3180   11.7330 C.3       6 GLP5        0.0000 
      7 O          15.8430    0.4820    6.2085 O.2       1 ALC1        0.0000 
      8 O          15.3910   -0.8620    6.3720 O.2       7 ALL1        0.0000 
      9 O          16.2950    1.8260    6.0450 O.2       4 ALP1        0.0000 
     10 CA         13.4465   -3.1925    5.6610 C.3       3 GLC5        0.0000 
     11 CA         13.6260   -2.3860    7.6410 C.3       9 GLL5        0.0000 
     12 CA         13.2670   -3.9990    3.6810 C.3       6 GLP5        0.0000 
     13 N          13.2205    1.1475    5.8645 N.am      2 SEC2        0.0000 
     14 N          13.0730   -0.3740    6.3140 N.am      8 SEL2        0.0000 
     15 N          13.3680    2.6690    5.4150 N.am      5 SEP2        0.0000 
     16 CA         11.7125    0.7190    5.3465 C.3       3 GLC5        0.0000 
     17 CA         11.9030   -0.8380    6.7920 C.3       9 GLL5        0.0000 
     18 CA         11.5220    2.2760    3.9010 C.3       6 GLP5        0.0000 
     19 O          10.2620    1.0755    6.2780 O.2       1 ALC1        0.0000 
     20 O          10.7380   -0.2560    6.5380 O.2       7 ALL1        0.0000 
     21 O           9.7860    2.4070    6.0180 O.2       4 ALP1        0.0000 
     22 CA         11.1310   -3.6800    6.3890 C.3       3 GLC5        0.0000 
     23 CA         12.0140   -1.9900    7.5630 C.3       9 GLL5        0.0000 
     24 CA         10.2480   -5.3700    5.2150 C.3       6 GLP5        0.0000 
     25 CA         15.6900   -1.3830    4.7248 C.3       3 GLC5        0.0000 
     26 CA         14.9150   -0.3870    3.0000 C.3       6 GLP5        0.0000 
     27 CA         18.0217   -0.5060    8.1427 C.3       3 GLC5        0.0000 
     28 CA         16.4590   -1.7400    6.8650 C.3       9 GLL5        0.0000 
     29 CA         19.3920    0.7030    8.7220 C.3       6 GLP5        0.0000 
     30 CA         10.8123   -1.3745    5.6692 C.3       3 GLC5        0.0000 
     31 CA          9.6660   -1.3350    4.1610 C.3       6 GLP5        0.0000 
     32 CA         12.5308   -0.6370    8.7545 C.3       3 GLC5        0.0000 
     33 CA         12.7000    0.2390   10.3120 C.3       6 GLP5        0.0000 
     34 CA         12.8985   -7.6298    9.1163 C.3       3 GLC5        0.0000 
     35 CA         11.7810   -6.2110   10.6370 C.3       9 GLL5        0.0000 
     36 CA         13.5130   -9.3650    7.9540 C.3       6 GLP5        0.0000 
     37 CA          9.5481   -5.4777    8.4614 C.3       3 GLC5        0.0000 
     38 CA         10.4850   -5.7220   10.5860 C.3       9 GLL5        0.0000 
     39 CA          8.5060   -5.9520    6.9000 C.3       6 GLP5        0.0000 
@<TRIPOS>BOND
@<TRIPOS>SUBSTRUCTURE
     1 ALC1        7 GROUP        1 X    ALC  0     ROOT ALC X 1
     2 SEC2       13 GROUP        1 X    SEC  0     **** SEC X 2
     3 GLC5        1 GROUP        1 X    GLC  0     **** GLC X 6
     4 ALP1        9 GROUP        1 Y    ALP  0     ROOT ALP Y 8
     5 SEP2       15 GROUP        1 Y    SEP  0     **** SEP Y 9
     6 GLP5        3 GROUP        1 Y    GLP  0     **** GLP Y 13
     7 ALL1        8 GROUP        1 Z    ALL  0     ROOT ALL Z 15
     8 SEL2       14 GROUP        1 Z    SEL  0     **** SEL Z 16
     9 GLL5        2 GROUP        1 Z    GLL  0     **** GLL Z 20
@<TRIPOS>SET

