#    Name: 2wms_ZYS_1_ligand
#    Modification time : Tue Mar 25 04:29:29 2014

@<TRIPOS>MOLECULE
2wms_ZYS_1_ligand
   36    37     1     0     0
SMALL
NO_CHARGES


@<TRIPOS>ATOM
      1 CAA        16.4710   -3.0180    6.0340 C.3       1 ZYS1271     0.0000 
      2 CAS        16.4590   -1.7400    6.8650 C.3       1 ZYS1271     0.0000 
      3 CAB        17.7890   -1.0080    6.7290 C.3       1 ZYS1271     0.0000 
      4 CAC        16.1790   -2.0560    8.3300 C.3       1 ZYS1271     0.0000 
      5 NAL        15.3910   -0.8620    6.3720 N.pl3     1 ZYS1271     0.0000 
      6 CAQ        14.1280   -1.1010    6.6990 C.2       1 ZYS1271     0.0000 
      7 SAM        13.6260   -2.3860    7.6410 S.3       1 ZYS1271     0.0000 
      8 NAK        13.0730   -0.3740    6.3140 N.2       1 ZYS1271     0.0000 
      9 CAO        11.9030   -0.8380    6.7920 C.2       1 ZYS1271     0.0000 
     10 NAD        10.7380   -0.2560    6.5380 N.pl3     1 ZYS1271     0.0000 
     11 CAR        12.0140   -1.9900    7.5630 C.2       1 ZYS1271     0.0000 
     12 CAN        10.8760   -2.7340    8.2530 C.2       1 ZYS1271     0.0000 
     13 OAE         9.7180   -2.3470    8.1240 O.2       1 ZYS1271     0.0000 
     14 CAP        11.1990   -3.9620    9.1080 C.ar      1 ZYS1271     0.0000 
     15 CAI        12.4960   -4.4570    9.1530 C.ar      1 ZYS1271     0.0000 
     16 CAG        12.7870   -5.5780    9.9200 C.ar      1 ZYS1271     0.0000 
     17 CAF        11.7810   -6.2110   10.6370 C.ar      1 ZYS1271     0.0000 
     18 CAH        10.4850   -5.7220   10.5860 C.ar      1 ZYS1271     0.0000 
     19 CAJ        10.1920   -4.6080    9.8110 C.ar      1 ZYS1271     0.0000 
     20 H          15.6870   -0.0770    5.7760 H         1 ZYS1271     0.0000 
     21 H          10.7561    0.7385    6.4348 H         1 ZYS1271     0.0000 
     22 H           9.9471   -0.8644    6.4728 H         1 ZYS1271     0.0000 
     23 H          13.2424   -3.9927    8.6175 H         1 ZYS1271     0.0000 
     24 H          13.7503   -5.9395    9.9564 H         1 ZYS1271     0.0000 
     25 H          11.9976   -7.0408   11.2045 H         1 ZYS1271     0.0000 
     26 H           9.7381   -6.1847   11.1231 H         1 ZYS1271     0.0000 
     27 H           9.2234   -4.2600    9.7579 H         1 ZYS1271     0.0000 
     28 H          16.6218   -2.8287    5.0637 H         1 ZYS1271     0.0000 
     29 H          17.1938   -3.6443    6.3263 H         1 ZYS1271     0.0000 
     30 H          15.6062   -3.5151    6.1047 H         1 ZYS1271     0.0000 
     31 H          18.5556   -1.5697    7.0402 H         1 ZYS1271     0.0000 
     32 H          17.9778   -0.7540    5.7804 H         1 ZYS1271     0.0000 
     33 H          17.8058   -0.1652    7.2670 H         1 ZYS1271     0.0000 
     34 H          16.8738   -2.6610    8.7188 H         1 ZYS1271     0.0000 
     35 H          16.1630   -1.2289    8.8918 H         1 ZYS1271     0.0000 
     36 H          15.2956   -2.5090    8.4500 H         1 ZYS1271     0.0000 
@<TRIPOS>BOND
     1    2    1 1    
     2   28    1 1    
     3   29    1 1    
     4   30    1 1    
     5    3    2 1    
     6    4    2 1    
     7    5    2 1    
     8   31    3 1    
     9   32    3 1    
    10   33    3 1    
    11   34    4 1    
    12   35    4 1    
    13   36    4 1    
    14    6    5 1    
    15   20    5 1    
    16    7    6 1    
    17    8    6 2    
    18   11    7 1    
    19    9    8 1    
    20   10    9 1    
    21   11    9 2    
    22   21   10 1    
    23   22   10 1    
    24   12   11 1    
    25   13   12 2    
    26   14   12 1    
    27   15   14 ar   
    28   19   14 ar   
    29   16   15 ar   
    30   23   15 1    
    31   17   16 ar   
    32   24   16 1    
    33   18   17 ar   
    34   25   17 1    
    35   19   18 ar   
    36   26   18 1    
    37   27   19 1    
@<TRIPOS>SUBSTRUCTURE
     1 ZYS1271     1 GROUP   
@<TRIPOS>SET

