#    Name: 1f8w_FAD_1_INTS_M
#    Modification time : Tue Mar 25 01:01:42 2014

@<TRIPOS>MOLECULE
1f8w_FAD_1_INTS_M
  114     0     9     0     0
SMALL
NO_CHARGES


@<TRIPOS>ATOM
      1 N          58.4400   58.0785   65.4440 N.am      2 SEC2        0.0000 
      2 N          60.0410   57.8120   66.0560 N.am      8 SEL2        0.0000 
      3 N          56.8390   58.3450   64.8320 N.am      5 SEP2        0.0000 
      4 N          62.5720   56.8235   68.6610 N.am      2 SEC2        0.0000 
      5 N          61.5210   57.5870   68.0990 N.am      8 SEL2        0.0000 
      6 N          63.6230   56.0600   69.2230 N.am      5 SEP2        0.0000 
      7 CA         59.4495   55.7430   65.1675 C.3       3 GLC5        0.0000 
      8 CA         61.5000   55.3910   64.9780 C.3       9 GLL5        0.0000 
      9 CA         57.3990   56.0950   65.3570 C.3       6 GLP5        0.0000 
     10 CA         63.2045   53.0675   64.1915 C.3       3 GLC5        0.0000 
     11 CA         62.8300   55.0620   64.3420 C.3       9 GLL5        0.0000 
     12 CA         63.5790   51.0730   64.0410 C.3       6 GLP5        0.0000 
     13 O          65.5740   55.1410   63.5910 O.2       1 ALC1        0.0000 
     14 O          64.8460   56.3200   63.9350 O.2       7 ALL1        0.0000 
     15 O          66.3020   53.9620   63.2470 O.2       4 ALP1        0.0000 
     16 CA         62.9040   56.5975   60.1360 C.3       3 GLC5        0.0000 
     17 CA         63.1970   56.0850   62.2180 C.3       9 GLL5        0.0000 
     18 CA         62.6110   57.1100   58.0540 C.3       6 GLP5        0.0000 
     19 O          65.5155   55.9880   61.5665 O.2       1 ALC1        0.0000 
     20 O          64.3050   56.6140   61.4740 O.2       7 ALL1        0.0000 
     21 O          66.7260   55.3620   61.6590 O.2       4 ALP1        0.0000 
     22 CA         63.3620   52.8270   63.0640 C.3       3 GLC5        0.0000 
     23 CA         63.1450   54.5810   62.0870 C.3       9 GLL5        0.0000 
     24 CA         63.8580   55.0720   60.0855 C.3       3 GLC5        0.0000 
     25 CA         64.5710   55.5630   58.0840 C.3       6 GLP5        0.0000 
     26 CA         61.1170   50.7825   59.5325 C.3       3 GLC5        0.0000 
     27 CA         61.4760   52.1850   58.2970 C.3       9 GLL5        0.0000 
     28 CA         60.7580   49.3800   60.7680 C.3       6 GLP5        0.0000 
     29 CA         62.0400   52.5775   56.3335 C.3       3 GLC5        0.0000 
     30 CA         62.6040   52.9700   54.3700 C.3       6 GLP5        0.0000 
     31 O          60.2815   51.1975   56.2285 O.2       1 ALC1        0.0000 
     32 O          60.3980   52.0040   57.5350 O.2       7 ALL1        0.0000 
     33 O          60.1650   50.3910   54.9220 O.2       4 ALP1        0.0000 
     34 N          62.6870   50.5900   56.7595 N.am      2 SEC2        0.0000 
     35 N          62.5880   51.4540   58.0740 N.am      8 SEL2        0.0000 
     36 N          62.7860   49.7260   55.4450 N.am      5 SEP2        0.0000 
     37 CA         62.2195   50.5015   59.7895 C.3       3 GLC5        0.0000 
     38 CA         63.6810   51.6230   58.8110 C.3       9 GLL5        0.0000 
     39 CA         64.6865   49.6530   59.1495 C.3       3 GLC5        0.0000 
     40 CA         65.6920   47.6830   59.4880 C.3       6 GLP5        0.0000 
     41 CA         65.4480   51.7235   59.7365 C.3       3 GLC5        0.0000 
     42 CA         67.2150   51.8240   60.6620 C.3       6 GLP5        0.0000 
     43 CA         64.5200   53.1240   58.0035 C.3       3 GLC5        0.0000 
     44 CA         65.3590   54.6250   57.1960 C.3       6 GLP5        0.0000 
     45 CA         64.1040   51.5010   56.8790 C.3       3 GLC5        0.0000 
     46 CA         64.5270   51.3790   54.9470 C.3       6 GLP5        0.0000 
     47 N          65.1105   52.9815   59.3665 N.am      2 SEC2        0.0000 
     48 N          63.6970   52.5270   59.7820 N.am      8 SEL2        0.0000 
     49 N          66.5240   53.4360   58.9510 N.am      5 SEP2        0.0000 
     50 CA         63.5800   54.4055   59.0620 C.3       3 GLC5        0.0000 
     51 CA         62.5890   53.2480   60.0400 C.3       9 GLL5        0.0000 
     52 N          59.2885   59.3035   75.8440 N.am      2 SEC2        0.0000 
     53 N          59.7810   60.7270   76.0980 N.am      8 SEL2        0.0000 
     54 N          58.7960   57.8800   75.5900 N.am      5 SEP2        0.0000 
     55 N          59.1150   58.7135   76.7765 N.am      2 SEC2        0.0000 
     56 N          59.4340   59.5470   77.9630 N.am      8 SEL2        0.0000 
     57 CA         64.4220   66.3385   70.3495 C.3       3 GLC5        0.0000 
     58 CA         62.6970   66.4790   71.6030 C.3       9 GLL5        0.0000 
     59 CA         66.1470   66.1980   69.0960 C.3       6 GLP5        0.0000 
     60 CA         63.3975   68.4315   71.6960 C.3       3 GLC5        0.0000 
     61 CA         64.0980   70.3840   71.7890 C.3       6 GLP5        0.0000 
     62 CA         61.6380   63.9095   67.9980 C.3       3 GLC5        0.0000 
     63 CA         61.2690   64.4820   69.9370 C.3       9 GLL5        0.0000 
     64 CA         62.0070   63.3370   66.0590 C.3       6 GLP5        0.0000 
     65 CA         60.6365   58.6115   74.3775 C.3       3 GLC5        0.0000 
     66 CA         60.0820   59.7380   72.9610 C.3       9 GLL5        0.0000 
     67 CA         61.1910   57.4850   75.7940 C.3       6 GLP5        0.0000 
     68 N          57.0530   57.1875   72.5270 N.am      2 SEC2        0.0000 
     69 N          58.0920   58.4900   72.5640 N.am      8 SEL2        0.0000 
     70 N          56.0140   55.8850   72.4900 N.am      5 SEP2        0.0000 
     71 O          57.1150   58.1755   71.6705 O.2       1 ALC1        0.0000 
     72 O          58.0920   58.4900   72.5640 O.2       7 ALL1        0.0000 
     73 O          56.1380   57.8610   70.7770 O.2       4 ALP1        0.0000 
     74 CA         61.6440   57.0480   72.2605 C.3       3 GLC5        0.0000 
     75 CA         60.0630   57.6540   71.4580 C.3       9 GLL5        0.0000 
     76 CA         63.2250   56.4420   73.0630 C.3       6 GLP5        0.0000 
     77 CA         57.2670   57.1320   69.5305 C.3       3 GLC5        0.0000 
     78 CA         59.2260   56.8610   70.4590 C.3       9 GLL5        0.0000 
     79 CA         55.3080   57.4030   68.6020 C.3       6 GLP5        0.0000 
     80 CA         58.8715   55.2000   71.6500 C.3       3 GLC5        0.0000 
     81 CA         58.5170   53.5390   72.8410 C.3       6 GLP5        0.0000 
     82 N          56.6835   54.8095   69.1945 N.am      2 SEC2        0.0000 
     83 N          58.0960   54.4970   68.8690 N.am      8 SEL2        0.0000 
     84 N          55.2710   55.1220   69.5200 N.am      5 SEP2        0.0000 
     85 N          60.9505   52.7495   69.7875 N.am      2 SEC2        0.0000 
     86 N          60.4890   53.7250   68.7280 N.am      8 SEL2        0.0000 
     87 N          61.4120   51.7740   70.8470 N.am      5 SEP2        0.0000 
     88 N          59.7815   52.5215   68.3870 N.am      2 SEC2        0.0000 
     89 N          59.0740   51.3180   68.0460 N.am      5 SEP2        0.0000 
     90 CA         63.0405   55.1693   66.4305 C.3       3 GLC5        0.0000 
     91 CA         63.9160   55.1120   68.2010 C.3       6 GLP5        0.0000 
     92 CA         61.0943   51.8508   60.6205 C.3       3 GLC5        0.0000 
     93 CA         60.1820   50.5270   61.5780 C.3       6 GLP5        0.0000 
     94 CA         62.3940   54.3175   58.0603 C.3       3 GLC5        0.0000 
     95 CA         61.4240   53.1010   59.2860 C.3       9 GLL5        0.0000 
     96 CA         63.3380   55.9920   57.3290 C.3       6 GLP5        0.0000 
     97 CA         63.5228   64.4077   71.1040 C.3       3 GLC5        0.0000 
     98 CA         61.9560   65.3040   72.2490 C.3       9 GLL5        0.0000 
     99 CA         64.7190   62.9240   70.2820 C.3       6 GLP5        0.0000 
    100 CA         60.5850   66.7701   72.1321 C.3       3 GLC5        0.0000 
    101 CA         58.8300   67.6900   71.9920 C.3       6 GLP5        0.0000 
    102 CA         62.8413   63.3846   70.8330 C.3       3 GLC5        0.0000 
    103 CA         61.2810   64.3630   71.4630 C.3       9 GLL5        0.0000 
    104 CA         59.6887   65.3126   71.1040 C.3       3 GLC5        0.0000 
    105 CA         58.4140   66.7800   70.8240 C.3       6 GLP5        0.0000 
    106 CA         63.0639   63.4579   74.3229 C.3       3 GLC5        0.0000 
    107 CA         60.7030   63.0960   73.4530 C.3       9 GLL5        0.0000 
    108 CA         64.9240   63.0750   74.9530 C.3       6 GLP5        0.0000 
    109 CA         58.0249   59.2073   74.0026 C.3       3 GLC5        0.0000 
    110 CA         59.3030   60.9980   73.3300 C.3       9 GLL5        0.0000 
    111 CA         56.5490   58.7770   75.4680 C.3       6 GLP5        0.0000 
    112 CA         59.7645   57.5817   73.5823 C.3       3 GLC5        0.0000 
    113 CA         59.3090   58.9070   71.9290 C.3       9 GLL5        0.0000 
    114 CA         59.8430   56.8830   75.4710 C.3       6 GLP5        0.0000 
@<TRIPOS>BOND
@<TRIPOS>SUBSTRUCTURE
     1 ALC1       13 GROUP        1 X    ALC  0     ROOT ALC X 1
     2 SEC2        1 GROUP        1 X    SEC  0     **** SEC X 2
     3 GLC5        7 GROUP        1 X    GLC  0     **** GLC X 6
     4 ALP1       15 GROUP        1 Y    ALP  0     ROOT ALP Y 8
     5 SEP2        3 GROUP        1 Y    SEP  0     **** SEP Y 9
     6 GLP5        9 GROUP        1 Y    GLP  0     **** GLP Y 13
     7 ALL1       14 GROUP        1 Z    ALL  0     ROOT ALL Z 15
     8 SEL2        2 GROUP        1 Z    SEL  0     **** SEL Z 16
     9 GLL5        8 GROUP        1 Z    GLL  0     **** GLL Z 20
@<TRIPOS>SET

