#    Name: 1f8w_FAD_1_ligand
#    Modification time : Tue Mar 25 01:01:42 2014

@<TRIPOS>MOLECULE
1f8w_FAD_1_ligand
   84    89     1     0     0
SMALL
NO_CHARGES


@<TRIPOS>ATOM
      1 PA         60.7800   56.9480   67.0030 P.3       1 FAD448      0.0000 
      2 O1A        60.0410   57.8120   66.0560 O.co2     1 FAD448      0.0000 
      3 O2A        61.5210   57.5870   68.0990 O.co2     1 FAD448      0.0000 
      4 O5B        61.8450   56.0740   66.1820 O.3       1 FAD448      0.0000 
      5 C5B        61.5000   55.3910   64.9780 C.3       1 FAD448      0.0000 
      6 C4B        62.8300   55.0620   64.3420 C.3       1 FAD448      0.0000 
      7 O4B        62.6180   54.0890   63.3250 O.3       1 FAD448      0.0000 
      8 C3B        63.4390   56.2850   63.6980 C.3       1 FAD448      0.0000 
      9 O3B        64.8460   56.3200   63.9350 O.3       1 FAD448      0.0000 
     10 C2B        63.1970   56.0850   62.2180 C.3       1 FAD448      0.0000 
     11 O2B        64.3050   56.6140   61.4740 O.3       1 FAD448      0.0000 
     12 C1B        63.1450   54.5810   62.0870 C.3       1 FAD448      0.0000 
     13 N9A        62.2690   54.1390   60.9730 N.pl3     1 FAD448      0.0000 
     14 C8A        60.9930   54.5090   60.7910 C.2       1 FAD448      0.0000 
     15 N7A        60.4550   53.8740   59.7460 N.2       1 FAD448      0.0000 
     16 C5A        61.4240   53.1010   59.2860 C.ar      1 FAD448      0.0000 
     17 C6A        61.4760   52.1850   58.2970 C.ar      1 FAD448      0.0000 
     18 N6A        60.3980   52.0040   57.5350 N.pl3     1 FAD448      0.0000 
     19 N1A        62.5880   51.4540   58.0740 N.ar      1 FAD448      0.0000 
     20 C2A        63.6810   51.6230   58.8110 C.ar      1 FAD448      0.0000 
     21 N3A        63.6970   52.5270   59.7820 N.ar      1 FAD448      0.0000 
     22 C4A        62.5890   53.2480   60.0400 C.ar      1 FAD448      0.0000 
     23 N1         59.7810   60.7270   76.0980 N.2       1 FAD448      0.0000 
     24 C2         59.9430   60.5300   77.4200 C.2       1 FAD448      0.0000 
     25 O2         59.4340   59.5470   77.9630 O.2       1 FAD448      0.0000 
     26 N3         60.6770   61.4550   78.1680 N.am      1 FAD448      0.0000 
     27 C4         61.2400   62.5700   77.5400 C.2       1 FAD448      0.0000 
     28 O4         61.9430   63.3510   78.1800 O.2       1 FAD448      0.0000 
     29 C4X        61.0520   62.7490   76.1740 C.2       1 FAD448      0.0000 
     30 N5         61.5670   63.8290   75.5490 N.2       1 FAD448      0.0000 
     31 C5X        61.3990   64.0320   74.2310 C.ar      1 FAD448      0.0000 
     32 C6         62.0100   65.1390   73.6340 C.ar      1 FAD448      0.0000 
     33 C7         61.9560   65.3040   72.2490 C.ar      1 FAD448      0.0000 
     34 C7M        62.6970   66.4790   71.6030 C.3       1 FAD448      0.0000 
     35 C8         61.2810   64.3630   71.4630 C.ar      1 FAD448      0.0000 
     36 C8M        61.2690   64.4820   69.9370 C.3       1 FAD448      0.0000 
     37 C9         60.6520   63.2680   72.0680 C.ar      1 FAD448      0.0000 
     38 C9A        60.7030   63.0960   73.4530 C.ar      1 FAD448      0.0000 
     39 N10        60.1340   61.9690   74.0870 N.pl3     1 FAD448      0.0000 
     40 C10        60.3120   61.7920   75.4710 C.2       1 FAD448      0.0000 
     41 C1'        59.3030   60.9980   73.3300 C.3       1 FAD448      0.0000 
     42 C2'        60.0820   59.7380   72.9610 C.3       1 FAD448      0.0000 
     43 O2'        61.3650   60.1200   72.4680 O.3       1 FAD448      0.0000 
     44 C3'        59.3090   58.9070   71.9290 C.3       1 FAD448      0.0000 
     45 O3'        58.0920   58.4900   72.5640 O.3       1 FAD448      0.0000 
     46 C4'        60.0630   57.6540   71.4580 C.3       1 FAD448      0.0000 
     47 O4'        61.2540   58.0180   70.7550 O.3       1 FAD448      0.0000 
     48 C5'        59.2260   56.8610   70.4590 C.3       1 FAD448      0.0000 
     49 O5'        59.9180   55.6780   70.1110 O.3       1 FAD448      0.0000 
     50 P          59.5320   54.8510   68.7930 P.3       1 FAD448      0.0000 
     51 O1P        58.0960   54.4970   68.8690 O.co2     1 FAD448      0.0000 
     52 O2P        60.4890   53.7250   68.7280 O.co2     1 FAD448      0.0000 
     53 O3P        59.7180   55.8980   67.5930 O.3       1 FAD448      0.0000 
     54 H          60.9416   56.0168   64.3034 H         1 FAD448      0.0000 
     55 H          60.9741   54.4718   65.1705 H         1 FAD448      0.0000 
     56 H          63.4981   54.6954   65.0948 H         1 FAD448      0.0000 
     57 H          62.9307   57.1430   64.0182 H         1 FAD448      0.0000 
     58 H          62.2711   56.4925   61.9603 H         1 FAD448      0.0000 
     59 H          64.1452   54.2163   61.9393 H         1 FAD448      0.0000 
     60 H          60.5173   55.1633   61.3553 H         1 FAD448      0.0000 
     61 H          59.5887   52.5358   57.7842 H         1 FAD448      0.0000 
     62 H          60.4954   51.3526   56.7825 H         1 FAD448      0.0000 
     63 H          64.5336   51.0391   58.6235 H         1 FAD448      0.0000 
     64 H          60.8024   61.3161   79.1761 H         1 FAD448      0.0000 
     65 H          62.4980   65.8298   74.2152 H         1 FAD448      0.0000 
     66 H          60.1481   62.5848   71.4855 H         1 FAD448      0.0000 
     67 H          58.9301   61.4602   72.4048 H         1 FAD448      0.0000 
     68 H          58.4276   60.7039   73.9265 H         1 FAD448      0.0000 
     69 H          60.1794   59.1399   73.8651 H         1 FAD448      0.0000 
     70 H          59.0942   59.5268   71.0797 H         1 FAD448      0.0000 
     71 H          60.2754   57.0302   72.2930 H         1 FAD448      0.0000 
     72 H          59.0464   57.5051   69.5911 H         1 FAD448      0.0000 
     73 H          58.2589   56.6508   70.9290 H         1 FAD448      0.0000 
     74 H          63.6801   66.4420   71.7825 H         1 FAD448      0.0000 
     75 H          62.5806   66.4906   70.6099 H         1 FAD448      0.0000 
     76 H          62.3692   67.3590   71.9468 H         1 FAD448      0.0000 
     77 H          62.1923   64.4474   69.5545 H         1 FAD448      0.0000 
     78 H          60.7474   63.7428   69.5109 H         1 FAD448      0.0000 
     79 H          60.8586   65.3424   69.6348 H         1 FAD448      0.0000 
     80 H          65.1787   55.4210   63.6502 H         1 FAD448      0.0000 
     81 H          65.0632   55.9889   61.6595 H         1 FAD448      0.0000 
     82 H          61.5730   59.4581   71.7479 H         1 FAD448      0.0000 
     83 H          57.4773   58.2499   71.8127 H         1 FAD448      0.0000 
     84 H          61.1017   57.7155   69.8141 H         1 FAD448      0.0000 
@<TRIPOS>BOND
     1    2    1 ar   
     2    3    1 ar   
     3    4    1 1    
     4   53    1 1    
     5    5    4 1    
     6    6    5 1    
     7   54    5 1    
     8   55    5 1    
     9    7    6 1    
    10    8    6 1    
    11   56    6 1    
    12   12    7 1    
    13    9    8 1    
    14   10    8 1    
    15   57    8 1    
    16   80    9 1    
    17   11   10 1    
    18   12   10 1    
    19   58   10 1    
    20   81   11 1    
    21   13   12 1    
    22   59   12 1    
    23   14   13 1    
    24   22   13 1    
    25   15   14 2    
    26   60   14 1    
    27   16   15 1    
    28   17   16 ar   
    29   22   16 ar   
    30   18   17 1    
    31   19   17 ar   
    32   61   18 1    
    33   62   18 1    
    34   20   19 ar   
    35   21   20 ar   
    36   63   20 1    
    37   22   21 ar   
    38   24   23 1    
    39   40   23 2    
    40   25   24 2    
    41   26   24 am   
    42   27   26 am   
    43   64   26 1    
    44   28   27 2    
    45   29   27 1    
    46   30   29 2    
    47   40   29 1    
    48   31   30 1    
    49   32   31 ar   
    50   38   31 ar   
    51   33   32 ar   
    52   65   32 1    
    53   34   33 1    
    54   35   33 ar   
    55   74   34 1    
    56   75   34 1    
    57   76   34 1    
    58   36   35 1    
    59   37   35 ar   
    60   77   36 1    
    61   78   36 1    
    62   79   36 1    
    63   38   37 ar   
    64   66   37 1    
    65   39   38 1    
    66   40   39 1    
    67   41   39 1    
    68   42   41 1    
    69   67   41 1    
    70   68   41 1    
    71   43   42 1    
    72   44   42 1    
    73   69   42 1    
    74   82   43 1    
    75   45   44 1    
    76   46   44 1    
    77   70   44 1    
    78   83   45 1    
    79   47   46 1    
    80   48   46 1    
    81   71   46 1    
    82   84   47 1    
    83   49   48 1    
    84   72   48 1    
    85   73   48 1    
    86   50   49 1    
    87   51   50 ar   
    88   52   50 ar   
    89   53   50 1    
@<TRIPOS>SUBSTRUCTURE
     1 FAD448      1 GROUP   
@<TRIPOS>SET

