#    Name: 1uio_HPR_1_INTS_M
#    Modification time : Tue Mar 25 06:36:14 2014

@<TRIPOS>MOLECULE
1uio_HPR_1_INTS_M
   62     0    12     0     0
SMALL
NO_CHARGES


@<TRIPOS>ATOM
      1 O          -0.5095   21.4670   39.2815 O.2       1 ALC1        0.0000 
      2 O           0.5640   21.0700   38.4730 O.2       9 ALL1        0.0000 
      3 O          -1.5830   21.8640   40.0900 O.2       5 ALP1        0.0000 
      4 O          -0.9060   21.6415   38.2680 O.2       1 ALC1        0.0000 
      5 O          -2.3760   22.2130   38.0630 O.2       5 ALP1        0.0000 
      6 N           3.6110   19.9505   40.0705 N.am      2 SEC2        0.0000 
      7 N           2.6840   20.2180   38.8590 N.am     10 SEL2        0.0000 
      8 N           4.5380   19.6830   41.2820 N.am      6 SEP2        0.0000 
      9 CA          4.4940   20.9595   38.7305 C.3       4 GLC5        0.0000 
     10 CA          2.9090   20.1010   37.5230 C.3      12 GLL5        0.0000 
     11 CA          6.0790   21.8180   39.9380 C.3       8 GLP5        0.0000 
     12 CA         -0.5305   19.6495   38.1985 C.3       4 GLC5        0.0000 
     13 CA          0.7270   20.9960   37.0950 C.3      12 GLL5        0.0000 
     14 CA         -1.7880   18.3030   39.3020 C.3       8 GLP5        0.0000 
     15 Zn          1.4050   23.0955   36.4135 Zn        3 ZIC7        0.0000 
     16 Zn          0.5480   22.3630   36.5960 Zn       11 ZIL7        0.0000 
     17 Zn          2.2620   23.8280   36.2310 Zn        7 ZIP7        0.0000 
     18 O          -0.1250   22.8995   35.5460 O.2       1 ALC1        0.0000 
     19 O           0.5480   22.3630   36.5960 O.2       9 ALL1        0.0000 
     20 O          -0.7980   23.4360   34.4960 O.2       5 ALP1        0.0000 
     21 N           1.8685   20.3630   34.2205 N.am      2 SEC2        0.0000 
     22 N           2.4740   20.2310   35.3860 N.am     10 SEL2        0.0000 
     23 N           1.2630   20.4950   33.0550 N.am      6 SEP2        0.0000 
     24 CA          5.6045   20.3930   38.6845 C.3       4 GLC5        0.0000 
     25 CA          5.1300   18.9680   37.4310 C.3      12 GLL5        0.0000 
     26 CA          4.7255   18.6510   39.5905 C.3       4 GLC5        0.0000 
     27 CA          4.3210   18.3340   41.7500 C.3       8 GLP5        0.0000 
     28 CA          4.8015   17.2015   34.9000 C.3       4 GLC5        0.0000 
     29 CA          5.4900   17.6840   36.5840 C.3      12 GLL5        0.0000 
     30 CA          4.1130   16.7190   33.2160 C.3       8 GLP5        0.0000 
     31 CA          6.0235   17.2245   34.1515 C.3       4 GLC5        0.0000 
     32 CA          6.7010   18.0020   35.6970 C.3      12 GLL5        0.0000 
     33 CA          5.3460   16.4470   32.6060 C.3       8 GLP5        0.0000 
     34 O           8.4060   17.2355   34.6070 O.2       1 ALC1        0.0000 
     35 O           7.5270   16.8440   35.5170 O.2       9 ALL1        0.0000 
     36 O           9.2850   17.6270   33.6970 O.2       5 ALP1        0.0000 
     37 CA          6.6840   20.4265   38.3800 C.3       4 GLC5        0.0000 
     38 CA          7.2890   19.0350   36.8220 C.3      12 GLL5        0.0000 
     39 CA          9.7255   21.1160   35.4170 C.3       4 GLC5        0.0000 
     40 CA          8.3620   19.9700   36.2610 C.3      12 GLL5        0.0000 
     41 CA         11.0890   22.2620   34.5730 C.3       8 GLP5        0.0000 
     42 CA         10.2845   19.4510   37.0745 C.3       4 GLC5        0.0000 
     43 CA         12.2070   18.9320   37.8880 C.3       8 GLP5        0.0000 
     44 CA          8.7555   21.7480   37.1135 C.3       4 GLC5        0.0000 
     45 CA          9.1490   23.5260   37.9660 C.3       8 GLP5        0.0000 
     46 N           7.0410   21.3130   34.9115 N.am      2 SEC2        0.0000 
     47 N           8.0020   20.3970   34.9250 N.am     10 SEL2        0.0000 
     48 N           6.0800   22.2290   34.8980 N.am      6 SEP2        0.0000 
     49 O           8.6435   19.0120   34.3110 O.2       1 ALC1        0.0000 
     50 O           8.0020   20.3970   34.9250 O.2       9 ALL1        0.0000 
     51 O           8.0925   19.8350   33.8055 O.2       1 ALC1        0.0000 
     52 O           8.1830   19.2730   32.6860 O.2       5 ALP1        0.0000 
     53 CA          3.2685   21.5362   35.6332 C.3       4 GLC5        0.0000 
     54 CA          4.0940   22.7880   34.1900 C.3       8 GLP5        0.0000 
     55 CA          2.3720   18.2718   37.5448 C.3       4 GLC5        0.0000 
     56 CA          1.9770   20.4680   36.6300 C.3      12 GLL5        0.0000 
     57 CA          2.3010   16.2590   38.0130 C.3       8 GLP5        0.0000 
     58 CA          1.8315   22.4241   38.0984 C.3       4 GLC5        0.0000 
     59 CA          2.0780   24.2080   39.1110 C.3       8 GLP5        0.0000 
     60 CA          3.8055   17.2925   37.5102 C.3       4 GLC5        0.0000 
     61 CA          8.7283   19.3483   37.9267 C.3       4 GLC5        0.0000 
     62 CA          9.6310   19.1940   39.3120 C.3       8 GLP5        0.0000 
@<TRIPOS>BOND
@<TRIPOS>SUBSTRUCTURE
     1 ALC1        1 GROUP        1 X    ALC  0     ROOT ALC X 1
     2 SEC2        6 GROUP        1 X    SEC  0     **** SEC X 2
     3 ZIC7       15 GROUP        1 X    ZIC  0     **** ZIC X 5
     4 GLC5        9 GROUP        1 X    GLC  0     **** GLC X 6
     5 ALP1        3 GROUP        1 Y    ALP  0     ROOT ALP Y 8
     6 SEP2        8 GROUP        1 Y    SEP  0     **** SEP Y 9
     7 ZIP7       17 GROUP        1 Y    ZIP  0     **** ZIP Y 12
     8 GLP5       11 GROUP        1 Y    GLP  0     **** GLP Y 13
     9 ALL1        2 GROUP        1 Z    ALL  0     ROOT ALL Z 15
    10 SEL2        7 GROUP        1 Z    SEL  0     **** SEL Z 16
    11 ZIL7       16 GROUP        1 Z    ZIL  0     **** ZIL Z 19
    12 GLL5       10 GROUP        1 Z    GLL  0     **** GLL Z 20
@<TRIPOS>SET

