#    Name: 1uio_HPR_1_ligand
#    Modification time : Tue Mar 25 06:36:14 2014

@<TRIPOS>MOLECULE
1uio_HPR_1_ligand
   33    35     1     0     0
SMALL
NO_CHARGES


@<TRIPOS>ATOM
      1 N1          0.5640   21.0700   38.4730 N.pl3     1 HPR353      0.0000 
      2 C2          1.5320   20.6900   39.3050 C.2       1 HPR353      0.0000 
      3 N3          2.6840   20.2180   38.8590 N.2       1 HPR353      0.0000 
      4 C4          2.9090   20.1010   37.5230 C.2       1 HPR353      0.0000 
      5 C5          1.9770   20.4680   36.6300 C.2       1 HPR353      0.0000 
      6 C6          0.7270   20.9960   37.0950 C.3       1 HPR353      0.0000 
      7 O6          0.5480   22.3630   36.5960 O.3       1 HPR353      0.0000 
      8 N7          2.4740   20.2310   35.3860 N.2       1 HPR353      0.0000 
      9 C8          3.7140   19.7320   35.5290 C.2       1 HPR353      0.0000 
     10 N9          3.9810   19.6230   36.8430 N.pl3     1 HPR353      0.0000 
     11 C1'         5.1300   18.9680   37.4310 C.3       1 HPR353      0.0000 
     12 C2'         5.4900   17.6840   36.5840 C.3       1 HPR353      0.0000 
     13 O2'         5.7740   16.5650   37.4380 O.3       1 HPR353      0.0000 
     14 C3'         6.7010   18.0020   35.6970 C.3       1 HPR353      0.0000 
     15 O3'         7.5270   16.8440   35.5170 O.3       1 HPR353      0.0000 
     16 C4'         7.2890   19.0350   36.8220 C.3       1 HPR353      0.0000 
     17 O4'         6.2810   19.7910   37.3660 O.3       1 HPR353      0.0000 
     18 C5'         8.3620   19.9700   36.2610 C.3       1 HPR353      0.0000 
     19 O5'         8.0020   20.3970   34.9250 O.3       1 HPR353      0.0000 
     20 H          -0.3467   21.4351   38.8393 H         1 HPR353      0.0000 
     21 H           1.3711   20.7695   40.3500 H         1 HPR353      0.0000 
     22 H          -0.1053   20.4038   36.6538 H         1 HPR353      0.0000 
     23 H           4.3140   19.4915   34.8085 H         1 HPR353      0.0000 
     24 H           4.9371   18.6283   38.4202 H         1 HPR353      0.0000 
     25 H           4.6460   17.4911   35.9379 H         1 HPR353      0.0000 
     26 H           6.4080   18.5600   34.9194 H         1 HPR353      0.0000 
     27 H           7.7688   18.3929   37.5703 H         1 HPR353      0.0000 
     28 H           9.3150   19.4308   36.2626 H         1 HPR353      0.0000 
     29 H           8.4549   20.8242   36.9398 H         1 HPR353      0.0000 
     30 H          -0.0702   22.2744   35.8150 H         1 HPR353      0.0000 
     31 H           6.6338   16.1882   37.0933 H         1 HPR353      0.0000 
     32 H           8.4185   17.2026   35.2401 H         1 HPR353      0.0000 
     33 H           7.7683   19.5551   34.4385 H         1 HPR353      0.0000 
@<TRIPOS>BOND
     1    2    1 1    
     2    6    1 1    
     3   20    1 1    
     4    3    2 2    
     5   21    2 1    
     6    4    3 1    
     7    5    4 2    
     8   10    4 1    
     9    6    5 1    
    10    8    5 1    
    11    7    6 1    
    12   22    6 1    
    13   30    7 1    
    14    9    8 2    
    15   10    9 1    
    16   23    9 1    
    17   11   10 1    
    18   12   11 1    
    19   17   11 1    
    20   24   11 1    
    21   13   12 1    
    22   14   12 1    
    23   25   12 1    
    24   31   13 1    
    25   15   14 1    
    26   16   14 1    
    27   26   14 1    
    28   32   15 1    
    29   17   16 1    
    30   18   16 1    
    31   27   16 1    
    32   19   18 1    
    33   28   18 1    
    34   29   18 1    
    35   33   19 1    
@<TRIPOS>SUBSTRUCTURE
     1 HPR353      1 GROUP   
@<TRIPOS>SET

