#    Name: 3mzh_CMP_1_INTS_M
#    Modification time : Tue Mar 25 00:20:25 2014

@<TRIPOS>MOLECULE
3mzh_CMP_1_INTS_M
   59     0    12     0     0
SMALL
NO_CHARGES


@<TRIPOS>ATOM
      1 N         -13.2795  -21.2835  -35.6710 N.am      2 SEC2        0.0000 
      2 N         -13.1500  -20.1420  -34.7550 N.am     10 SEL2        0.0000 
      3 N         -13.4090  -22.4250  -36.5870 N.am      6 SEP2        0.0000 
      4 NZ        -16.0205  -20.3470  -37.0045 N.4       3 LYC4        0.0000 
      5 NZ        -14.8150  -20.0540  -36.5950 N.4      11 LYL4        0.0000 
      6 NZ        -18.3690  -21.1510  -36.9950 N.4       7 LYP4        0.0000 
      7 N         -13.7095  -20.0565  -37.3555 N.am      2 SEC2        0.0000 
      8 N         -14.8150  -20.0540  -36.5950 N.am     10 SEL2        0.0000 
      9 N         -12.6040  -20.0590  -38.1160 N.am      6 SEP2        0.0000 
     10 N         -16.0205  -20.3470  -37.0045 N.am      2 SEC2        0.0000 
     11 N         -17.2260  -20.6400  -37.4140 N.am      6 SEP2        0.0000 
     12 CA        -17.2345  -18.9280  -32.9095 C.3       4 GLC5        0.0000 
     13 CA        -15.5800  -18.5240  -33.1150 C.3      12 GLL5        0.0000 
     14 CA        -18.8890  -19.3320  -32.7040 C.3       8 GLP5        0.0000 
     15 CA        -16.4080  -20.3470  -34.0880 C.3       4 GLC5        0.0000 
     16 CA        -17.2360  -22.1700  -35.0610 C.3       8 GLP5        0.0000 
     17 CA        -15.4390  -18.5660  -30.9805 C.3       4 GLC5        0.0000 
     18 CA        -15.2980  -18.6080  -28.8460 C.3       8 GLP5        0.0000 
     19 CA        -17.2895  -17.7175  -33.6535 C.3       4 GLC5        0.0000 
     20 CA        -15.4210  -17.1470  -33.7320 C.3      12 GLL5        0.0000 
     21 CA        -19.1580  -18.2880  -33.5750 C.3       8 GLP5        0.0000 
     22 CA        -12.6320  -17.5305  -35.2970 C.3       4 GLC5        0.0000 
     23 CA        -14.0450  -17.0710  -34.3440 C.3      12 GLL5        0.0000 
     24 CA        -11.2190  -17.9900  -36.2500 C.3       8 GLP5        0.0000 
     25 N         -13.4000  -17.5390  -36.7735 N.am      2 SEC2        0.0000 
     26 N         -14.0660  -17.8530  -35.5290 N.am     10 SEL2        0.0000 
     27 N         -12.7340  -17.2250  -38.0180 N.am      6 SEP2        0.0000 
     28 CA        -12.2600  -16.1260  -35.0815 C.3       4 GLC5        0.0000 
     29 CA        -13.8120  -15.5800  -34.4710 C.3      12 GLL5        0.0000 
     30 CA        -10.7080  -16.6720  -35.6920 C.3       8 GLP5        0.0000 
     31 N         -15.7630  -15.2575  -35.9480 N.am      2 SEC2        0.0000 
     32 N         -14.4400  -15.0630  -35.6420 N.am     10 SEL2        0.0000 
     33 N         -17.0860  -15.4520  -36.2540 N.am      6 SEP2        0.0000 
     34 N         -14.8730  -15.6815  -36.8975 N.am      2 SEC2        0.0000 
     35 N         -15.3060  -16.3000  -38.1530 N.am      6 SEP2        0.0000 
     36 N         -13.8605  -13.5070  -35.4930 N.am      2 SEC2        0.0000 
     37 N         -13.2810  -11.9510  -35.3440 N.am      6 SEP2        0.0000 
     38 O         -13.5155  -14.8680  -36.5365 O.2       1 ALC1        0.0000 
     39 O         -14.4400  -15.0630  -35.6420 O.2       9 ALL1        0.0000 
     40 O         -12.5910  -14.6730  -37.4310 O.2       5 ALP1        0.0000 
     41 CA        -15.5795  -15.2125  -31.2975 C.3       4 GLC5        0.0000 
     42 CA        -14.5230  -15.0470  -33.2360 C.3      12 GLL5        0.0000 
     43 CA        -16.6360  -15.3780  -29.3590 C.3       8 GLP5        0.0000 
     44 O          -9.5665  -13.6880  -28.6585 O.2       1 ALC1        0.0000 
     45 O         -10.5510  -12.9970  -28.9770 O.2       9 ALL1        0.0000 
     46 O          -8.5820  -14.3790  -28.3400 O.2       5 ALP1        0.0000 
     47 CA        -14.4235  -10.5975  -30.3780 C.3       4 GLC5        0.0000 
     48 CA        -12.7020  -11.3850  -31.3430 C.3      12 GLL5        0.0000 
     49 CA        -16.1450   -9.8100  -29.4130 C.3       8 GLP5        0.0000 
     50 CA        -11.8360  -10.9890  -32.8855 C.3       4 GLC5        0.0000 
     51 CA        -10.9700  -10.5930  -34.4280 C.3       8 GLP5        0.0000 
     52 CA        -16.2877  -17.3473  -35.0102 C.3       4 GLC5        0.0000 
     53 CA        -17.0750  -16.8590  -36.5970 C.3       8 GLP5        0.0000 
     54 CA        -15.5017  -16.5922  -35.5023 C.3       4 GLC5        0.0000 
     55 CA         -9.9390  -13.2715  -31.0237 C.3       4 GLC5        0.0000 
     56 CA        -12.1030  -13.9780  -30.6420 C.3      12 GLL5        0.0000 
     57 CA         -8.0980  -13.1420  -31.7440 C.3       8 GLP5        0.0000 
     58 CA        -12.8232  -14.5177  -29.3074 C.3       4 GLC5        0.0000 
     59 CA        -13.2180  -15.4970  -27.6120 C.3       8 GLP5        0.0000 
@<TRIPOS>BOND
@<TRIPOS>SUBSTRUCTURE
     1 ALC1       38 GROUP        1 X    ALC  0     ROOT ALC X 1
     2 SEC2        1 GROUP        1 X    SEC  0     **** SEC X 2
     3 LYC4        4 GROUP        1 X    LYC  0     **** LYC X 4
     4 GLC5       12 GROUP        1 X    GLC  0     **** GLC X 6
     5 ALP1       40 GROUP        1 Y    ALP  0     ROOT ALP Y 8
     6 SEP2        3 GROUP        1 Y    SEP  0     **** SEP Y 9
     7 LYP4        6 GROUP        1 Y    LYP  0     **** LYP Y 11
     8 GLP5       14 GROUP        1 Y    GLP  0     **** GLP Y 13
     9 ALL1       39 GROUP        1 Z    ALL  0     ROOT ALL Z 15
    10 SEL2        2 GROUP        1 Z    SEL  0     **** SEL Z 16
    11 LYL4        5 GROUP        1 Z    LYL  0     **** LYL Z 18
    12 GLL5       13 GROUP        1 Z    GLL  0     **** GLL Z 20
@<TRIPOS>SET

