#    Name: 3mzh_CMP_1_ligand
#    Modification time : Tue Mar 25 00:20:25 2014

@<TRIPOS>MOLECULE
3mzh_CMP_1_ligand
   33    36     1     0     0
SMALL
NO_CHARGES


@<TRIPOS>ATOM
      1 P         -14.3590  -19.4220  -35.3050 P.3       1 CMP623      0.0000 
      2 O1P       -13.1500  -20.1420  -34.7550 O.co2     1 CMP623      0.0000 
      3 O2P       -14.8150  -20.0540  -36.5950 O.co2     1 CMP623      0.0000 
      4 O5'       -15.5390  -19.4460  -34.2060 O.3       1 CMP623      0.0000 
      5 C5'       -15.5800  -18.5240  -33.1150 C.3       1 CMP623      0.0000 
      6 C4'       -15.4210  -17.1470  -33.7320 C.3       1 CMP623      0.0000 
      7 O4'       -15.4580  -16.0550  -32.8140 O.3       1 CMP623      0.0000 
      8 C3'       -14.0450  -17.0710  -34.3440 C.3       1 CMP623      0.0000 
      9 O3'       -14.0660  -17.8530  -35.5290 O.3       1 CMP623      0.0000 
     10 C2'       -13.8120  -15.5800  -34.4710 C.3       1 CMP623      0.0000 
     11 O2'       -14.4400  -15.0630  -35.6420 O.3       1 CMP623      0.0000 
     12 C1'       -14.5230  -15.0470  -33.2360 C.3       1 CMP623      0.0000 
     13 N9        -13.5210  -14.8480  -32.1590 N.pl3     1 CMP623      0.0000 
     14 C8        -12.9070  -15.8320  -31.4690 C.2       1 CMP623      0.0000 
     15 N7        -12.0470  -15.3210  -30.5510 N.2       1 CMP623      0.0000 
     16 C5        -12.1030  -13.9780  -30.6420 C.ar      1 CMP623      0.0000 
     17 C6        -11.4570  -12.8240  -29.9650 C.ar      1 CMP623      0.0000 
     18 N6        -10.5510  -12.9970  -28.9770 N.pl3     1 CMP623      0.0000 
     19 N1        -11.8030  -11.5820  -30.3670 N.ar      1 CMP623      0.0000 
     20 C2        -12.7020  -11.3850  -31.3430 C.ar      1 CMP623      0.0000 
     21 N3        -13.3260  -12.3790  -31.9960 N.ar      1 CMP623      0.0000 
     22 C4        -13.0770  -13.6760  -31.7020 C.ar      1 CMP623      0.0000 
     23 H         -14.7669  -18.6823  -32.4202 H         1 CMP623      0.0000 
     24 H         -16.5260  -18.5565  -32.5926 H         1 CMP623      0.0000 
     25 H         -16.1288  -17.0223  -34.5284 H         1 CMP623      0.0000 
     26 H         -13.3664  -17.4598  -33.5956 H         1 CMP623      0.0000 
     27 H         -12.7932  -15.3775  -34.3891 H         1 CMP623      0.0000 
     28 H         -15.0015  -14.1393  -33.4757 H         1 CMP623      0.0000 
     29 H         -13.0589  -16.7911  -31.6089 H         1 CMP623      0.0000 
     30 H          -9.7317  -13.5176  -29.2174 H         1 CMP623      0.0000 
     31 H         -10.7804  -12.5890  -28.0932 H         1 CMP623      0.0000 
     32 H         -12.9361  -10.3773  -31.6178 H         1 CMP623      0.0000 
     33 H         -13.7534  -14.4710  -36.0639 H         1 CMP623      0.0000 
@<TRIPOS>BOND
     1    2    1 ar   
     2    3    1 ar   
     3    4    1 1    
     4    9    1 1    
     5    5    4 1    
     6    6    5 1    
     7   23    5 1    
     8   24    5 1    
     9    7    6 1    
    10    8    6 1    
    11   25    6 1    
    12   12    7 1    
    13    9    8 1    
    14   10    8 1    
    15   26    8 1    
    16   11   10 1    
    17   12   10 1    
    18   27   10 1    
    19   33   11 1    
    20   13   12 1    
    21   28   12 1    
    22   14   13 1    
    23   22   13 1    
    24   15   14 2    
    25   29   14 1    
    26   16   15 1    
    27   17   16 ar   
    28   22   16 ar   
    29   18   17 1    
    30   19   17 ar   
    31   30   18 1    
    32   31   18 1    
    33   20   19 ar   
    34   21   20 ar   
    35   32   20 1    
    36   22   21 ar   
@<TRIPOS>SUBSTRUCTURE
     1 CMP623      1 GROUP   
@<TRIPOS>SET

