#    Name: 1REK_1_CAVITY_N1_6.mol2
#    Modification time : Tue Mar 11 05:45:29 2014

@<TRIPOS>MOLECULE
1REK_1_CAVITY_N1_6.mol2
  111     0     7     0     0
SMALL
NO_CHARGES


@<TRIPOS>ATOM
      1 CA          8.7272   41.3752   13.8258 C.3       6 GLY6        0.0000 
      2 CA          8.0984   42.5815   13.1938 C.3       6 GLY6        0.0000 
      3 O           7.9949   39.5918   14.7106 O.2       2 ALA2        0.0000 
      4 O           7.3660   40.7981   14.0786 O.2       2 ALA2        0.0000 
      5 CA          6.7371   42.0043   13.4466 C.3       6 GLY6        0.0000 
      6 CA          6.1083   43.2106   12.8146 C.3       6 GLY6        0.0000 
      7 CA          5.4794   44.4169   12.1826 C.3       6 GLY6        0.0000 
      8 CA          9.3163   40.8485   15.7944 C.3       6 GLY6        0.0000 
      9 CA          8.6874   42.0548   15.1624 C.3       6 GLY6        0.0000 
     10 OD1         8.0585   43.2610   14.5304 O.3       3 ASP3        0.0000 
     11 CA          7.4297   44.4673   13.8984 C.3       6 GLY6        0.0000 
     12 CA          6.8008   45.6736   13.2664 C.3       6 GLY6        0.0000 
     13 CA          6.1720   46.8799   12.6344 C.3       6 GLY6        0.0000 
     14 O           8.5839   39.0650   16.6793 O.2       2 ALA2        0.0000 
     15 N           7.9550   40.2713   16.0473 N.2       2 ALA2        0.0000 
     16 O           7.3262   41.4776   15.4153 O.2       2 ALA2        0.0000 
     17 CA          6.6973   42.6839   14.7833 C.3       6 GLY6        0.0000 
     18 CA          6.0685   43.8902   14.1513 C.3       6 GLY6        0.0000 
     19 CA          5.4396   45.0964   13.5193 C.3       6 GLY6        0.0000 
     20 CZ          4.8107   46.3027   12.8873 C.ar      5 PHE5        0.0000 
     21 O           7.2227   38.4879   16.9322 O.2       2 ALA2        0.0000 
     22 N           5.9649   40.9004   15.6682 N.2       2 ALA2        0.0000 
     23 CA          4.7072   43.3130   14.4042 C.3       6 GLY6        0.0000 
     24 O           4.0784   44.5193   13.7721 O.2       2 ALA2        0.0000 
     25 CZ          3.4495   45.7256   13.1401 C.ar      5 PHE5        0.0000 
     26 NZ          6.7610   46.3531   14.6031 N.2       4 LYS4        0.0000 
     27 NZ          6.1321   47.5594   13.9711 N.2       4 LYS4        0.0000 
     28 OG          5.5033   48.7657   13.3390 O.2       1 SER1        0.0000 
     29 NZ          7.9152   40.9509   17.3839 N.2       4 LYS4        0.0000 
     30 NZ          7.2863   42.1571   16.7519 N.2       4 LYS4        0.0000 
     31 OD1         6.6575   43.3634   16.1199 O.3       3 ASP3        0.0000 
     32 OD1         6.0286   44.5697   15.4879 O.3       3 ASP3        0.0000 
     33 DU          5.3998   45.7760   14.8559 H         7 CUB7        0.0000 
     34 CZ          4.7709   46.9823   14.2239 C.ar      5 PHE5        0.0000 
     35 CZ          4.1421   48.1885   13.5919 C.ar      5 PHE5        0.0000 
     36 CZ          3.5132   49.3948   12.9599 C.ar      5 PHE5        0.0000 
     37 NZ          6.5540   40.3737   17.6368 N.2       4 LYS4        0.0000 
     38 NZ          5.9251   41.5800   17.0048 N.2       4 LYS4        0.0000 
     39 CA          5.2963   42.7863   16.3728 C.3       6 GLY6        0.0000 
     40 CA          4.6674   43.9926   15.7408 C.3       6 GLY6        0.0000 
     41 DU          4.0385   45.1988   15.1088 H         7 CUB7        0.0000 
     42 CZ          3.4097   46.4051   14.4768 C.ar      5 PHE5        0.0000 
     43 CZ          2.7808   47.6114   13.8448 C.ar      5 PHE5        0.0000 
     44 N           5.1927   39.7966   17.8897 N.2       2 ALA2        0.0000 
     45 N           4.5639   41.0028   17.2577 N.2       2 ALA2        0.0000 
     46 CA          3.9350   42.2091   16.6257 C.3       6 GLY6        0.0000 
     47 CA          3.3062   43.4154   15.9937 C.3       6 GLY6        0.0000 
     48 O           2.6773   44.6217   15.3617 O.2       2 ALA2        0.0000 
     49 CA          2.0485   45.8280   14.7297 C.3       6 GLY6        0.0000 
     50 CZ          1.4196   47.0342   14.0977 C.ar      5 PHE5        0.0000 
     51 CA          0.7907   48.2405   13.4657 C.3       6 GLY6        0.0000 
     52 O           1.9449   42.8382   16.2465 O.2       2 ALA2        0.0000 
     53 OG          1.3161   44.0445   15.6145 O.2       1 SER1        0.0000 
     54 OG          0.6872   45.2508   14.9825 O.2       1 SER1        0.0000 
     55 OG          0.0584   46.4571   14.3505 O.2       1 SER1        0.0000 
     56 N          -0.5705   47.6634   13.7185 N.2       2 ALA2        0.0000 
     57 NZ          6.7212   47.0327   15.9397 N.2       4 LYS4        0.0000 
     58 CA          6.0923   48.2390   15.3077 C.3       6 GLY6        0.0000 
     59 O           5.4635   49.4452   14.6757 O.2       2 ALA2        0.0000 
     60 OD1         5.9888   45.2493   16.8246 O.3       3 ASP3        0.0000 
     61 CA          5.3600   46.4555   16.1926 C.3       6 GLY6        0.0000 
     62 CA          4.7311   47.6618   15.5606 C.3       6 GLY6        0.0000 
     63 CA          4.1022   48.8681   14.9286 C.3       6 GLY6        0.0000 
     64 CA          3.4734   50.0744   14.2966 C.3       6 GLY6        0.0000 
     65 NZ          5.2564   43.4658   17.7095 N.2       4 LYS4        0.0000 
     66 DU          4.6276   44.6721   17.0774 H         7 CUB7        0.0000 
     67 DU          3.9987   45.8784   16.4454 H         7 CUB7        0.0000 
     68 CZ          3.3699   47.0847   15.8134 C.ar      5 PHE5        0.0000 
     69 CZ          2.7410   48.2909   15.1814 C.ar      5 PHE5        0.0000 
     70 N           2.1121   49.4972   14.5494 N.2       2 ALA2        0.0000 
     71 NZ          5.1529   40.4761   19.2263 N.2       4 LYS4        0.0000 
     72 NZ          4.5241   41.6824   18.5943 N.2       4 LYS4        0.0000 
     73 NZ          3.8952   42.8887   17.9623 N.2       4 LYS4        0.0000 
     74 DU          3.2663   44.0949   17.3303 H         7 CUB7        0.0000 
     75 CZ          2.6375   45.3012   16.6983 C.ar      5 PHE5        0.0000 
     76 CZ          2.0086   46.5075   16.0663 C.ar      5 PHE5        0.0000 
     77 CZ          1.3798   47.7138   15.4343 C.ar      5 PHE5        0.0000 
     78 DU          3.7917   39.8990   19.4792 H         7 CUB7        0.0000 
     79 DU          3.1628   41.1052   18.8472 H         7 CUB7        0.0000 
     80 DU          2.5340   42.3115   18.2152 H         7 CUB7        0.0000 
     81 DU          1.9051   43.5178   17.5832 H         7 CUB7        0.0000 
     82 CZ          1.2763   44.7241   16.9512 C.ar      5 PHE5        0.0000 
     83 CZ          0.6474   45.9303   16.3192 C.ar      5 PHE5        0.0000 
     84 CZ          0.0185   47.1366   15.6872 C.ar      5 PHE5        0.0000 
     85 N          -0.6103   48.3429   15.0552 N.2       2 ALA2        0.0000 
     86 OD1         2.4305   39.3218   19.7321 O.3       3 ASP3        0.0000 
     87 CA          5.9490   45.9288   18.1612 C.3       6 GLY6        0.0000 
     88 N           4.0624   49.5476   16.2652 N.2       2 ALA2        0.0000 
     89 NZ          5.2166   44.1454   19.0461 N.2       4 LYS4        0.0000 
     90 NZ          4.5878   45.3516   18.4141 N.2       4 LYS4        0.0000 
     91 CZ          3.9589   46.5579   17.7821 C.ar      5 PHE5        0.0000 
     92 CZ          3.3300   47.7642   17.1501 C.ar      5 PHE5        0.0000 
     93 CZ          2.7012   48.9705   16.5181 C.ar      5 PHE5        0.0000 
     94 CA          2.0723   50.1768   15.8861 C.3       6 GLY6        0.0000 
     95 N           5.1131   41.1557   20.5630 N.2       2 ALA2        0.0000 
     96 NZ          4.4842   42.3619   19.9310 N.2       4 LYS4        0.0000 
     97 NZ          3.8554   43.5682   19.2990 N.2       4 LYS4        0.0000 
     98 CZ          3.2265   44.7745   18.6670 C.ar      5 PHE5        0.0000 
     99 N           0.7111   49.5996   16.1389 N.2       2 ALA2        0.0000 
    100 N           3.7519   40.5785   20.8158 N.2       2 ALA2        0.0000 
    101 OD1         3.1230   41.7848   20.1838 O.3       3 ASP3        0.0000 
    102 NZ          2.4942   42.9911   19.5518 N.2       4 LYS4        0.0000 
    103 CZ          1.8653   44.1973   18.9198 C.ar      5 PHE5        0.0000 
    104 N          -0.6501   49.0225   16.3918 N.2       2 ALA2        0.0000 
    105 OD1         2.3906   40.0014   21.0687 O.3       3 ASP3        0.0000 
    106 OD1         1.7618   41.2076   20.4367 O.3       3 ASP3        0.0000 
    107 CZ          0.5041   43.6202   19.1727 C.ar      5 PHE5        0.0000 
    108 NZ          5.1768   44.8249   20.3827 N.2       4 LYS4        0.0000 
    109 NZ          4.5479   46.0312   19.7507 N.2       4 LYS4        0.0000 
    110 NZ          4.4444   43.0415   21.2676 N.2       4 LYS4        0.0000 
    111 NZ          3.0832   42.4643   21.5205 N.2       4 LYS4        0.0000 
@<TRIPOS>BOND
@<TRIPOS>SUBSTRUCTURE
     1 SER1       28 GROUP   
     2 ALA2        3 GROUP   
     3 ASP3       10 GROUP   
     4 LYS4       26 GROUP   
     5 PHE5       20 GROUP   
     6 GLY6        1 GROUP   
     7 CUB7       33 GROUP   
@<TRIPOS>SET

