#    Name: 1rek_B8L_1_INTS_M
#    Modification time : Tue Mar 25 00:33:45 2014

@<TRIPOS>MOLECULE
1rek_B8L_1_INTS_M
  118     0    12     0     0
SMALL
NO_CHARGES


@<TRIPOS>ATOM
      1 N          18.4685   38.2780   20.9555 N.am      2 SEC2        0.0000 
      2 N          17.4550   38.8030   20.0470 N.am     10 SEL2        0.0000 
      3 N          19.4820   37.7530   21.8640 N.am      6 SEP2        0.0000 
      4 O          18.3585   39.7535   20.0575 O.2       1 ALC1        0.0000 
      5 O          17.4550   38.8030   20.0470 O.2       9 ALL1        0.0000 
      6 O          19.2620   40.7040   20.0680 O.2       5 ALP1        0.0000 
      7 CA         17.1585   39.4155   21.7340 C.3       4 GLC5        0.0000 
      8 CA         16.0770   39.1820   19.8310 C.3      12 GLL5        0.0000 
      9 CA         18.2400   39.6490   23.6370 C.3       8 GLP5        0.0000 
     10 CA         16.7280   42.1915   18.7960 C.3       4 GLC5        0.0000 
     11 CA         15.7230   40.5320   19.8190 C.3      12 GLL5        0.0000 
     12 CA         17.7330   43.8510   17.7730 C.3       8 GLP5        0.0000 
     13 CA         14.5350   42.1625   18.0395 C.3       4 GLC5        0.0000 
     14 CA         14.3960   40.9000   19.5690 C.3      12 GLL5        0.0000 
     15 CA         14.6740   43.4250   16.5100 C.3       8 GLP5        0.0000 
     16 CA         13.4525   42.0245   21.0285 C.3       4 GLC5        0.0000 
     17 CA         12.5090   43.1490   22.4880 C.3       8 GLP5        0.0000 
     18 CA         12.4910   40.9575   21.0660 C.3       4 GLC5        0.0000 
     19 CA         13.3930   39.9380   19.3460 C.3      12 GLL5        0.0000 
     20 CA         11.5890   41.9770   22.7860 C.3       8 GLP5        0.0000 
     21 CA         16.1245   39.0325   18.1360 C.3       4 GLC5        0.0000 
     22 CA         15.1130   38.1930   19.6170 C.3      12 GLL5        0.0000 
     23 CA         17.1360   39.8720   16.6550 C.3       8 GLP5        0.0000 
     24 N          12.1185   42.4445   20.2295 N.am      2 SEC2        0.0000 
     25 N          11.6680   41.5020   19.3660 N.am     10 SEL2        0.0000 
     26 N          12.5690   43.3870   21.0930 N.am      6 SEP2        0.0000 
     27 CA         10.3790   39.7095   16.6020 C.3       4 GLC5        0.0000 
     28 CA          8.9540   39.1420   17.9680 C.3      12 GLL5        0.0000 
     29 CA         11.8040   40.2770   15.2360 C.3       8 GLP5        0.0000 
     30 CA          5.9390   38.4120   22.3140 C.3       4 GLC5        0.0000 
     31 CA          6.8090   38.7520   20.4870 C.3      12 GLL5        0.0000 
     32 CA          5.0690   38.0720   24.1410 C.3       8 GLP5        0.0000 
     33 OD1         8.3105   37.3015   21.2975 O.co2     3 ASC3        0.0000 
     34 OD1         8.1220   39.0270   21.0620 O.co2    11 ASL3        0.0000 
     35 OD1         8.4990   35.5760   21.5330 O.co2     7 ASP3        0.0000 
     36 OD1         8.4035   40.5745   21.0540 O.co2     3 ASC3        0.0000 
     37 OD1         8.6850   42.1220   21.0460 O.co2     7 ASP3        0.0000 
     38 CA          9.4925   37.0325   22.0635 C.3       4 GLC5        0.0000 
     39 CA          9.3870   38.5830   20.4960 C.3      12 GLL5        0.0000 
     40 CA          9.5980   35.4820   23.6310 C.3       8 GLP5        0.0000 
     41 CA         10.9175   38.3405   22.1135 C.3       4 GLC5        0.0000 
     42 CA         12.4480   38.0980   23.7310 C.3       8 GLP5        0.0000 
     43 N           9.7560   38.9600   14.0470 N.am      2 SEC2        0.0000 
     44 N           8.6230   39.2810   15.2610 N.am     10 SEL2        0.0000 
     45 N          10.8890   38.6390   12.8330 N.am      6 SEP2        0.0000 
     46 CA          8.5005   40.2855   12.5365 C.3       4 GLC5        0.0000 
     47 CA          7.8520   41.6350   13.9320 C.3      12 GLL5        0.0000 
     48 CA          9.1490   38.9360   11.1410 C.3       8 GLP5        0.0000 
     49 CA          9.4970   42.6610   13.4495 C.3       4 GLC5        0.0000 
     50 CA         11.1420   43.6870   12.9670 C.3       8 GLP5        0.0000 
     51 CA          7.0300   42.0035   11.3240 C.3       4 GLC5        0.0000 
     52 CA          7.1140   42.6800   13.3620 C.3      12 GLL5        0.0000 
     53 CA          6.9460   41.3270    9.2860 C.3       8 GLP5        0.0000 
     54 N           4.1750   43.8190   11.3780 N.am      2 SEC2        0.0000 
     55 N           4.9230   44.2530   12.5260 N.am     10 SEL2        0.0000 
     56 N           3.4270   43.3850   10.2300 N.am      6 SEP2        0.0000 
     57 CA          4.1440   50.5025   15.0625 C.3       4 GLC5        0.0000 
     58 CA          4.7600   48.4250   14.9870 C.3      12 GLL5        0.0000 
     59 CA          3.5280   52.5800   15.1380 C.3       8 GLP5        0.0000 
     60 N           8.6750   45.6130   15.2020 N.am      2 SEC2        0.0000 
     61 N           7.7500   46.3220   14.2310 N.am     10 SEL2        0.0000 
     62 N           9.6000   44.9040   16.1730 N.am      6 SEP2        0.0000 
     63 O           8.5155   47.4350   14.7440 O.2       1 ALC1        0.0000 
     64 O           7.7500   46.3220   14.2310 O.2       9 ALL1        0.0000 
     65 O           9.2810   48.5480   15.2570 O.2       5 ALP1        0.0000 
     66 CA         17.5755   36.1465   19.3390 C.3       4 GLC5        0.0000 
     67 CA         15.5120   36.7540   19.6510 C.3      12 GLL5        0.0000 
     68 CA         19.6390   35.5390   19.0270 C.3       8 GLP5        0.0000 
     69 CA         17.1680   35.1325   18.7635 C.3       4 GLC5        0.0000 
     70 CA         15.1790   36.0260   18.3340 C.3      12 GLL5        0.0000 
     71 CA         19.1570   34.2390   19.1930 C.3       8 GLP5        0.0000 
     72 CA         17.1315   35.7170   15.3220 C.3       4 GLC5        0.0000 
     73 CA         16.1880   36.3800   17.2120 C.3      12 GLL5        0.0000 
     74 CA         18.0750   35.0540   13.4320 C.3       8 GLP5        0.0000 
     75 CA         16.6620   38.1260   16.9335 C.3       4 GLC5        0.0000 
     76 CA         17.9135   35.9595   18.1195 C.3       4 GLC5        0.0000 
     77 CA          1.0690   45.4540   13.5325 C.3       4 GLC5        0.0000 
     78 CA          1.2890   47.0600   15.0440 C.3      12 GLL5        0.0000 
     79 CA          0.8490   43.8480   12.0210 C.3       8 GLP5        0.0000 
     80 CA          1.9550   47.3170   13.1860 C.3       4 GLC5        0.0000 
     81 CA          2.6210   47.5740   11.3280 C.3       8 GLP5        0.0000 
     82 CA          1.2195   47.4910   16.7595 C.3       4 GLC5        0.0000 
     83 CA          1.1500   47.9220   18.4750 C.3       8 GLP5        0.0000 
     84 CA         15.2400   39.5465   21.4970 C.3       4 GLC5        0.0000 
     85 CA         14.5800   39.2360   23.1690 C.3       8 GLP5        0.0000 
     86 CA         16.1943   42.1595   20.6645 C.3       4 GLC5        0.0000 
     87 CA         17.3290   43.6030   21.6350 C.3       8 GLP5        0.0000 
     88 CA         16.1420   40.1252   18.1760 C.3       4 GLC5        0.0000 
     89 CA         14.2372   39.8275   21.3133 C.3       4 GLC5        0.0000 
     90 CA         14.5137   38.8113   21.3325 C.3       4 GLC5        0.0000 
     91 CA         13.7820   38.5800   19.3750 C.3      12 GLL5        0.0000 
     92 CA         13.9981   38.7465   17.4589 C.3       4 GLC5        0.0000 
     93 CA         13.6460   38.7670   15.4290 C.3       8 GLP5        0.0000 
     94 CA          8.6990   37.4570   16.6737 C.3       4 GLC5        0.0000 
     95 CA          9.1550   36.0650   15.3200 C.3       8 GLP5        0.0000 
     96 CA          5.9688   41.0892   14.1850 C.3       4 GLC5        0.0000 
     97 CA          7.7830   41.3680   15.3100 C.3      12 GLL5        0.0000 
     98 CA          4.1200   40.6770   13.7490 C.3       8 GLP5        0.0000 
     99 CA          9.8107   40.8893   14.9285 C.3       4 GLC5        0.0000 
    100 CA          8.9977   43.0225   15.5328 C.3       4 GLC5        0.0000 
    101 CA         10.6160   44.2680   15.3610 C.3       8 GLP5        0.0000 
    102 CA          5.4143   41.8815   13.7545 C.3       4 GLC5        0.0000 
    103 CA          8.6037   43.8915   13.8325 C.3       4 GLC5        0.0000 
    104 CA          6.3030   43.4920   14.1580 C.3      12 GLL5        0.0000 
    105 CA         10.4990   44.6970   13.9050 C.3       8 GLP5        0.0000 
    106 CA          7.0983   44.2095   12.3045 C.3       4 GLC5        0.0000 
    107 CA          7.4880   45.3330   10.8490 C.3       8 GLP5        0.0000 
    108 CA          5.3632   41.6925   14.7815 C.3       4 GLC5        0.0000 
    109 CA          6.2370   43.2300   15.5290 C.3      12 GLL5        0.0000 
    110 CA          6.6762   45.7867   12.5690 C.3       4 GLC5        0.0000 
    111 CA          5.3570   45.7720   14.1560 C.3      12 GLL5        0.0000 
    112 CA          5.8978   48.7430   16.5328 C.3       4 GLC5        0.0000 
    113 CA          6.0790   48.0090   14.8580 C.3      12 GLL5        0.0000 
    114 CA          6.3760   49.2690   18.1430 C.3       8 GLP5        0.0000 
    115 CA         14.8933   37.8203   21.7122 C.3       4 GLC5        0.0000 
    116 CA         15.5377   34.3875   17.0145 C.3       4 GLC5        0.0000 
    117 CA         15.3920   32.5720   16.2560 C.3       8 GLP5        0.0000 
    118 CA         14.6648   37.4850   16.6010 C.3       4 GLC5        0.0000 
@<TRIPOS>BOND
@<TRIPOS>SUBSTRUCTURE
     1 ALC1        4 GROUP        1 X    ALC  0     ROOT ALC X 1
     2 SEC2        1 GROUP        1 X    SEC  0     **** SEC X 2
     3 ASC3       33 GROUP        1 X    ASC  0     **** ASC X 3
     4 GLC5        7 GROUP        1 X    GLC  0     **** GLC X 6
     5 ALP1        6 GROUP        1 Y    ALP  0     ROOT ALP Y 8
     6 SEP2        3 GROUP        1 Y    SEP  0     **** SEP Y 9
     7 ASP3       35 GROUP        1 Y    ASP  0     **** ASP Y 10
     8 GLP5        9 GROUP        1 Y    GLP  0     **** GLP Y 13
     9 ALL1        5 GROUP        1 Z    ALL  0     ROOT ALL Z 15
    10 SEL2        2 GROUP        1 Z    SEL  0     **** SEL Z 16
    11 ASL3       34 GROUP        1 Z    ASL  0     **** ASL Z 17
    12 GLL5        8 GROUP        1 Z    GLL  0     **** GLL Z 20
@<TRIPOS>SET

