#    Name: 1rek_B8L_1_ligand
#    Modification time : Tue Mar 25 00:33:45 2014

@<TRIPOS>MOLECULE
1rek_B8L_1_ligand
   76    79     1     0     0
SMALL
NO_CHARGES


@<TRIPOS>ATOM
      1 O1         17.4550   38.8030   20.0470 O.3       1 B8L351      0.0000 
      2 C1         16.0770   39.1820   19.8310 C.ar      1 B8L351      0.0000 
      3 C2         15.7230   40.5320   19.8190 C.ar      1 B8L351      0.0000 
      4 C3         14.3960   40.9000   19.5690 C.ar      1 B8L351      0.0000 
      5 C4         13.3930   39.9380   19.3460 C.ar      1 B8L351      0.0000 
      6 C5         13.7820   38.5800   19.3750 C.ar      1 B8L351      0.0000 
      7 C6         15.1130   38.1930   19.6170 C.ar      1 B8L351      0.0000 
      8 C7         12.0380   40.3230   19.3110 C.2       1 B8L351      0.0000 
      9 O7         11.6680   41.5020   19.3660 O.2       1 B8L351      0.0000 
     10 N8         11.1770   39.3140   19.1060 N.am      1 B8L351      0.0000 
     11 C8          9.7340   39.4380   19.2820 C.3       1 B8L351      0.0000 
     12 C9          8.9540   39.1420   17.9680 C.3       1 B8L351      0.0000 
     13 C10         7.5320   38.5560   18.0870 C.3       1 B8L351      0.0000 
     14 C11         6.6600   39.3150   19.0750 C.3       1 B8L351      0.0000 
     15 C12         6.8090   38.7520   20.4870 C.3       1 B8L351      0.0000 
     16 N13         8.1220   39.0270   21.0620 N.4       1 B8L351      0.0000 
     17 O9          8.9290   40.4050   17.2870 O.3       1 B8L351      0.0000 
     18 C14         9.3870   38.5830   20.4960 C.3       1 B8L351      0.0000 
     19 C15         8.5220   40.3350   15.8860 C.2       1 B8L351      0.0000 
     20 O15         8.6230   39.2810   15.2610 O.2       1 B8L351      0.0000 
     21 C16         7.7830   41.3680   15.3100 C.ar      1 B8L351      0.0000 
     22 C17         7.8520   41.6350   13.9320 C.ar      1 B8L351      0.0000 
     23 C18         7.1140   42.6800   13.3620 C.ar      1 B8L351      0.0000 
     24 C19         6.3030   43.4920   14.1580 C.ar      1 B8L351      0.0000 
     25 C20         6.2370   43.2300   15.5290 C.ar      1 B8L351      0.0000 
     26 C21         6.9760   42.1860   16.0990 C.ar      1 B8L351      0.0000 
     27 C22         5.5260   44.5080   13.5760 C.2       1 B8L351      0.0000 
     28 O22         4.9230   44.2530   12.5260 O.2       1 B8L351      0.0000 
     29 C23         5.3570   45.7720   14.1560 C.ar      1 B8L351      0.0000 
     30 C24         4.0420   46.2140   14.2960 C.ar      1 B8L351      0.0000 
     31 C26         3.7410   47.5190   14.7160 C.ar      1 B8L351      0.0000 
     32 O26         2.3560   47.9510   14.8370 O.3       1 B8L351      0.0000 
     33 C27         4.7600   48.4250   14.9870 C.ar      1 B8L351      0.0000 
     34 C28         6.0790   48.0090   14.8580 C.ar      1 B8L351      0.0000 
     35 C29         6.3720   46.7090   14.4220 C.ar      1 B8L351      0.0000 
     36 O29         7.7500   46.3220   14.2310 O.3       1 B8L351      0.0000 
     37 C66        15.5120   36.7540   19.6510 C.3       1 B8L351      0.0000 
     38 C71        15.1790   36.0260   18.3340 C.3       1 B8L351      0.0000 
     39 C72        14.9010   36.0550   20.8600 C.3       1 B8L351      0.0000 
     40 C81        16.1880   36.3800   17.2120 C.3       1 B8L351      0.0000 
     41 C30         1.2890   47.0600   15.0440 C.3       1 B8L351      0.0000 
     42 H          16.4304   41.2521   19.9923 H         1 B8L351      0.0000 
     43 H          14.1424   41.9037   19.5468 H         1 B8L351      0.0000 
     44 H          13.0653   37.8506   19.2133 H         1 B8L351      0.0000 
     45 H          11.5128   38.3655   18.8018 H         1 B8L351      0.0000 
     46 H           9.5237   40.4924   19.5634 H         1 B8L351      0.0000 
     47 H           9.5749   38.4492   17.3843 H         1 B8L351      0.0000 
     48 H           7.6110   37.5077   18.4000 H         1 B8L351      0.0000 
     49 H           7.0622   38.5746   17.0960 H         1 B8L351      0.0000 
     50 H           5.6157   39.2399   18.7686 H         1 B8L351      0.0000 
     51 H           6.9473   40.3674   19.0777 H         1 B8L351      0.0000 
     52 H           6.6229   37.6649   20.4419 H         1 B8L351      0.0000 
     53 H           6.0104   39.1862   21.1131 H         1 B8L351      0.0000 
     54 H          10.1971   38.6757   21.2233 H         1 B8L351      0.0000 
     55 H           9.3297   37.5400   20.1755 H         1 B8L351      0.0000 
     56 H           8.4557   41.0515   13.3332 H         1 B8L351      0.0000 
     57 H           7.1709   42.8495   12.3484 H         1 B8L351      0.0000 
     58 H           5.6353   43.8136   16.1313 H         1 B8L351      0.0000 
     59 H           6.9205   42.0225   17.1165 H         1 B8L351      0.0000 
     60 H           3.2613   45.5630   14.0847 H         1 B8L351      0.0000 
     61 H           4.5421   49.3794   15.2758 H         1 B8L351      0.0000 
     62 H           6.8490   48.6537   15.0821 H         1 B8L351      0.0000 
     63 H          16.6131   36.7086   19.7739 H         1 B8L351      0.0000 
     64 H          14.1791   36.3102   18.0106 H         1 B8L351      0.0000 
     65 H          15.2035   34.9508   18.5030 H         1 B8L351      0.0000 
     66 H          15.1599   35.0900   20.9012 H         1 B8L351      0.0000 
     67 H          15.1947   36.4742   21.7191 H         1 B8L351      0.0000 
     68 H          13.9017   36.0899   20.8434 H         1 B8L351      0.0000 
     69 H          17.1233   36.1280   17.4605 H         1 B8L351      0.0000 
     70 H          15.9742   35.9067   16.3574 H         1 B8L351      0.0000 
     71 H          16.1918   37.3597   17.0115 H         1 B8L351      0.0000 
     72 H           1.2143   46.3917   14.3038 H         1 B8L351      0.0000 
     73 H           1.3950   46.5448   15.8945 H         1 B8L351      0.0000 
     74 H           0.4118   47.5371   15.0978 H         1 B8L351      0.0000 
     75 H          17.9918   39.4866   19.5526 H         1 B8L351      0.0000 
     76 H           8.2360   47.1770   14.0497 H         1 B8L351      0.0000 
@<TRIPOS>BOND
     1    2    1 1    
     2   75    1 1    
     3    3    2 ar   
     4    7    2 ar   
     5    4    3 ar   
     6   42    3 1    
     7    5    4 ar   
     8   43    4 1    
     9    6    5 ar   
    10    8    5 1    
    11    7    6 ar   
    12   44    6 1    
    13   37    7 1    
    14    9    8 2    
    15   10    8 am   
    16   11   10 1    
    17   45   10 1    
    18   12   11 1    
    19   18   11 1    
    20   46   11 1    
    21   13   12 1    
    22   17   12 1    
    23   47   12 1    
    24   14   13 1    
    25   48   13 1    
    26   49   13 1    
    27   15   14 1    
    28   50   14 1    
    29   51   14 1    
    30   16   15 1    
    31   52   15 1    
    32   53   15 1    
    33   18   16 1    
    34   19   17 1    
    35   54   18 1    
    36   55   18 1    
    37   20   19 2    
    38   21   19 1    
    39   22   21 ar   
    40   26   21 ar   
    41   23   22 ar   
    42   56   22 1    
    43   24   23 ar   
    44   57   23 1    
    45   25   24 ar   
    46   27   24 1    
    47   26   25 ar   
    48   58   25 1    
    49   59   26 1    
    50   28   27 2    
    51   29   27 1    
    52   30   29 ar   
    53   35   29 ar   
    54   31   30 ar   
    55   60   30 1    
    56   32   31 1    
    57   33   31 ar   
    58   41   32 1    
    59   34   33 ar   
    60   61   33 1    
    61   35   34 ar   
    62   62   34 1    
    63   36   35 1    
    64   76   36 1    
    65   38   37 1    
    66   39   37 1    
    67   63   37 1    
    68   40   38 1    
    69   64   38 1    
    70   65   38 1    
    71   66   39 1    
    72   67   39 1    
    73   68   39 1    
    74   69   40 1    
    75   70   40 1    
    76   71   40 1    
    77   72   41 1    
    78   73   41 1    
    79   74   41 1    
@<TRIPOS>SUBSTRUCTURE
     1 B8L351      1 GROUP   
@<TRIPOS>SET

