#    Name: 2zf0_51U_1_INTS_M
#    Modification time : Tue Mar 25 10:40:18 2014

@<TRIPOS>MOLECULE
2zf0_51U_1_INTS_M
   65     0     9     0     0
SMALL
NO_CHARGES


@<TRIPOS>ATOM
      1 O          15.0695  -14.8755   23.7500 O.2       1 ALC1        0.0000 
      2 O          16.0130  -15.5380   23.0710 O.2       7 ALL1        0.0000 
      3 O          14.1260  -14.2130   24.4290 O.2       4 ALP1        0.0000 
      4 N          15.1805  -12.1060   23.9325 N.am      2 SEC2        0.0000 
      5 N          16.0810  -12.6940   22.9920 N.am      8 SEL2        0.0000 
      6 N          14.2800  -11.5180   24.8730 N.am      5 SEP2        0.0000 
      7 CA         17.2830  -13.3380   26.1165 C.3       3 GLC5        0.0000 
      8 CA         17.7490  -14.6700   24.6200 C.3       9 GLL5        0.0000 
      9 CA         16.8170  -12.0060   27.6130 C.3       6 GLP5        0.0000 
     10 CA         16.3765  -15.4075   26.2280 C.3       3 GLC5        0.0000 
     11 CA         15.0040  -16.1450   27.8360 C.3       6 GLP5        0.0000 
     12 CA         19.8050  -14.3360   27.1110 C.3       3 GLC5        0.0000 
     13 CA         19.4960  -13.0070   25.4070 C.3       9 GLL5        0.0000 
     14 CA         20.1140  -15.6650   28.8150 C.3       6 GLP5        0.0000 
     15 CA         21.3310  -10.6260   24.9620 C.3       3 GLC5        0.0000 
     16 CA         20.8130  -12.5340   25.4540 C.3       9 GLL5        0.0000 
     17 CA         21.8490   -8.7180   24.4700 C.3       6 GLP5        0.0000 
     18 CA         22.2505  -11.6180   23.6245 C.3       3 GLC5        0.0000 
     19 CA         21.8330  -13.2020   24.7660 C.3       9 GLL5        0.0000 
     20 CA         22.6680  -10.0340   22.4830 C.3       6 GLP5        0.0000 
     21 CA         17.4185  -11.0915   22.7960 C.3       3 GLC5        0.0000 
     22 CA         17.7310  -11.7510   20.9540 C.3       9 GLL5        0.0000 
     23 CA         17.1060  -10.4320   24.6380 C.3       6 GLP5        0.0000 
     24 O          16.2735   -9.4200   21.5355 O.2       1 ALC1        0.0000 
     25 O          15.6440  -10.3760   20.8610 O.2       7 ALL1        0.0000 
     26 O          16.9030   -8.4640   22.2100 O.2       4 ALP1        0.0000 
     27 CA         14.7890   -8.6095   18.7450 C.3       3 GLC5        0.0000 
     28 CA         14.3850  -10.1880   20.1890 C.3       9 GLL5        0.0000 
     29 CA         15.1930   -7.0310   17.3010 C.3       6 GLP5        0.0000 
     30 CA         11.2950   -8.4455   25.9015 C.3       3 GLC5        0.0000 
     31 CA         11.8900   -8.2190   24.1560 C.3       9 GLL5        0.0000 
     32 CA         10.7000   -8.6720   27.6470 C.3       6 GLP5        0.0000 
     33 CA         10.9605   -6.3970   25.0215 C.3       3 GLC5        0.0000 
     34 CA         10.0310   -4.5750   25.8870 C.3       6 GLP5        0.0000 
     35 CA          9.9455  -12.7030   21.5130 C.3       3 GLC5        0.0000 
     36 CA         11.3810  -11.4490   22.1700 C.3       9 GLL5        0.0000 
     37 CA          8.5100  -13.9570   20.8560 C.3       6 GLP5        0.0000 
     38 CA         22.4975  -12.0485   26.3065 C.3       3 GLC5        0.0000 
     39 CA         23.6720  -11.2290   27.5030 C.3       6 GLP5        0.0000 
     40 CA         18.5914  -11.7444   24.9424 C.3       3 GLC5        0.0000 
     41 CA         18.5333  -10.1378   19.3110 C.3       3 GLC5        0.0000 
     42 CA         18.8060   -8.5030   18.2280 C.3       6 GLP5        0.0000 
     43 CA         21.1430  -13.5725   20.2050 C.3       3 GLC5        0.0000 
     44 CA         19.7500  -12.9320   20.2670 C.3       9 GLL5        0.0000 
     45 CA         22.9940  -13.7470   19.7240 C.3       6 GLP5        0.0000 
     46 CA         19.6261  -10.8941   21.4988 C.3       3 GLC5        0.0000 
     47 CA         20.2470   -9.4360   22.6670 C.3       6 GLP5        0.0000 
     48 CA         18.7045  -14.0538   19.0839 C.3       3 GLC5        0.0000 
     49 CA         18.7900  -11.7940   19.8340 C.3       9 GLL5        0.0000 
     50 CA         18.3570  -14.9940   17.5900 C.3       6 GLP5        0.0000 
     51 CA         14.8045  -10.0213   22.4570 C.3       3 GLC5        0.0000 
     52 CA         15.7820   -9.8170   24.2060 C.3       6 GLP5        0.0000 
     53 CA         12.6623   -7.8593   21.4720 C.3       3 GLC5        0.0000 
     54 CA         13.1080   -9.2420   22.1710 C.3       9 GLL5        0.0000 
     55 CA         12.1360   -5.9660   21.2450 C.3       6 GLP5        0.0000 
     56 CA         12.0610   -7.3678   22.4413 C.3       3 GLC5        0.0000 
     57 CA         14.0123   -9.2835   23.8032 C.3       3 GLC5        0.0000 
     58 CA         10.2565   -8.4009   22.6361 C.3       3 GLC5        0.0000 
     59 CA         12.0820   -9.3200   23.1190 C.3       9 GLL5        0.0000 
     60 CA          8.9050   -7.2070   21.8990 C.3       6 GLP5        0.0000 
     61 CA         12.4158  -11.4708   24.1350 C.3       3 GLC5        0.0000 
     62 CA         13.3130  -12.2820   25.6280 C.3       6 GLP5        0.0000 
     63 CA         10.2799  -11.0431   20.8204 C.3       3 GLC5        0.0000 
     64 CA         11.2300  -10.4200   23.1090 C.3       9 GLL5        0.0000 
     65 CA          8.7030  -10.9380   19.7070 C.3       6 GLP5        0.0000 
@<TRIPOS>BOND
@<TRIPOS>SUBSTRUCTURE
     1 ALC1        1 GROUP        1 X    ALC  0     ROOT ALC X 1
     2 SEC2        4 GROUP        1 X    SEC  0     **** SEC X 2
     3 GLC5        7 GROUP        1 X    GLC  0     **** GLC X 6
     4 ALP1        3 GROUP        1 Y    ALP  0     ROOT ALP Y 8
     5 SEP2        6 GROUP        1 Y    SEP  0     **** SEP Y 9
     6 GLP5        9 GROUP        1 Y    GLP  0     **** GLP Y 13
     7 ALL1        2 GROUP        1 Z    ALL  0     ROOT ALL Z 15
     8 SEL2        5 GROUP        1 Z    SEL  0     **** SEL Z 16
     9 GLL5        8 GROUP        1 Z    GLL  0     **** GLL Z 20
@<TRIPOS>SET

