#    Name: 2zf0_51U_1_ligand
#    Modification time : Tue Mar 25 10:40:18 2014

@<TRIPOS>MOLECULE
2zf0_51U_1_ligand
   55    57     1     0     0
SMALL
NO_CHARGES


@<TRIPOS>ATOM
      1 N1         16.0130  -15.5380   23.0710 N.4       1 51U501      0.0000 
      2 C2         17.2490  -14.7450   23.1640 C.3       1 51U501      0.0000 
      3 C3         17.0420  -13.3530   22.6130 C.2       1 51U501      0.0000 
      4 O1         16.0810  -12.6940   22.9920 O.2       1 51U501      0.0000 
      5 C1         17.7490  -14.6700   24.6200 C.3       1 51U501      0.0000 
      6 C17        19.1850  -14.1520   24.6720 C.ar      1 51U501      0.0000 
      7 C18        20.2010  -14.8200   23.9830 C.ar      1 51U501      0.0000 
      8 C23        19.4960  -13.0070   25.4070 C.ar      1 51U501      0.0000 
      9 C19        21.5170  -14.3440   24.0300 C.ar      1 51U501      0.0000 
     10 C22        20.8130  -12.5340   25.4540 C.ar      1 51U501      0.0000 
     11 C20        21.8330  -13.2020   24.7660 C.ar      1 51U501      0.0000 
     12 N2         17.9390  -12.9210   21.7700 N.am      1 51U501      0.0000 
     13 C7         17.7310  -11.7510   20.9540 C.3       1 51U501      0.0000 
     14 C8         16.3270  -11.5810   20.4510 C.2       1 51U501      0.0000 
     15 O2         15.7970  -12.4350   19.7650 O.2       1 51U501      0.0000 
     16 C6         18.7900  -11.7940   19.8340 C.3       1 51U501      0.0000 
     17 C5         19.7500  -12.9320   20.2670 C.3       1 51U501      0.0000 
     18 C4         18.8340  -13.8640   21.1050 C.3       1 51U501      0.0000 
     19 N3         15.6440  -10.3760   20.8610 N.am      1 51U501      0.0000 
     20 C9         14.3850  -10.1880   20.1890 C.3       1 51U501      0.0000 
     21 C10        13.2690  -10.2630   21.2270 C.ar      1 51U501      0.0000 
     22 C11        13.1080   -9.2420   22.1710 C.ar      1 51U501      0.0000 
     23 C12        12.0820   -9.3200   23.1190 C.ar      1 51U501      0.0000 
     24 C13        11.8900   -8.2190   24.1560 C.3       1 51U501      0.0000 
     25 C14        11.2300  -10.4200   23.1090 C.ar      1 51U501      0.0000 
     26 C15        11.3810  -11.4490   22.1700 C.ar      1 51U501      0.0000 
     27 C16        12.4080  -11.3620   21.2280 C.ar      1 51U501      0.0000 
     28 H          18.0363  -15.2268   22.5780 H         1 51U501      0.0000 
     29 H          17.7054  -15.6630   25.0597 H         1 51U501      0.0000 
     30 H          17.1017  -14.0014   25.1814 H         1 51U501      0.0000 
     31 H          19.9826  -15.6641   23.4393 H         1 51U501      0.0000 
     32 H          18.7564  -12.5074   25.9167 H         1 51U501      0.0000 
     33 H          22.2568  -14.8433   23.5156 H         1 51U501      0.0000 
     34 H          21.0327  -11.6892   25.9982 H         1 51U501      0.0000 
     35 H          22.7912  -12.8573   24.8038 H         1 51U501      0.0000 
     36 H          17.9928  -10.8522   21.5646 H         1 51U501      0.0000 
     37 H          19.3189  -10.8791   19.8063 H         1 51U501      0.0000 
     38 H          18.3309  -12.0509   18.9171 H         1 51U501      0.0000 
     39 H          20.5094  -12.5398   20.8806 H         1 51U501      0.0000 
     40 H          20.0937  -13.4475   19.4166 H         1 51U501      0.0000 
     41 H          18.3123  -14.5038   20.4373 H         1 51U501      0.0000 
     42 H          19.4420  -14.3909   21.7978 H         1 51U501      0.0000 
     43 H          15.9956   -9.7654   21.5143 H         1 51U501      0.0000 
     44 H          14.2077  -10.9632   19.4445 H         1 51U501      0.0000 
     45 H          14.3308   -9.2145   19.7031 H         1 51U501      0.0000 
     46 H          13.7427   -8.4364   22.1675 H         1 51U501      0.0000 
     47 H          10.4681  -10.4834   23.8074 H         1 51U501      0.0000 
     48 H          10.7493  -12.2484   22.1763 H         1 51U501      0.0000 
     49 H          12.5304  -12.1095   20.5332 H         1 51U501      0.0000 
     50 H          16.1373  -16.4630   23.4299 H         1 51U501      0.0000 
     51 H          15.2648  -15.1215   23.5872 H         1 51U501      0.0000 
     52 H          15.7010  -15.6300   22.1253 H         1 51U501      0.0000 
     53 H          12.6983   -8.1084   24.7342 H         1 51U501      0.0000 
     54 H          11.7121   -7.3328   23.7282 H         1 51U501      0.0000 
     55 H          11.1192   -8.4112   24.7634 H         1 51U501      0.0000 
@<TRIPOS>BOND
     1    2    1 1    
     2   50    1 1    
     3   51    1 1    
     4   52    1 1    
     5    3    2 1    
     6    5    2 1    
     7   28    2 1    
     8    4    3 2    
     9   12    3 am   
    10    6    5 1    
    11   29    5 1    
    12   30    5 1    
    13    7    6 ar   
    14    8    6 ar   
    15    9    7 ar   
    16   31    7 1    
    17   10    8 ar   
    18   32    8 1    
    19   11    9 ar   
    20   33    9 1    
    21   11   10 ar   
    22   34   10 1    
    23   35   11 1    
    24   13   12 1    
    25   18   12 1    
    26   14   13 1    
    27   16   13 1    
    28   36   13 1    
    29   15   14 2    
    30   19   14 am   
    31   17   16 1    
    32   37   16 1    
    33   38   16 1    
    34   18   17 1    
    35   39   17 1    
    36   40   17 1    
    37   41   18 1    
    38   42   18 1    
    39   20   19 1    
    40   43   19 1    
    41   21   20 1    
    42   44   20 1    
    43   45   20 1    
    44   22   21 ar   
    45   27   21 ar   
    46   23   22 ar   
    47   46   22 1    
    48   24   23 1    
    49   25   23 ar   
    50   53   24 1    
    51   54   24 1    
    52   55   24 1    
    53   26   25 ar   
    54   47   25 1    
    55   27   26 ar   
    56   48   26 1    
    57   49   27 1    
@<TRIPOS>SUBSTRUCTURE
     1 51U501      1 GROUP   
@<TRIPOS>SET

