#    Name: 3pj3_04L_1_INTS_M
#    Modification time : Tue Mar 25 06:39:57 2014

@<TRIPOS>MOLECULE
3pj3_04L_1_INTS_M
  100     0     9     0     0
SMALL
NO_CHARGES


@<TRIPOS>ATOM
      1 O         -20.1955    5.9075  -21.6875 O.2       1 ALC1        0.0000 
      2 O         -19.4110    5.5190  -20.5390 O.2       7 ALL1        0.0000 
      3 O         -20.9800    6.2960  -22.8360 O.2       4 ALP1        0.0000 
      4 CA        -21.4965    6.2290  -20.1570 C.3       3 GLC5        0.0000 
      5 CA        -19.9410    5.3390  -19.3170 C.3       9 GLL5        0.0000 
      6 CA        -23.0520    7.1190  -20.9970 C.3       6 GLP5        0.0000 
      7 N         -22.0970    4.8395  -20.0045 N.am      2 SEC2        0.0000 
      8 N         -21.1930    5.0080  -18.9020 N.am      8 SEL2        0.0000 
      9 N         -23.0010    4.6710  -21.1070 N.am      5 SEP2        0.0000 
     10 O         -21.9780    4.0085  -15.0915 O.2       1 ALC1        0.0000 
     11 O         -20.8320    4.9910  -15.3130 O.2       7 ALL1        0.0000 
     12 O         -23.1240    3.0260  -14.8700 O.2       4 ALP1        0.0000 
     13 CA        -17.9145    4.1265  -16.1620 C.3       3 GLC5        0.0000 
     14 CA        -19.1950    5.4560  -17.0350 C.3       9 GLL5        0.0000 
     15 CA        -16.6340    2.7970  -15.2890 C.3       6 GLP5        0.0000 
     16 CA        -24.1695    7.3735   -9.1925 C.3       3 GLC5        0.0000 
     17 CA        -23.5970    9.0820  -10.0030 C.3       9 GLL5        0.0000 
     18 CA        -24.7420    5.6650   -8.3820 C.3       6 GLP5        0.0000 
     19 CA        -22.2120   10.2635   -9.6480 C.3       3 GLC5        0.0000 
     20 CA        -20.8270   11.4450   -9.2930 C.3       6 GLP5        0.0000 
     21 O         -21.5565    7.2335   -9.0710 O.2       1 ALC1        0.0000 
     22 O         -22.2710    7.1580  -10.2330 O.2       7 ALL1        0.0000 
     23 O         -20.8420    7.3090   -7.9090 O.2       4 ALP1        0.0000 
     24 CA        -25.1570    7.5040  -10.0685 C.3       3 GLC5        0.0000 
     25 CA        -24.8090    9.4170  -10.1300 C.3       9 GLL5        0.0000 
     26 CA        -25.5050    5.5910  -10.0070 C.3       6 GLP5        0.0000 
     27 CA        -23.6135    5.8475  -10.4570 C.3       3 GLC5        0.0000 
     28 CA        -21.7220    6.1040  -10.9070 C.3       9 GLL5        0.0000 
     29 N         -22.6485    8.7935  -12.7800 N.am      2 SEC2        0.0000 
     30 N         -23.3980    8.0280  -11.9610 N.am      8 SEL2        0.0000 
     31 N         -21.8990    9.5590  -13.5990 N.am      5 SEP2        0.0000 
     32 CA        -22.4815    3.6690  -18.9625 C.3       3 GLC5        0.0000 
     33 CA        -21.4750    4.9000  -17.5900 C.3       9 GLL5        0.0000 
     34 CA        -23.4880    2.4380  -20.3350 C.3       6 GLP5        0.0000 
     35 CA        -22.7545    5.9940  -18.7045 C.3       3 GLC5        0.0000 
     36 CA        -24.0340    7.0880  -19.8190 C.3       6 GLP5        0.0000 
     37 CA        -23.2075    5.2560   -9.3400 C.3       3 GLC5        0.0000 
     38 CA        -21.6730    4.8470  -10.2980 C.3       9 GLL5        0.0000 
     39 CA        -18.3250    2.7540  -14.1330 C.3       3 GLC5        0.0000 
     40 CA        -20.0160    2.7110  -12.9770 C.3       9 GLL5        0.0000 
     41 CA        -20.1435    2.2150  -14.9700 C.3       3 GLC5        0.0000 
     42 CA        -20.2710    1.7190  -16.9630 C.3       6 GLP5        0.0000 
     43 CA        -19.4105    0.6175  -13.4750 C.3       3 GLC5        0.0000 
     44 CA        -18.8050   -1.4760  -13.9730 C.3       6 GLP5        0.0000 
     45 CA        -28.0035   11.4955  -10.8560 C.3       3 GLC5        0.0000 
     46 CA        -26.1140   11.5330  -10.0160 C.3       9 GLL5        0.0000 
     47 CA        -29.8930   11.4580  -11.6960 C.3       6 GLP5        0.0000 
     48 CA        -24.6855   11.5310  -11.5955 C.3       3 GLC5        0.0000 
     49 CA        -23.2570   11.5290  -13.1750 C.3       6 GLP5        0.0000 
     50 CA        -25.7690    8.4160   -7.6765 C.3       3 GLC5        0.0000 
     51 CA        -25.4580   10.4820   -7.9460 C.3       9 GLL5        0.0000 
     52 CA        -26.0800    6.3500   -7.4070 C.3       6 GLP5        0.0000 
     53 CA        -16.0155    4.3020  -22.7260 C.3       3 GLC5        0.0000 
     54 CA        -16.6310    6.0130  -23.8920 C.3       9 GLL5        0.0000 
     55 CA        -15.4000    2.5910  -21.5600 C.3       6 GLP5        0.0000 
     56 CA        -28.1095   12.7195  -10.6605 C.3       3 GLC5        0.0000 
     57 CA        -26.7430   12.5560   -9.3010 C.3       9 GLL5        0.0000 
     58 CA        -29.4760   12.8830  -12.0200 C.3       6 GLP5        0.0000 
     59 CA        -26.5865   10.5195   -5.5035 C.3       3 GLC5        0.0000 
     60 CA        -26.0870   11.5010   -7.2280 C.3       9 GLL5        0.0000 
     61 CA        -27.0860    9.5380   -3.7790 C.3       6 GLP5        0.0000 
     62 CA        -18.1258    3.8578  -19.1863 C.3       3 GLC5        0.0000 
     63 CA        -18.9260    5.5720  -18.3960 C.3       9 GLL5        0.0000 
     64 CA        -16.8180    2.2600  -19.5160 C.3       6 GLP5        0.0000 
     65 CA        -19.8523    3.5873  -17.9098 C.3       3 GLC5        0.0000 
     66 CA        -20.4398    6.9613  -18.0962 C.3       3 GLC5        0.0000 
     67 CA        -21.4460    8.4670  -17.3360 C.3       6 GLP5        0.0000 
     68 CA        -22.4797    4.4072  -12.5785 C.3       3 GLC5        0.0000 
     69 CA        -20.6560    5.1520  -12.8700 C.3       9 GLL5        0.0000 
     70 CA        -24.0310    3.1170  -12.6250 C.3       6 GLP5        0.0000 
     71 CA        -23.7300   10.3893  -11.6208 C.3       3 GLC5        0.0000 
     72 CA        -17.9447    7.5555  -22.4582 C.3       3 GLC5        0.0000 
     73 CA        -17.1650    6.1230  -21.5330 C.3       9 GLL5        0.0000 
     74 CA        -18.5570    9.1750  -22.7330 C.3       6 GLP5        0.0000 
     75 CA        -19.0048    2.5162  -11.6145 C.3       3 GLC5        0.0000 
     76 CA        -17.6990    1.7270  -10.6110 C.3       6 GLP5        0.0000 
     77 CA        -22.8642    4.2963  -11.6137 C.3       3 GLC5        0.0000 
     78 CA        -20.4646    3.4064  -17.0861 C.3       3 GLC5        0.0000 
     79 CA        -20.4880    5.1190  -16.6220 C.3       9 GLL5        0.0000 
     80 CA        -21.0521    6.7804  -17.2726 C.3       3 GLC5        0.0000 
     81 CA        -19.4318    4.1528  -10.1130 C.3       3 GLC5        0.0000 
     82 CA        -21.1160    3.7520  -10.9680 C.3       9 GLL5        0.0000 
     83 CA        -17.4690    4.0060   -9.5930 C.3       6 GLP5        0.0000 
     84 CA        -21.8792    2.8138   -9.6065 C.3       3 GLC5        0.0000 
     85 CA        -22.3640    1.3280   -8.5800 C.3       6 GLP5        0.0000 
     86 CA        -22.2346    3.1927  -12.4601 C.3       3 GLC5        0.0000 
     87 CA        -20.6050    3.9000  -12.2590 C.3       9 GLL5        0.0000 
     88 CA        -16.0201    4.4723  -21.6494 C.3       3 GLC5        0.0000 
     89 CA        -17.0345    8.0392  -22.2778 C.3       3 GLC5        0.0000 
     90 CA        -15.9480    6.7710  -21.2940 C.3       9 GLL5        0.0000 
     91 CA        -26.1047   13.5222  -11.1077 C.3       3 GLC5        0.0000 
     92 CA        -25.7810   15.0000  -12.5570 C.3       6 GLP5        0.0000 
     93 CA        -17.2910    7.7547  -23.2525 C.3       3 GLC5        0.0000 
     94 CA        -27.8697   14.1615   -8.7495 C.3       3 GLC5        0.0000 
     95 CA        -29.0020   15.7760   -8.8950 C.3       6 GLP5        0.0000 
     96 CA        -25.6542   14.2305   -9.0460 C.3       3 GLC5        0.0000 
     97 CA        -24.5710   15.9140   -9.4880 C.3       6 GLP5        0.0000 
     98 CA        -28.1887   11.4622   -6.7323 C.3       3 GLC5        0.0000 
     99 CA        -26.7320   12.5380   -7.9070 C.3       9 GLL5        0.0000 
    100 CA        -29.9680   10.9050   -5.8970 C.3       6 GLP5        0.0000 
@<TRIPOS>BOND
@<TRIPOS>SUBSTRUCTURE
     1 ALC1        1 GROUP        1 X    ALC  0     ROOT ALC X 1
     2 SEC2        7 GROUP        1 X    SEC  0     **** SEC X 2
     3 GLC5        4 GROUP        1 X    GLC  0     **** GLC X 6
     4 ALP1        3 GROUP        1 Y    ALP  0     ROOT ALP Y 8
     5 SEP2        9 GROUP        1 Y    SEP  0     **** SEP Y 9
     6 GLP5        6 GROUP        1 Y    GLP  0     **** GLP Y 13
     7 ALL1        2 GROUP        1 Z    ALL  0     ROOT ALL Z 15
     8 SEL2        8 GROUP        1 Z    SEL  0     **** SEL Z 16
     9 GLL5        5 GROUP        1 Z    GLL  0     **** GLL Z 20
@<TRIPOS>SET

