#    Name: 3pj3_04L_1_ligand
#    Modification time : Tue Mar 25 06:39:57 2014

@<TRIPOS>MOLECULE
3pj3_04L_1_ligand
   59    63     1     0     0
SMALL
NO_CHARGES


@<TRIPOS>ATOM
      1 C1        -18.1040    5.8430  -20.4070 C.2       1 04L1        0.0000 
      2 N2        -19.4110    5.5190  -20.5390 N.pl3     1 04L1        0.0000 
      3 N3        -17.8100    5.8760  -19.0880 N.2       1 04L1        0.0000 
      4 C4        -19.9410    5.3390  -19.3170 C.ar      1 04L1        0.0000 
      5 C5        -20.1110    5.3690  -14.2500 C.2       1 04L1        0.0000 
      6 C6        -18.9260    5.5720  -18.3960 C.ar      1 04L1        0.0000 
      7 C7        -20.6560    5.1520  -12.8700 C.ar      1 04L1        0.0000 
      8 N8        -21.1930    5.0080  -18.9020 N.ar      1 04L1        0.0000 
      9 N9        -20.8320    4.9910  -15.3130 N.am      1 04L1        0.0000 
     10 C10       -19.1950    5.4560  -17.0350 C.ar      1 04L1        0.0000 
     11 C11       -23.0900    8.0760  -10.7740 C.2       1 04L1        0.0000 
     12 C12       -23.5970    9.0820  -10.0030 C.2       1 04L1        0.0000 
     13 N13       -22.2710    7.1580  -10.2330 N.am      1 04L1        0.0000 
     14 C14       -20.4880    5.1190  -16.6220 C.ar      1 04L1        0.0000 
     15 C15       -24.8090    9.4170  -10.1300 C.2       1 04L1        0.0000 
     16 C16       -21.2010    6.2430  -12.1940 C.ar      1 04L1        0.0000 
     17 C17       -17.1650    6.1230  -21.5330 C.ar      1 04L1        0.0000 
     18 O18       -19.0180    5.9000  -14.3530 O.2       1 04L1        0.0000 
     19 C19       -20.6050    3.9000  -12.2590 C.ar      1 04L1        0.0000 
     20 C20       -21.7220    6.1040  -10.9070 C.ar      1 04L1        0.0000 
     21 O21       -23.3980    8.0280  -11.9610 O.2       1 04L1        0.0000 
     22 C22       -21.4750    4.9000  -17.5900 C.ar      1 04L1        0.0000 
     23 C23       -21.1160    3.7520  -10.9680 C.ar      1 04L1        0.0000 
     24 C24       -21.6730    4.8470  -10.2980 C.ar      1 04L1        0.0000 
     25 C25       -25.4630   10.4980   -9.3440 C.ar      1 04L1        0.0000 
     26 C26       -20.0160    2.7110  -12.9770 C.3       1 04L1        0.0000 
     27 C27       -17.5000    5.7490  -22.8340 C.ar      1 04L1        0.0000 
     28 C28       -15.9480    6.7710  -21.2940 C.ar      1 04L1        0.0000 
     29 C29       -26.1140   11.5330  -10.0160 C.ar      1 04L1        0.0000 
     30 C30       -25.4580   10.4820   -7.9460 C.ar      1 04L1        0.0000 
     31 C31       -16.6310    6.0130  -23.8920 C.ar      1 04L1        0.0000 
     32 C32       -15.0760    7.0360  -22.3510 C.ar      1 04L1        0.0000 
     33 C33       -26.7430   12.5560   -9.3010 C.ar      1 04L1        0.0000 
     34 C34       -26.0870   11.5010   -7.2280 C.ar      1 04L1        0.0000 
     35 C35       -15.4190    6.6560  -23.6520 C.ar      1 04L1        0.0000 
     36 C36       -26.7320   12.5380   -7.9070 C.ar      1 04L1        0.0000 
     37 H         -19.8837    5.4321  -21.3807 H         1 04L1        0.0000 
     38 H         -21.8003    4.5302  -15.1158 H         1 04L1        0.0000 
     39 H         -18.4597    5.6144  -16.3448 H         1 04L1        0.0000 
     40 H         -22.9446    9.5469   -9.3205 H         1 04L1        0.0000 
     41 H         -22.0237    7.2524   -9.1916 H         1 04L1        0.0000 
     42 H         -25.4792    8.9522  -10.8173 H         1 04L1        0.0000 
     43 H         -21.2196    7.1693  -12.6530 H         1 04L1        0.0000 
     44 H         -22.4327    4.6514  -17.2673 H         1 04L1        0.0000 
     45 H         -21.0835    2.8339  -10.5059 H         1 04L1        0.0000 
     46 H         -22.0501    4.7247   -9.3474 H         1 04L1        0.0000 
     47 H         -18.3964    5.2740  -23.0147 H         1 04L1        0.0000 
     48 H         -15.6975    7.0515  -20.3384 H         1 04L1        0.0000 
     49 H         -26.1318   11.5442  -11.0452 H         1 04L1        0.0000 
     50 H         -24.9890    9.7164   -7.4453 H         1 04L1        0.0000 
     51 H         -16.8849    5.7334  -24.8468 H         1 04L1        0.0000 
     52 H         -14.1830    7.5096  -22.1744 H         1 04L1        0.0000 
     53 H         -27.2116   13.3183   -9.8026 H         1 04L1        0.0000 
     54 H         -26.0759   11.4888   -6.2021 H         1 04L1        0.0000 
     55 H         -14.7766    6.8518  -24.4281 H         1 04L1        0.0000 
     56 H         -27.1968   13.2850   -7.3788 H         1 04L1        0.0000 
     57 H         -19.0572    2.8605  -13.2184 H         1 04L1        0.0000 
     58 H         -20.0515    1.8836  -12.4164 H         1 04L1        0.0000 
     59 H         -20.5043    2.5108  -13.8264 H         1 04L1        0.0000 
@<TRIPOS>BOND
     1    2    1 1    
     2    3    1 2    
     3   17    1 1    
     4    4    2 1    
     5   37    2 1    
     6    6    3 1    
     7    6    4 ar   
     8    8    4 ar   
     9    7    5 1    
    10    9    5 am   
    11   18    5 2    
    12   10    6 ar   
    13   16    7 ar   
    14   19    7 ar   
    15   22    8 ar   
    16   14    9 1    
    17   38    9 1    
    18   14   10 ar   
    19   39   10 1    
    20   12   11 1    
    21   13   11 am   
    22   21   11 2    
    23   15   12 2    
    24   40   12 1    
    25   20   13 1    
    26   41   13 1    
    27   22   14 ar   
    28   25   15 1    
    29   42   15 1    
    30   20   16 ar   
    31   43   16 1    
    32   27   17 ar   
    33   28   17 ar   
    34   23   19 ar   
    35   26   19 1    
    36   24   20 ar   
    37   44   22 1    
    38   24   23 ar   
    39   45   23 1    
    40   46   24 1    
    41   29   25 ar   
    42   30   25 ar   
    43   57   26 1    
    44   58   26 1    
    45   59   26 1    
    46   31   27 ar   
    47   47   27 1    
    48   32   28 ar   
    49   48   28 1    
    50   33   29 ar   
    51   49   29 1    
    52   34   30 ar   
    53   50   30 1    
    54   35   31 ar   
    55   51   31 1    
    56   35   32 ar   
    57   52   32 1    
    58   36   33 ar   
    59   53   33 1    
    60   36   34 ar   
    61   54   34 1    
    62   55   35 1    
    63   56   36 1    
@<TRIPOS>SUBSTRUCTURE
     1 04L1        1 GROUP   
@<TRIPOS>SET

