#    Name: 4fko_20K_1_INTS_M
#    Modification time : Mon Mar 24 20:13:48 2014

@<TRIPOS>MOLECULE
4fko_20K_1_INTS_M
   67     0     9     0     0
SMALL
NO_CHARGES


@<TRIPOS>ATOM
      1 CA         -5.2150   -6.9680   31.8110 C.3       3 GLC5        0.0000 
      2 CA         -6.2250   -8.6680   30.8430 C.3       9 GLL5        0.0000 
      3 CA         -4.2050   -5.2680   32.7790 C.3       6 GLP5        0.0000 
      4 CA          2.5300   -8.8125   24.8130 C.3       3 GLC5        0.0000 
      5 CA          0.9480   -8.9270   23.3440 C.3       9 GLL5        0.0000 
      6 CA          4.1120   -8.6980   26.2820 C.3       6 GLP5        0.0000 
      7 N          -2.8620   -2.4900   28.9300 N.am      2 SEC2        0.0000 
      8 N          -1.9870   -3.4550   28.1990 N.am      8 SEL2        0.0000 
      9 N          -3.7370   -1.5250   29.6610 N.am      5 SEP2        0.0000 
     10 O          -4.2255   -4.5115   29.2415 O.2       1 ALC1        0.0000 
     11 O          -3.2340   -5.3190   28.5810 O.2       7 ALL1        0.0000 
     12 O          -5.2170   -3.7040   29.9020 O.2       4 ALP1        0.0000 
     13 CA          3.7390   -3.4115   25.8755 C.3       3 GLC5        0.0000 
     14 CA          2.5790   -4.5800   25.0410 C.3       9 GLL5        0.0000 
     15 CA          4.8990   -2.2430   26.7100 C.3       6 GLP5        0.0000 
     16 CA          1.3945   -3.4550   23.6280 C.3       3 GLC5        0.0000 
     17 CA          0.2100   -2.3300   22.2150 C.3       6 GLP5        0.0000 
     18 CA          3.4225   -4.2310   23.1575 C.3       3 GLC5        0.0000 
     19 CA          4.2660   -3.8820   21.2740 C.3       6 GLP5        0.0000 
     20 CA         -1.1525   -4.7730   24.5045 C.3       3 GLC5        0.0000 
     21 CA          0.3790   -5.8070   25.6380 C.3       9 GLL5        0.0000 
     22 CA         -2.6840   -3.7390   23.3710 C.3       6 GLP5        0.0000 
     23 CA         -0.4630   -6.2235   28.2585 C.3       3 GLC5        0.0000 
     24 CA         -0.3820   -4.9200   26.5380 C.3       9 GLL5        0.0000 
     25 CA         -0.5440   -7.5270   29.9790 C.3       6 GLP5        0.0000 
     26 CA          1.5395   -2.1835   27.2685 C.3       3 GLC5        0.0000 
     27 CA         -0.0960   -3.5730   26.7140 C.3       9 GLL5        0.0000 
     28 CA          3.1750   -0.7940   27.8230 C.3       6 GLP5        0.0000 
     29 CA         -1.4015   -1.9495   29.3330 C.3       3 GLC5        0.0000 
     30 CA         -0.9560   -2.8900   27.5540 C.3       9 GLL5        0.0000 
     31 CA         -1.8470   -1.0090   31.1120 C.3       6 GLP5        0.0000 
     32 CA         -1.3605   -6.1415   28.9680 C.3       3 GLC5        0.0000 
     33 CA         -2.1770   -4.7560   27.9570 C.3       9 GLL5        0.0000 
     34 CA         -0.3115   -4.3740   28.8795 C.3       3 GLC5        0.0000 
     35 CA          1.5540   -3.9920   29.8020 C.3       6 GLP5        0.0000 
     36 CA         -3.1785   -4.8345   26.5125 C.3       3 GLC5        0.0000 
     37 CA         -4.1800   -4.9130   25.0680 C.3       6 GLP5        0.0000 
     38 CA         -8.7560   -8.9705   27.5140 C.3       3 GLC5        0.0000 
     39 CA         -7.0860  -10.3300   28.0320 C.3       9 GLL5        0.0000 
     40 CA        -10.4260   -7.6110   26.9960 C.3       6 GLP5        0.0000 
     41 CA         -8.7710  -10.7980   28.0945 C.3       3 GLC5        0.0000 
     42 CA        -10.4560  -11.2660   28.1570 C.3       6 GLP5        0.0000 
     43 CA         -3.5455   -9.0630   30.5705 C.3       3 GLC5        0.0000 
     44 CA         -5.2510   -8.2190   29.4900 C.3       9 GLL5        0.0000 
     45 CA         -1.8400   -9.9070   31.6510 C.3       6 GLP5        0.0000 
     46 CA          1.5032   -7.0340   26.8115 C.3       3 GLC5        0.0000 
     47 CA         -0.3820   -7.3210   25.2360 C.3       9 GLL5        0.0000 
     48 CA          3.0080   -7.5040   28.1860 C.3       6 GLP5        0.0000 
     49 CA          2.5408   -6.3145   26.5823 C.3       3 GLC5        0.0000 
     50 CA          1.5680   -5.6700   24.9160 C.3       9 GLL5        0.0000 
     51 CA         -0.1695   -1.3527   26.3555 C.3       3 GLC5        0.0000 
     52 CA          0.1870    0.5260   25.5770 C.3       6 GLP5        0.0000 
     53 CA          0.4783   -3.7801   28.4460 C.3       3 GLC5        0.0000 
     54 CA         -2.1113   -3.5756   25.8080 C.3       3 GLC5        0.0000 
     55 CA         -3.6250   -3.5830   24.5260 C.3       6 GLP5        0.0000 
     56 CA         -3.9282   -5.9820   26.5235 C.3       3 GLC5        0.0000 
     57 CA         -3.8230   -6.5930   28.4810 C.3       9 GLL5        0.0000 
     58 CA         -4.8665   -8.0663   25.6755 C.3       3 GLC5        0.0000 
     59 CA         -3.5300   -7.5090   27.4770 C.3       9 GLL5        0.0000 
     60 CA         -5.9160   -7.9940   23.8710 C.3       6 GLP5        0.0000 
     61 CA         -2.9010   -9.5053   29.1133 C.3       3 GLC5        0.0000 
     62 CA         -4.1040   -8.7680   27.4830 C.3       9 GLL5        0.0000 
     63 CA         -1.2640  -10.0600   30.2350 C.3       6 GLP5        0.0000 
     64 CA         -6.7047   -6.8453   28.5610 C.3       3 GLC5        0.0000 
     65 CA         -8.4260   -6.1060   27.6360 C.3       6 GLP5        0.0000 
     66 CA         -2.3701   -7.2637   29.3547 C.3       3 GLC5        0.0000 
     67 CA         -4.7160   -6.9500   29.4820 C.3       9 GLL5        0.0000 
@<TRIPOS>BOND
@<TRIPOS>SUBSTRUCTURE
     1 ALC1       10 GROUP        1 X    ALC  0     ROOT ALC X 1
     2 SEC2        7 GROUP        1 X    SEC  0     **** SEC X 2
     3 GLC5        1 GROUP        1 X    GLC  0     **** GLC X 6
     4 ALP1       12 GROUP        1 Y    ALP  0     ROOT ALP Y 8
     5 SEP2        9 GROUP        1 Y    SEP  0     **** SEP Y 9
     6 GLP5        3 GROUP        1 Y    GLP  0     **** GLP Y 13
     7 ALL1       11 GROUP        1 Z    ALL  0     ROOT ALL Z 15
     8 SEL2        8 GROUP        1 Z    SEL  0     **** SEL Z 16
     9 GLL5        2 GROUP        1 Z    GLL  0     **** GLL Z 20
@<TRIPOS>SET

