#    Name: 4fko_20K_1_ligand
#    Modification time : Mon Mar 24 20:13:48 2014

@<TRIPOS>MOLECULE
4fko_20K_1_ligand
   42    44     1     0     0
SMALL
NO_CHARGES


@<TRIPOS>ATOM
      1 S          -0.3820   -7.3210   25.2360 S.3       1 20K301      0.0000 
      2 CL         -6.2250   -8.6680   30.8430 Cl        1 20K301      0.0000 
      3 C1          0.9480   -8.9270   23.3440 C.3       1 20K301      0.0000 
      4 N1          1.8190   -6.7250   24.0540 N.2       1 20K301      0.0000 
      5 C2          0.9060   -7.6520   24.1180 C.2       1 20K301      0.0000 
      6 N2         -1.9870   -3.4550   28.1990 N.ar      1 20K301      0.0000 
      7 C3          1.5680   -5.6700   24.9160 C.2       1 20K301      0.0000 
      8 N3         -3.2340   -5.3190   28.5810 N.pl3     1 20K301      0.0000 
      9 C4          2.5790   -4.5800   25.0410 C.3       1 20K301      0.0000 
     10 N4         -5.6590  -10.4500   28.4490 N.3       1 20K301      0.0000 
     11 C5          0.3790   -5.8070   25.6380 C.2       1 20K301      0.0000 
     12 N5         -1.4070   -5.5300   27.1530 N.ar      1 20K301      0.0000 
     13 C6         -0.3820   -4.9200   26.5380 C.ar      1 20K301      0.0000 
     14 C7         -0.0960   -3.5730   26.7140 C.ar      1 20K301      0.0000 
     15 C8         -0.9560   -2.8900   27.5540 C.ar      1 20K301      0.0000 
     16 C9         -2.1770   -4.7560   27.9570 C.ar      1 20K301      0.0000 
     17 C10        -3.8230   -6.5930   28.4810 C.ar      1 20K301      0.0000 
     18 C11        -3.5300   -7.5090   27.4770 C.ar      1 20K301      0.0000 
     19 C12        -4.1040   -8.7680   27.4830 C.ar      1 20K301      0.0000 
     20 C13        -4.9720   -9.1330   28.5000 C.ar      1 20K301      0.0000 
     21 C14        -4.9410  -11.4690   27.6310 C.3       1 20K301      0.0000 
     22 C15        -7.0860  -10.3300   28.0320 C.3       1 20K301      0.0000 
     23 C16        -5.2510   -8.2190   29.4900 C.ar      1 20K301      0.0000 
     24 C17        -4.7160   -6.9500   29.4820 C.ar      1 20K301      0.0000 
     25 H          -3.7536   -4.6611   29.3236 H         1 20K301      0.0000 
     26 H           0.6774   -3.1309   26.2642 H         1 20K301      0.0000 
     27 H          -0.7734   -1.8469   27.6864 H         1 20K301      0.0000 
     28 H          -2.8772   -7.2444   26.7206 H         1 20K301      0.0000 
     29 H          -3.8860   -9.4373   26.7292 H         1 20K301      0.0000 
     30 H          -4.9723   -6.2704   30.2078 H         1 20K301      0.0000 
     31 H           1.7493   -8.9731   22.7475 H         1 20K301      0.0000 
     32 H           0.9837   -9.7254   23.9451 H         1 20K301      0.0000 
     33 H           0.1424   -9.0345   22.7614 H         1 20K301      0.0000 
     34 H           3.4620   -4.9269   25.3572 H         1 20K301      0.0000 
     35 H           2.7403   -4.1210   24.1673 H         1 20K301      0.0000 
     36 H           2.2898   -3.8780   25.6918 H         1 20K301      0.0000 
     37 H          -4.0222  -11.6477   27.9831 H         1 20K301      0.0000 
     38 H          -5.4254  -12.3438   27.6186 H         1 20K301      0.0000 
     39 H          -4.8388  -11.1770   26.6800 H         1 20K301      0.0000 
     40 H          -7.1743   -9.9232   27.1228 H         1 20K301      0.0000 
     41 H          -7.5397  -11.2206   28.0000 H         1 20K301      0.0000 
     42 H          -7.6100   -9.7566   28.6618 H         1 20K301      0.0000 
@<TRIPOS>BOND
     1    5    1 1    
     2   11    1 1    
     3   23    2 1    
     4    5    3 1    
     5   31    3 1    
     6   32    3 1    
     7   33    3 1    
     8    5    4 2    
     9    7    4 1    
    10   15    6 ar   
    11   16    6 ar   
    12    9    7 1    
    13   11    7 2    
    14   16    8 1    
    15   17    8 1    
    16   25    8 1    
    17   34    9 1    
    18   35    9 1    
    19   36    9 1    
    20   20   10 1    
    21   21   10 1    
    22   22   10 1    
    23   13   11 1    
    24   13   12 ar   
    25   16   12 ar   
    26   14   13 ar   
    27   15   14 ar   
    28   26   14 1    
    29   27   15 1    
    30   18   17 ar   
    31   24   17 ar   
    32   19   18 ar   
    33   28   18 1    
    34   20   19 ar   
    35   29   19 1    
    36   23   20 ar   
    37   37   21 1    
    38   38   21 1    
    39   39   21 1    
    40   40   22 1    
    41   41   22 1    
    42   42   22 1    
    43   24   23 ar   
    44   30   24 1    
@<TRIPOS>SUBSTRUCTURE
     1 20K301      1 GROUP   
@<TRIPOS>SET

