#    Name: 3zws_AVQ_2_INTS_M
#    Modification time : Tue Mar 25 04:03:46 2014

@<TRIPOS>MOLECULE
3zws_AVQ_2_INTS_M
   64     0     6     0     0
SMALL
NO_CHARGES


@<TRIPOS>ATOM
      1 CA        -29.9570   -8.5520   -0.0165 C.3       2 GLC5        0.0000 
      2 CA        -31.6600   -9.2190    0.2060 C.3       6 GLL5        0.0000 
      3 CA        -28.2540   -7.8850   -0.2390 C.3       4 GLP5        0.0000 
      4 CA        -35.3620   -9.2160    7.0965 C.3       2 GLC5        0.0000 
      5 CA        -35.1460  -10.1680    5.2280 C.3       6 GLL5        0.0000 
      6 CA        -35.5780   -8.2640    8.9650 C.3       4 GLP5        0.0000 
      7 CA        -34.4150  -11.5685    6.3705 C.3       2 GLC5        0.0000 
      8 CA        -33.6840  -12.9690    7.5130 C.3       4 GLP5        0.0000 
      9 CA        -36.1350  -11.8965    5.4145 C.3       2 GLC5        0.0000 
     10 CA        -37.1240  -13.6250    5.6010 C.3       4 GLP5        0.0000 
     11 CA        -36.8475   -8.8200    5.3210 C.3       2 GLC5        0.0000 
     12 CA        -38.5490   -7.4720    5.4140 C.3       4 GLP5        0.0000 
     13 CA        -30.6420  -11.0580    3.0880 C.3       2 GLC5        0.0000 
     14 CA        -31.7510  -11.8890    1.7980 C.3       6 GLL5        0.0000 
     15 CA        -29.5330  -10.2270    4.3780 C.3       4 GLP5        0.0000 
     16 CA        -30.9955  -13.8990    2.2395 C.3       2 GLC5        0.0000 
     17 CA        -30.2400  -15.9090    2.6810 C.3       4 GLP5        0.0000 
     18 CA        -33.8740  -11.7310    0.2585 C.3       2 GLC5        0.0000 
     19 CA        -32.3000  -12.5900    0.2170 C.3       6 GLL5        0.0000 
     20 CA        -35.4480  -10.8720    0.3000 C.3       4 GLP5        0.0000 
     21 CA        -33.3180  -12.7800   -1.3525 C.3       2 GLC5        0.0000 
     22 CA        -34.3360  -12.9700   -2.9220 C.3       4 GLP5        0.0000 
     23 CA        -30.6720  -12.8485   -0.7315 C.3       2 GLC5        0.0000 
     24 CA        -29.0440  -13.1070   -1.6800 C.3       4 GLP5        0.0000 
     25 N         -35.5030  -17.2215   -0.6695 N.am      1 SEC2        0.0000 
     26 N         -35.3370  -16.5900    0.6550 N.am      5 SEL2        0.0000 
     27 N         -35.6690  -17.8530   -1.9940 N.am      3 SEP2        0.0000 
     28 CA        -37.6100  -16.9535    1.0535 C.3       2 GLC5        0.0000 
     29 CA        -36.7260  -18.5150    1.3750 C.3       6 GLL5        0.0000 
     30 CA        -38.4940  -15.3920    0.7320 C.3       4 GLP5        0.0000 
     31 CA        -37.2355  -20.3115    1.9740 C.3       2 GLC5        0.0000 
     32 CA        -37.7450  -22.1080    2.5730 C.3       4 GLP5        0.0000 
     33 CA        -36.6180  -20.0185   -0.0735 C.3       2 GLC5        0.0000 
     34 CA        -36.5100  -21.5220   -1.5220 C.3       4 GLP5        0.0000 
     35 CA        -36.9170  -17.3130    4.5685 C.3       2 GLC5        0.0000 
     36 CA        -35.5710  -16.9600    2.9970 C.3       6 GLL5        0.0000 
     37 CA        -38.2630  -17.6660    6.1400 C.3       4 GLP5        0.0000 
     38 CA        -37.0325  -16.1760    1.8645 C.3       2 GLC5        0.0000 
     39 CA        -33.6600  -17.1415    2.0730 C.3       2 GLC5        0.0000 
     40 CA        -31.7490  -17.3230    1.1490 C.3       4 GLP5        0.0000 
     41 CA        -35.9405  -14.7490    4.4255 C.3       2 GLC5        0.0000 
     42 CA        -34.7570  -15.8730    3.2500 C.3       6 GLL5        0.0000 
     43 CA        -36.4315  -14.9525    2.2550 C.3       2 GLC5        0.0000 
     44 CA        -38.1060  -14.0320    1.2600 C.3       4 GLP5        0.0000 
     45 CA        -32.9980  -16.4775    2.9240 C.3       2 GLC5        0.0000 
     46 CA        -31.2390  -17.0820    2.5980 C.3       4 GLP5        0.0000 
     47 N         -33.4750  -14.7485    5.0735 N.am      1 SEC2        0.0000 
     48 N         -34.4530  -15.4920    4.5050 N.am      5 SEL2        0.0000 
     49 N         -32.4970  -14.0050    5.6420 N.am      3 SEP2        0.0000 
     50 CA        -33.7945  -10.1040    0.6048 C.3       2 GLC5        0.0000 
     51 CA        -32.6220   -9.4530    1.6130 C.3       6 GLL5        0.0000 
     52 CA        -31.0742  -10.1520    3.1522 C.3       2 GLC5        0.0000 
     53 CA        -32.2137   -8.8827    4.0415 C.3       2 GLC5        0.0000 
     54 CA        -33.4230   -8.4110    2.0820 C.3       6 GLL5        0.0000 
     55 CA        -30.6010   -9.2540    5.4400 C.3       4 GLP5        0.0000 
     56 CA        -35.0472   -9.0367    1.4190 C.3       2 GLC5        0.0000 
     57 CA        -34.2300   -8.6120    3.2040 C.3       6 GLL5        0.0000 
     58 CA        -36.2680   -9.5620    0.1950 C.3       4 GLP5        0.0000 
     59 CA        -32.2010   -9.8095    4.5230 C.3       2 GLC5        0.0000 
     60 CA        -34.1980   -9.8450    3.8400 C.3       6 GLL5        0.0000 
     61 CA        -34.6245  -10.6185    1.9530 C.3       2 GLC5        0.0000 
     62 CA        -33.4040  -10.8850    3.3720 C.3       6 GLL5        0.0000 
     63 CA        -33.8140  -11.0835    1.1595 C.3       2 GLC5        0.0000 
     64 CA        -32.6090  -10.7010    2.2400 C.3       6 GLL5        0.0000 
@<TRIPOS>BOND
@<TRIPOS>SUBSTRUCTURE
     1 SEC2       25 GROUP        1 X    SEC  0     ROOT SEC X 2
     2 GLC5        1 GROUP        1 X    GLC  0     **** GLC X 6
     3 SEP2       27 GROUP        1 Y    SEP  0     ROOT SEP Y 9
     4 GLP5        3 GROUP        1 Y    GLP  0     **** GLP Y 13
     5 SEL2       26 GROUP        1 Z    SEL  0     ROOT SEL Z 16
     6 GLL5        2 GROUP        1 Z    GLL  0     **** GLL Z 20
@<TRIPOS>SET

