#    Name: 3zws_AVQ_2_ligand
#    Modification time : Tue Mar 25 04:03:47 2014

@<TRIPOS>MOLECULE
3zws_AVQ_2_ligand
   31    33     1     0     0
SMALL
NO_CHARGES


@<TRIPOS>ATOM
      1 CLD       -31.6600   -9.2190    0.2060 Cl        1 AVQ1402     0.0000 
      2 CAQ       -32.6220   -9.4530    1.6130 C.ar      1 AVQ1402     0.0000 
      3 CAF       -33.4230   -8.4110    2.0820 C.ar      1 AVQ1402     0.0000 
      4 CAE       -34.2300   -8.6120    3.2040 C.ar      1 AVQ1402     0.0000 
      5 CAO       -34.1980   -9.8450    3.8400 C.ar      1 AVQ1402     0.0000 
      6 CLC       -35.1460  -10.1680    5.2280 Cl        1 AVQ1402     0.0000 
      7 CAH       -33.4040  -10.8850    3.3720 C.ar      1 AVQ1402     0.0000 
      8 CAR       -32.6090  -10.7010    2.2400 C.ar      1 AVQ1402     0.0000 
      9 CAI       -31.7510  -11.8890    1.7980 C.3       1 AVQ1402     0.0000 
     10 SAM       -32.3000  -12.5900    0.2170 S.3       1 AVQ1402     0.0000 
     11 CAS       -33.3160  -13.8200    0.8680 C.2       1 AVQ1402     0.0000 
     12 NAK       -33.9730  -14.6740    0.0970 N.2       1 AVQ1402     0.0000 
     13 NAL       -33.5040  -14.1220    2.1660 N.2       1 AVQ1402     0.0000 
     14 NAU       -34.2420  -15.1220    2.1930 N.pl3     1 AVQ1402     0.0000 
     15 CAT       -34.5520  -15.5300    0.8830 C.2       1 AVQ1402     0.0000 
     16 NAJ       -35.3370  -16.5900    0.6550 N.2       1 AVQ1402     0.0000 
     17 CAN       -35.8290  -17.3170    1.6720 C.2       1 AVQ1402     0.0000 
     18 CAA       -36.7260  -18.5150    1.3750 C.3       1 AVQ1402     0.0000 
     19 CAG       -35.5710  -16.9600    2.9970 C.2       1 AVQ1402     0.0000 
     20 CAP       -34.7570  -15.8730    3.2500 C.2       1 AVQ1402     0.0000 
     21 OAB       -34.4530  -15.4920    4.5050 O.3       1 AVQ1402     0.0000 
     22 H         -33.4195   -7.5042    1.6067 H         1 AVQ1402     0.0000 
     23 H         -34.8311   -7.8629    3.5469 H         1 AVQ1402     0.0000 
     24 H         -33.4004  -11.7906    3.8577 H         1 AVQ1402     0.0000 
     25 H         -31.8157  -12.7310    2.4572 H         1 AVQ1402     0.0000 
     26 H         -30.7330  -11.6270    1.5917 H         1 AVQ1402     0.0000 
     27 H         -35.9809  -17.4984    3.7622 H         1 AVQ1402     0.0000 
     28 H         -36.2557  -19.2031    0.8224 H         1 AVQ1402     0.0000 
     29 H         -37.0289  -18.9690    2.2130 H         1 AVQ1402     0.0000 
     30 H         -37.5484  -18.2477    0.8728 H         1 AVQ1402     0.0000 
     31 H         -34.6547  -15.5985    5.4787 H         1 AVQ1402     0.0000 
@<TRIPOS>BOND
     1    2    1 1    
     2    3    2 ar   
     3    8    2 ar   
     4    4    3 ar   
     5   22    3 1    
     6    5    4 ar   
     7   23    4 1    
     8    6    5 1    
     9    7    5 ar   
    10    8    7 ar   
    11   24    7 1    
    12    9    8 1    
    13   10    9 1    
    14   25    9 1    
    15   26    9 1    
    16   11   10 1    
    17   12   11 1    
    18   13   11 2    
    19   15   12 2    
    20   14   13 1    
    21   15   14 1    
    22   20   14 1    
    23   16   15 1    
    24   17   16 2    
    25   18   17 1    
    26   19   17 1    
    27   28   18 1    
    28   29   18 1    
    29   30   18 1    
    30   20   19 2    
    31   27   19 1    
    32   21   20 1    
    33   31   21 1    
@<TRIPOS>SUBSTRUCTURE
     1 AVQ1402     1 GROUP   
@<TRIPOS>SET

