#    Name: 1GWJ_1_CAVITY_N1_6.mol2
#    Modification time : Tue Mar 11 03:19:14 2014

@<TRIPOS>MOLECULE
1GWJ_1_CAVITY_N1_6.mol2
  158     0     6     0     0
SMALL
NO_CHARGES


@<TRIPOS>ATOM
      1 CA          6.5514   47.1061   24.5790 C.3       5 GLY6        0.0000 
      2 O           7.6832   45.4401   23.9133 O.2       2 ALA2        0.0000 
      3 O           8.8151   43.7740   23.2476 O.2       2 ALA2        0.0000 
      4 CZ          9.5498   42.6534   23.9216 C.ar      4 PHE5        0.0000 
      5 O           9.9419   44.5488   29.9840 O.2       2 ALA2        0.0000 
      6 CZ          6.6655   49.6068   25.2743 C.ar      4 PHE5        0.0000 
      7 CZ          6.3279   50.1821   23.2606 C.ar      4 PHE5        0.0000 
      8 CZ          7.0626   49.0614   23.9346 C.ar      4 PHE5        0.0000 
      9 CA          7.7974   47.9408   24.6086 C.3       5 GLY6        0.0000 
     10 CA          8.5321   46.8201   25.2826 C.3       5 GLY6        0.0000 
     11 OG          7.4598   48.5161   22.5949 O.2       1 SER1        0.0000 
     12 DU          8.1945   47.3954   23.2689 H         6 CUB7        0.0000 
     13 CA          8.9292   46.2747   23.9429 C.3       5 GLY6        0.0000 
     14 OD1         9.6639   45.1541   24.6169 O.3       3 ASP3        0.0000 
     15 O          10.3987   44.0334   25.2909 O.2       2 ALA2        0.0000 
     16 O          11.1334   42.9127   25.9649 O.2       2 ALA2        0.0000 
     17 O          11.8681   41.7920   26.6389 O.2       2 ALA2        0.0000 
     18 DU          9.3264   45.7294   22.6032 H         6 CUB7        0.0000 
     19 CZ         10.0611   44.6087   23.2772 C.ar      4 PHE5        0.0000 
     20 CZ         10.7958   43.4880   23.9512 C.ar      4 PHE5        0.0000 
     21 CZ         11.5305   42.3673   24.6252 C.ar      4 PHE5        0.0000 
     22 O          12.2653   41.2467   25.2992 O.2       2 ALA2        0.0000 
     23 O          10.4532   46.5041   29.3396 O.2       2 ALA2        0.0000 
     24 O          11.1879   45.3835   30.0136 O.2       2 ALA2        0.0000 
     25 N           7.1767   51.5621   24.6299 N.2       2 ALA2        0.0000 
     26 CA          7.9115   50.4415   25.3039 C.3       5 GLY6        0.0000 
     27 CA          8.6462   49.3208   25.9779 C.3       5 GLY6        0.0000 
     28 O          10.1156   47.0794   27.3259 O.2       2 ALA2        0.0000 
     29 O          10.8503   45.9588   27.9999 O.2       2 ALA2        0.0000 
     30 O          11.5851   44.8381   28.6739 O.2       2 ALA2        0.0000 
     31 OG          7.5739   51.0168   23.2902 O.2       1 SER1        0.0000 
     32 OG          8.3086   49.8961   23.9642 O.2       1 SER1        0.0000 
     33 CA          9.0433   48.7754   24.6382 C.3       5 GLY6        0.0000 
     34 CA          9.7780   47.6548   25.3122 C.3       5 GLY6        0.0000 
     35 O          10.5128   46.5341   25.9862 O.2       2 ALA2        0.0000 
     36 O          11.2475   45.4134   26.6602 O.2       2 ALA2        0.0000 
     37 O          11.9822   44.2927   27.3342 O.2       2 ALA2        0.0000 
     38 OG          8.7058   49.3508   22.6245 O.2       1 SER1        0.0000 
     39 DU          9.4405   48.2301   23.2985 H         6 CUB7        0.0000 
     40 DU         10.1752   47.1094   23.9725 H         6 CUB7        0.0000 
     41 DU         10.9099   45.9887   24.6465 H         6 CUB7        0.0000 
     42 O          11.6446   44.8681   25.3205 O.2       2 ALA2        0.0000 
     43 O          12.3794   43.7474   25.9945 O.2       2 ALA2        0.0000 
     44 CA         13.1141   42.6267   26.6685 C.3       5 GLY6        0.0000 
     45 OG          9.8376   47.6847   21.9588 O.2       1 SER1        0.0000 
     46 DU         10.5723   46.5640   22.6328 H         6 CUB7        0.0000 
     47 DU         11.3071   45.4434   23.3068 H         6 CUB7        0.0000 
     48 CZ         12.0418   44.3227   23.9808 C.ar      4 PHE5        0.0000 
     49 CZ         12.7765   43.2020   24.6548 C.ar      4 PHE5        0.0000 
     50 N          13.5112   42.0813   25.3287 N.2       2 ALA2        0.0000 
     51 CZ         11.7042   44.8980   21.9670 C.ar      4 PHE5        0.0000 
     52 CZ         12.4389   43.7773   22.6410 C.ar      4 PHE5        0.0000 
     53 CZ         13.1737   42.6567   23.3150 C.ar      4 PHE5        0.0000 
     54 N          13.9084   41.5360   23.9890 N.2       2 ALA2        0.0000 
     55 CA         11.3616   47.9141   27.3555 C.3       5 GLY6        0.0000 
     56 CA         12.0963   46.7934   28.0295 C.3       5 GLY6        0.0000 
     57 CA         12.8310   45.6728   28.7035 C.3       5 GLY6        0.0000 
     58 N           8.8199   51.8515   23.3198 N.2       2 ALA2        0.0000 
     59 CA          9.5546   50.7308   23.9938 C.3       5 GLY6        0.0000 
     60 CA         10.2893   49.6101   24.6678 C.3       5 GLY6        0.0000 
     61 CA         11.0240   48.4894   25.3418 C.3       5 GLY6        0.0000 
     62 DU         11.7587   47.3688   26.0158 H         6 CUB7        0.0000 
     63 DU         12.4935   46.2481   26.6898 H         6 CUB7        0.0000 
     64 N          13.2282   45.1274   27.3638 N.2       2 ALA2        0.0000 
     65 OG          9.9517   50.1854   22.6541 O.2       1 SER1        0.0000 
     66 DU         10.6865   49.0647   23.3281 H         6 CUB7        0.0000 
     67 DU         11.4212   47.9441   24.0021 H         6 CUB7        0.0000 
     68 DU         12.1559   46.8234   24.6761 H         6 CUB7        0.0000 
     69 N          12.8906   45.7027   25.3501 N.2       2 ALA2        0.0000 
     70 N          13.6253   44.5820   26.0241 N.2       2 ALA2        0.0000 
     71 N          14.3601   43.4614   26.6981 N.2       2 ALA2        0.0000 
     72 OG         10.3489   49.6401   21.3144 O.2       1 SER1        0.0000 
     73 DU         11.0836   48.5194   21.9884 H         6 CUB7        0.0000 
     74 DU         12.5530   46.2780   23.3364 H         6 CUB7        0.0000 
     75 O          13.2878   45.1574   24.0103 O.2       2 ALA2        0.0000 
     76 O          14.0225   44.0367   24.6843 O.2       2 ALA2        0.0000 
     77 N          14.7572   42.9160   25.3583 N.2       2 ALA2        0.0000 
     78 CZ          8.5419   52.4567   17.9526 C.ar      4 PHE5        0.0000 
     79 DU         12.2155   46.8533   21.3226 H         6 CUB7        0.0000 
     80 DU         12.9502   45.7327   21.9966 H         6 CUB7        0.0000 
     81 O          13.6849   44.6120   22.6706 O.2       2 ALA2        0.0000 
     82 O          14.4196   43.4913   23.3446 O.2       2 ALA2        0.0000 
     83 N          15.1544   42.3706   24.0186 N.2       2 ALA2        0.0000 
     84 OG         10.4085   49.6700   17.9609 O.2       1 SER1        0.0000 
     85 CA         13.3473   45.1873   20.6569 C.3       5 GLY6        0.0000 
     86 CZ         14.0821   44.0666   21.3309 C.ar      4 PHE5        0.0000 
     87 CA         12.6076   48.7488   27.3851 C.3       5 GLY6        0.0000 
     88 CA         13.3423   47.6281   28.0591 C.3       5 GLY6        0.0000 
     89 CA         10.8006   51.5654   24.0234 C.3       5 GLY6        0.0000 
     90 CA         11.5353   50.4448   24.6974 C.3       5 GLY6        0.0000 
     91 N          12.2700   49.3241   25.3714 N.2       2 ALA2        0.0000 
     92 DU         13.0047   48.2034   26.0454 H         6 CUB7        0.0000 
     93 N          13.7394   47.0827   26.7194 N.2       2 ALA2        0.0000 
     94 OG         10.4630   52.1408   22.0097 O.2       1 SER1        0.0000 
     95 OG         11.1977   51.0201   22.6837 O.2       1 SER1        0.0000 
     96 DU         11.9324   49.8994   23.3577 H         6 CUB7        0.0000 
     97 DU         12.6672   48.7787   24.0317 H         6 CUB7        0.0000 
     98 O          13.4019   47.6581   24.7057 O.2       2 ALA2        0.0000 
     99 O          14.1366   46.5374   25.3797 O.2       2 ALA2        0.0000 
    100 OG         10.1254   52.7161   19.9960 O.2       1 SER1        0.0000 
    101 OG         10.8601   51.5954   20.6700 O.2       1 SER1        0.0000 
    102 OG         11.5949   50.4747   21.3440 O.2       1 SER1        0.0000 
    103 DU         12.3296   49.3540   22.0179 H         6 CUB7        0.0000 
    104 O          13.0643   48.2334   22.6919 O.2       2 ALA2        0.0000 
    105 O          13.7990   47.1127   23.3659 O.2       2 ALA2        0.0000 
    106 OG         10.5226   52.1707   18.6562 O.2       1 SER1        0.0000 
    107 OG         11.2573   51.0500   19.3302 O.2       1 SER1        0.0000 
    108 OG         11.9920   49.9294   20.0042 O.2       1 SER1        0.0000 
    109 DU         12.7267   48.8087   20.6782 H         6 CUB7        0.0000 
    110 O          13.4615   47.6880   21.3522 O.2       2 ALA2        0.0000 
    111 O          14.1962   46.5673   22.0262 O.2       2 ALA2        0.0000 
    112 OG         11.6544   50.5047   17.9905 O.2       1 SER1        0.0000 
    113 CZ         12.3892   49.3840   18.6645 C.ar      4 PHE5        0.0000 
    114 CA         13.8586   47.1427   20.0125 C.3       5 GLY6        0.0000 
    115 CA         14.5933   46.0220   20.6865 C.3       5 GLY6        0.0000 
    116 N          15.3280   44.9013   21.3605 N.2       2 ALA2        0.0000 
    117 CA         16.0628   43.7806   22.0345 C.3       5 GLY6        0.0000 
    118 CA         13.8535   49.5835   27.4147 C.3       5 GLY6        0.0000 
    119 CA         12.0465   52.4001   24.0530 C.3       5 GLY6        0.0000 
    120 N          13.5160   50.1588   25.4010 N.2       2 ALA2        0.0000 
    121 O          14.2507   49.0381   26.0750 O.2       2 ALA2        0.0000 
    122 OG         11.7090   52.9754   22.0393 O.2       1 SER1        0.0000 
    123 O          12.4437   51.8548   22.7133 O.2       2 ALA2        0.0000 
    124 N          13.1784   50.7341   23.3873 N.2       2 ALA2        0.0000 
    125 O          13.9131   49.6134   24.0613 O.2       2 ALA2        0.0000 
    126 O          14.6478   48.4927   24.7353 O.2       2 ALA2        0.0000 
    127 OG         12.1061   52.4301   20.6995 O.2       1 SER1        0.0000 
    128 DU         12.8408   51.3094   21.3735 H         6 CUB7        0.0000 
    129 O          13.5756   50.1887   22.0475 O.2       2 ALA2        0.0000 
    130 O          14.3103   49.0680   22.7215 O.2       2 ALA2        0.0000 
    131 O          15.0450   47.9474   23.3955 O.2       2 ALA2        0.0000 
    132 OG         11.7685   53.0054   18.6858 O.2       1 SER1        0.0000 
    133 DU         12.5033   51.8847   19.3598 H         6 CUB7        0.0000 
    134 DU         13.2380   50.7640   20.0338 H         6 CUB7        0.0000 
    135 O          13.9727   49.6434   20.7078 O.2       2 ALA2        0.0000 
    136 OG         12.9004   51.3393   18.0201 O.2       1 SER1        0.0000 
    137 CZ         13.6351   50.2187   18.6941 C.ar      4 PHE5        0.0000 
    138 CA         14.3699   49.0980   19.3681 C.3       5 GLY6        0.0000 
    139 OG         13.6897   52.6894   22.7429 O.2       1 SER1        0.0000 
    140 N          14.4244   51.5687   23.4169 N.2       2 ALA2        0.0000 
    141 O          15.1591   50.4481   24.0908 O.2       2 ALA2        0.0000 
    142 OG         13.3521   53.2647   20.7291 O.2       1 SER1        0.0000 
    143 OG         14.0868   52.1441   21.4031 O.2       1 SER1        0.0000 
    144 O          14.8215   51.0234   22.0771 O.2       2 ALA2        0.0000 
    145 CZ         13.0145   53.8400   18.7154 C.ar      4 PHE5        0.0000 
    146 CZ         13.7492   52.7194   19.3894 C.ar      4 PHE5        0.0000 
    147 O          14.4840   51.5987   20.0634 O.2       2 ALA2        0.0000 
    148 CZ         13.4117   53.2947   17.3757 C.ar      4 PHE5        0.0000 
    149 CZ         14.1464   52.1740   18.0497 C.ar      4 PHE5        0.0000 
    150 CA         14.8811   51.0533   18.7237 C.3       5 GLY6        0.0000 
    151 N          14.9356   53.5241   22.7724 N.2       2 ALA2        0.0000 
    152 CA         14.5981   54.0994   20.7587 C.3       5 GLY6        0.0000 
    153 N          15.3328   52.9787   21.4327 N.2       2 ALA2        0.0000 
    154 N          16.0675   51.8580   22.1067 N.2       2 ALA2        0.0000 
    155 CZ         14.9952   53.5540   19.4190 C.ar      4 PHE5        0.0000 
    156 N          15.7299   52.4334   20.0930 N.2       2 ALA2        0.0000 
    157 CZ         15.3924   53.0087   18.0793 C.ar      4 PHE5        0.0000 
    158 N          16.1271   51.8880   18.7533 N.2       2 ALA2        0.0000 
@<TRIPOS>BOND
@<TRIPOS>SUBSTRUCTURE
     1 SER1       11 GROUP   
     2 ALA2        2 GROUP   
     3 ASP3       14 GROUP   
     4 PHE5        4 GROUP   
     5 GLY6        1 GROUP   
     6 CUB7       12 GROUP   
@<TRIPOS>SET

