#    Name: 1gwj_FMN_1_INTS_M
#    Modification time : Tue Mar 25 04:04:25 2014

@<TRIPOS>MOLECULE
1gwj_FMN_1_INTS_M
   73     0    12     0     0
SMALL
NO_CHARGES


@<TRIPOS>ATOM
      1 N          18.0480   52.8055   24.3930 N.am      2 SEC2        0.0000 
      2 N          17.1490   51.6330   23.9610 N.am     10 SEL2        0.0000 
      3 N          18.9470   53.9780   24.8250 N.am      6 SEP2        0.0000 
      4 N          17.0610   50.6630   24.9430 N.am      2 SEC2        0.0000 
      5 N          16.9730   49.6930   25.9250 N.am      6 SEP2        0.0000 
      6 O          16.4325   54.2065   23.7190 O.2       1 ALC1        0.0000 
      7 O          15.5020   53.0390   23.4010 O.2       9 ALL1        0.0000 
      8 O          17.3630   55.3740   24.0370 O.2       5 ALP1        0.0000 
      9 N          12.8985   54.9945   22.0120 N.am      2 SEC2        0.0000 
     10 N          13.8940   54.5100   22.8130 N.am     10 SEL2        0.0000 
     11 N          11.9030   55.4790   21.2110 N.am      6 SEP2        0.0000 
     12 N          14.2750   56.0170   23.2500 N.am      2 SEC2        0.0000 
     13 N          14.6560   57.5240   23.6870 N.am      6 SEP2        0.0000 
     14 N          11.3000   53.6460   23.5265 N.am      2 SEC2        0.0000 
     15 N          11.8810   52.4900   23.2260 N.am     10 SEL2        0.0000 
     16 N          10.7190   54.8020   23.8270 N.am      6 SEP2        0.0000 
     17 CA          5.2910   51.3160   23.3885 C.3       4 GLC5        0.0000 
     18 CA          7.0740   51.1470   23.4900 C.3      12 GLL5        0.0000 
     19 CA          3.5080   51.4850   23.2870 C.3       8 GLP5        0.0000 
     20 CA          7.0605   51.4410   21.8300 C.3       4 GLC5        0.0000 
     21 CA          7.0470   51.7350   20.1700 C.3       8 GLP5        0.0000 
     22 CA          7.4095   47.7335   26.0995 C.3       4 GLC5        0.0000 
     23 CA          8.0440   48.4810   24.5110 C.3      12 GLL5        0.0000 
     24 CA          6.7750   46.9860   27.6880 C.3       8 GLP5        0.0000 
     25 CA          6.0435   48.8370   24.3410 C.3       4 GLC5        0.0000 
     26 CA          4.0430   49.1930   24.1710 C.3       8 GLP5        0.0000 
     27 CA         11.6880   50.0150   26.8880 C.3       4 GLC5        0.0000 
     28 CA         13.2360   48.7970   26.2680 C.3      12 GLL5        0.0000 
     29 CA         10.1400   51.2330   27.5080 C.3       8 GLP5        0.0000 
     30 N          15.5480   49.7385   26.3300 N.am      2 SEC2        0.0000 
     31 N          14.1230   49.7840   26.7350 N.am     10 SEL2        0.0000 
     32 O          13.8180   51.1345   26.5850 O.2       1 ALC1        0.0000 
     33 O          14.1230   49.7840   26.7350 O.2       9 ALL1        0.0000 
     34 O          13.5130   52.4850   26.4350 O.2       5 ALP1        0.0000 
     35 N          15.9850   48.4425   26.3730 N.am      2 SEC2        0.0000 
     36 N          14.9970   47.1920   26.8210 N.am     10 SEL2        0.0000 
     37 N          16.1145   47.8555   27.3530 N.am      2 SEC2        0.0000 
     38 N          17.2320   48.5190   27.8850 N.am      6 SEP2        0.0000 
     39 CA         13.7210   43.7950   28.4610 C.3       4 GLC5        0.0000 
     40 CA         12.9320   45.0680   27.4380 C.3      12 GLL5        0.0000 
     41 CA         14.5100   42.5220   29.4840 C.3       8 GLP5        0.0000 
     42 NZ          8.9455   45.3720   28.1230 N.4       3 LYC4        0.0000 
     43 NZ         10.1310   45.9640   28.7930 N.4      11 LYL4        0.0000 
     44 NZ          8.0330   43.5960   26.9250 N.4       7 LYP4        0.0000 
     45 N           9.3195   47.0820   29.3515 N.am      2 SEC2        0.0000 
     46 N          10.1310   45.9640   28.7930 N.am     10 SEL2        0.0000 
     47 N           8.5080   48.2000   29.9100 N.am      6 SEP2        0.0000 
     48 N           8.9455   45.3720   28.1230 N.am      2 SEC2        0.0000 
     49 N           7.7600   44.7800   27.4530 N.am      6 SEP2        0.0000 
     50 NZ          9.9360   43.2255   28.3745 N.4       3 LYC4        0.0000 
     51 NZ         10.8440   43.5880   29.3440 N.4      11 LYL4        0.0000 
     52 N          11.6165   42.6035   29.7730 N.am      2 SEC2        0.0000 
     53 N          10.8440   43.5880   29.3440 N.am     10 SEL2        0.0000 
     54 N          12.3890   41.6190   30.2020 N.am      6 SEP2        0.0000 
     55 N           9.9360   43.2255   28.3745 N.am      2 SEC2        0.0000 
     56 N           9.0280   42.8630   27.4050 N.am      6 SEP2        0.0000 
     57 N          11.3240   46.8625   31.1690 N.am      2 SEC2        0.0000 
     58 N          11.3300   45.4540   30.9340 N.am     10 SEL2        0.0000 
     59 N          11.3180   48.2710   31.4040 N.am      6 SEP2        0.0000 
     60 CA         10.7595   52.8530   24.7407 C.3       4 GLC5        0.0000 
     61 CA         10.9630   51.5000   23.5200 C.3      12 GLL5        0.0000 
     62 CA         11.2780   54.0320   26.0570 C.3       8 GLP5        0.0000 
     63 CA         10.2025   53.7055   23.1392 C.3       4 GLC5        0.0000 
     64 CA         10.1640   55.7370   22.8540 C.3       8 GLP5        0.0000 
     65 CA          9.4540   50.6958   25.6980 C.3       4 GLC5        0.0000 
     66 CA          8.5640   50.8390   23.6250 C.3      12 GLL5        0.0000 
     67 CA         10.4962   50.4838   25.8300 C.3       4 GLC5        0.0000 
     68 CA         10.3540   49.2610   24.2960 C.3      12 GLL5        0.0000 
     69 CA         13.8915   49.2387   28.4207 C.3       4 GLC5        0.0000 
     70 CA         14.3740   50.3420   30.2130 C.3       8 GLP5        0.0000 
     71 CA         14.1851   46.3426   28.6451 C.3       4 GLC5        0.0000 
     72 CA         13.5820   47.4740   26.9890 C.3      12 GLL5        0.0000 
     73 CA         15.3280   46.7060   30.1750 C.3       8 GLP5        0.0000 
@<TRIPOS>BOND
@<TRIPOS>SUBSTRUCTURE
     1 ALC1        6 GROUP        1 X    ALC  0     ROOT ALC X 1
     2 SEC2        1 GROUP        1 X    SEC  0     **** SEC X 2
     3 LYC4       42 GROUP        1 X    LYC  0     **** LYC X 4
     4 GLC5       17 GROUP        1 X    GLC  0     **** GLC X 6
     5 ALP1        8 GROUP        1 Y    ALP  0     ROOT ALP Y 8
     6 SEP2        3 GROUP        1 Y    SEP  0     **** SEP Y 9
     7 LYP4       44 GROUP        1 Y    LYP  0     **** LYP Y 11
     8 GLP5       19 GROUP        1 Y    GLP  0     **** GLP Y 13
     9 ALL1        7 GROUP        1 Z    ALL  0     ROOT ALL Z 15
    10 SEL2        2 GROUP        1 Z    SEL  0     **** SEL Z 16
    11 LYL4       43 GROUP        1 Z    LYL  0     **** LYL Z 18
    12 GLL5       18 GROUP        1 Z    GLL  0     **** GLL Z 20
@<TRIPOS>SET

