#    Name: 1gwj_FMN_1_ligand
#    Modification time : Tue Mar 25 04:04:25 2014

@<TRIPOS>MOLECULE
1gwj_FMN_1_ligand
   50    52     1     0     0
SMALL
NO_CHARGES


@<TRIPOS>ATOM
      1 N1         15.0490   50.7870   24.0360 N.2       1 FMN401      0.0000 
      2 C2         15.9680   51.7720   23.8140 C.2       1 FMN401      0.0000 
      3 O2         17.1490   51.6330   23.9610 O.2       1 FMN401      0.0000 
      4 N3         15.5020   53.0390   23.4010 N.am      1 FMN401      0.0000 
      5 C4         14.1980   53.3690   23.2170 C.2       1 FMN401      0.0000 
      6 O4         13.8940   54.5100   22.8130 O.2       1 FMN401      0.0000 
      7 C4A        13.2030   52.2800   23.4250 C.2       1 FMN401      0.0000 
      8 N5         11.8810   52.4900   23.2260 N.2       1 FMN401      0.0000 
      9 C5A        10.9630   51.5000   23.5200 C.ar      1 FMN401      0.0000 
     10 C6          9.5190   51.8480   23.3290 C.ar      1 FMN401      0.0000 
     11 C7          8.5640   50.8390   23.6250 C.ar      1 FMN401      0.0000 
     12 C7M         7.0740   51.1470   23.4900 C.3       1 FMN401      0.0000 
     13 C8          8.9720   49.4780   24.1510 C.ar      1 FMN401      0.0000 
     14 C8M         8.0440   48.4810   24.5110 C.3       1 FMN401      0.0000 
     15 C9         10.3540   49.2610   24.2960 C.ar      1 FMN401      0.0000 
     16 C9A        11.3510   50.2080   24.0080 C.ar      1 FMN401      0.0000 
     17 N10        12.7730   49.9940   24.1700 N.pl3     1 FMN401      0.0000 
     18 C10        13.7340   50.9870   23.8590 C.2       1 FMN401      0.0000 
     19 C1'        13.2430   48.6990   24.7560 C.3       1 FMN401      0.0000 
     20 C2'        13.2360   48.7970   26.2680 C.3       1 FMN401      0.0000 
     21 O2'        14.1230   49.7840   26.7350 O.3       1 FMN401      0.0000 
     22 C3'        13.5820   47.4740   26.9890 C.3       1 FMN401      0.0000 
     23 O3'        14.9970   47.1920   26.8210 O.3       1 FMN401      0.0000 
     24 C4'        12.7230   46.3070   26.5960 C.3       1 FMN401      0.0000 
     25 O4'        11.3150   46.7040   26.7190 O.3       1 FMN401      0.0000 
     26 C5'        12.9320   45.0680   27.4380 C.3       1 FMN401      0.0000 
     27 O5'        12.5810   45.3220   28.8240 O.3       1 FMN401      0.0000 
     28 P          11.1410   45.0710   29.4440 P.3       1 FMN401      0.0000 
     29 O1P        10.1310   45.9640   28.7930 O.co2     1 FMN401      0.0000 
     30 O2P        10.8440   43.5880   29.3440 O.co2     1 FMN401      0.0000 
     31 O3P        11.3300   45.4540   30.9340 O.co2     1 FMN401      0.0000 
     32 H          16.2488   53.7798   23.2254 H         1 FMN401      0.0000 
     33 H           9.2784   52.7488   23.0099 H         1 FMN401      0.0000 
     34 H          10.6657   48.3130   24.6486 H         1 FMN401      0.0000 
     35 H          14.2535   48.4831   24.4160 H         1 FMN401      0.0000 
     36 H          12.5837   47.8909   24.4467 H         1 FMN401      0.0000 
     37 H          12.2039   49.0522   26.5852 H         1 FMN401      0.0000 
     38 H          13.4043   47.6714   28.0780 H         1 FMN401      0.0000 
     39 H          12.9187   46.0560   25.5561 H         1 FMN401      0.0000 
     40 H          13.9840   44.7626   27.3509 H         1 FMN401      0.0000 
     41 H          12.3177   44.2576   27.0215 H         1 FMN401      0.0000 
     42 H           6.7932   51.8944   24.0921 H         1 FMN401      0.0000 
     43 H           6.8333   51.4158   22.5574 H         1 FMN401      0.0000 
     44 H           6.5086   50.3555   23.7220 H         1 FMN401      0.0000 
     45 H           8.4977   47.6524   24.8390 H         1 FMN401      0.0000 
     46 H           7.4326   48.7886   25.2401 H         1 FMN401      0.0000 
     47 H           7.4679   48.2136   23.7386 H         1 FMN401      0.0000 
     48 H          13.6726   50.6535   26.5321 H         1 FMN401      0.0000 
     49 H          15.0516   46.1996   26.7103 H         1 FMN401      0.0000 
     50 H          11.1582   46.8000   27.7020 H         1 FMN401      0.0000 
@<TRIPOS>BOND
     1    2    1 1    
     2   18    1 2    
     3    3    2 2    
     4    4    2 am   
     5    5    4 am   
     6   32    4 1    
     7    6    5 2    
     8    7    5 1    
     9    8    7 2    
    10   18    7 1    
    11    9    8 1    
    12   10    9 ar   
    13   16    9 ar   
    14   11   10 ar   
    15   33   10 1    
    16   12   11 1    
    17   13   11 ar   
    18   42   12 1    
    19   43   12 1    
    20   44   12 1    
    21   14   13 1    
    22   15   13 ar   
    23   45   14 1    
    24   46   14 1    
    25   47   14 1    
    26   16   15 ar   
    27   34   15 1    
    28   17   16 1    
    29   18   17 1    
    30   19   17 1    
    31   20   19 1    
    32   35   19 1    
    33   36   19 1    
    34   21   20 1    
    35   22   20 1    
    36   37   20 1    
    37   48   21 1    
    38   23   22 1    
    39   24   22 1    
    40   38   22 1    
    41   49   23 1    
    42   25   24 1    
    43   26   24 1    
    44   39   24 1    
    45   50   25 1    
    46   27   26 1    
    47   40   26 1    
    48   41   26 1    
    49   28   27 1    
    50   29   28 ar   
    51   30   28 ar   
    52   31   28 ar   
@<TRIPOS>SUBSTRUCTURE
     1 FMN401      1 GROUP   
@<TRIPOS>SET

