#    Name: 1g35_AHF_1_INTS_M
#    Modification time : Tue Mar 25 02:28:53 2014

@<TRIPOS>MOLECULE
1g35_AHF_1_INTS_M
  113     0     9     0     0
SMALL
NO_CHARGES


@<TRIPOS>ATOM
      1 CA          8.9275   22.7305    6.3265 C.3       3 GLC5        0.0000 
      2 CA         10.3120   24.2390    6.7270 C.3       9 GLL5        0.0000 
      3 CA          7.5430   21.2220    5.9260 C.3       6 GLP5        0.0000 
      4 CA          6.3975   26.4710    9.3070 C.3       3 GLC5        0.0000 
      5 CA          7.7670   26.9120    7.7710 C.3       9 GLL5        0.0000 
      6 CA          5.0280   26.0300   10.8430 C.3       6 GLP5        0.0000 
      7 CA         10.9975   27.3735   10.7420 C.3       3 GLC5        0.0000 
      8 CA         10.0490   27.5180    8.7510 C.3       9 GLL5        0.0000 
      9 CA         11.9460   27.2290   12.7330 C.3       6 GLP5        0.0000 
     10 CA         12.3875   25.9035    9.2520 C.3       3 GLC5        0.0000 
     11 CA         10.6010   26.3260    8.1350 C.3       9 GLL5        0.0000 
     12 CA         14.1740   25.4810   10.3690 C.3       6 GLP5        0.0000 
     13 N          10.1225   20.4255    5.3385 N.am      2 SEC2        0.0000 
     14 N          11.3080   21.4690    5.4610 N.am      8 SEL2        0.0000 
     15 N           8.9370   19.3820    5.2160 N.am      5 SEP2        0.0000 
     16 CA         15.6425   16.5385    1.7225 C.3       3 GLC5        0.0000 
     17 CA         17.1490   18.0940    1.5230 C.3       9 GLL5        0.0000 
     18 CA         14.1360   14.9830    1.9220 C.3       6 GLP5        0.0000 
     19 CA         20.0015   18.2645    2.7830 C.3       3 GLC5        0.0000 
     20 CA         17.9430   17.4410    2.5640 C.3       9 GLL5        0.0000 
     21 CA         22.0600   19.0880    3.0020 C.3       6 GLP5        0.0000 
     22 CA         17.3825   15.5335    2.5790 C.3       3 GLC5        0.0000 
     23 CA         16.8220   13.6260    2.5940 C.3       6 GLP5        0.0000 
     24 CA         16.7830   15.9485    3.7950 C.3       3 GLC5        0.0000 
     25 CA         17.7530   17.8010    3.9510 C.3       9 GLL5        0.0000 
     26 CA         15.8130   14.0960    3.6390 C.3       6 GLP5        0.0000 
     27 CA         17.6035   20.6220    3.4430 C.3       3 GLC5        0.0000 
     28 CA         16.7620   18.8250    4.3050 C.3       9 GLL5        0.0000 
     29 CA         18.4450   22.4190    2.5810 C.3       6 GLP5        0.0000 
     30 CA         12.8900   20.6415    9.8875 C.3       3 GLC5        0.0000 
     31 CA         14.8810   20.9530    9.1430 C.3       9 GLL5        0.0000 
     32 CA         10.8990   20.3300   10.6320 C.3       6 GLP5        0.0000 
     33 N          14.8135   24.6910    3.0590 N.am      2 SEC2        0.0000 
     34 N          15.4240   24.3250    4.5120 N.am      8 SEL2        0.0000 
     35 N          14.2030   25.0570    1.6060 N.am      5 SEP2        0.0000 
     36 O          15.4025   26.0100    4.6110 O.2       1 ALC1        0.0000 
     37 O          15.4240   24.3250    4.5120 O.2       7 ALL1        0.0000 
     38 O          15.3810   27.6950    4.7100 O.2       4 ALP1        0.0000 
     39 O          15.3580   25.4455    5.5520 O.2       1 ALC1        0.0000 
     40 O          15.2920   26.5660    6.5920 O.2       4 ALP1        0.0000 
     41 N          13.8120   25.5365    2.8910 N.am      2 SEC2        0.0000 
     42 N          13.4210   26.0160    4.1760 N.am      8 SEL2        0.0000 
     43 O          14.4010   26.8555    4.4430 O.2       1 ALC1        0.0000 
     44 O          13.4210   26.0160    4.1760 O.2       7 ALL1        0.0000 
     45 O          14.3565   26.2910    5.3840 O.2       1 ALC1        0.0000 
     46 CA         11.6175   22.9195    1.9270 C.3       3 GLC5        0.0000 
     47 CA         11.1270   23.8230    3.6070 C.3       9 GLL5        0.0000 
     48 CA         12.1080   22.0160    0.2470 C.3       6 GLP5        0.0000 
     49 N          11.5615   20.9280    8.5930 N.am      2 SEC2        0.0000 
     50 N          11.7370   22.0060    7.8330 N.am      8 SEL2        0.0000 
     51 N          11.3860   19.8500    9.3530 N.am      5 SEP2        0.0000 
     52 CA         16.8905   21.9490    3.5955 C.3       3 GLC5        0.0000 
     53 CA         15.3360   21.4790    4.6100 C.3       9 GLL5        0.0000 
     54 CA         17.7050   21.2600   11.2255 C.3       3 GLC5        0.0000 
     55 CA         18.1060   19.3720   10.3740 C.3       9 GLL5        0.0000 
     56 CA         17.3040   23.1480   12.0770 C.3       6 GLP5        0.0000 
     57 N          20.4720   19.9885    9.7315 N.am      2 SEC2        0.0000 
     58 N          19.3410   19.1480    9.9160 N.am      8 SEL2        0.0000 
     59 N          21.6030   20.8290    9.5470 N.am      5 SEP2        0.0000 
     60 N          20.3295   19.2175    8.8915 N.am      2 SEC2        0.0000 
     61 N          21.3180   19.2870    7.8670 N.am      5 SEP2        0.0000 
     62 CA         16.9755   18.5150   13.3595 C.3       3 GLC5        0.0000 
     63 CA         18.5400   18.0000   12.2860 C.3       9 GLL5        0.0000 
     64 CA         15.4110   19.0300   14.4330 C.3       6 GLP5        0.0000 
     65 CA          8.1415   30.7345    9.6000 C.3       3 GLC5        0.0000 
     66 CA          8.1470   28.8530    9.1110 C.3       9 GLL5        0.0000 
     67 CA          8.1360   32.6160   10.0890 C.3       6 GLP5        0.0000 
     68 CA          7.3150   29.5435   11.0320 C.3       3 GLC5        0.0000 
     69 CA          6.4830   30.2340   12.9530 C.3       6 GLP5        0.0000 
     70 N           8.4375   30.9365    8.0610 N.am      2 SEC2        0.0000 
     71 N           7.6480   29.6750    8.1760 N.am      8 SEL2        0.0000 
     72 N           9.2270   32.1980    7.9460 N.am      5 SEP2        0.0000 
     73 CA          9.5285   23.2108    8.2720 C.3       3 GLC5        0.0000 
     74 CA          9.7360   25.4500    7.3510 C.3       9 GLL5        0.0000 
     75 CA          9.0330   21.5770    9.5050 C.3       6 GLP5        0.0000 
     76 CA          7.7547   27.2893   10.5495 C.3       3 GLC5        0.0000 
     77 CA          8.6140   27.8160    8.5670 C.3       9 GLL5        0.0000 
     78 CA          7.1290   26.2440   12.2600 C.3       6 GLP5        0.0000 
     79 CA         11.2181   28.1417    7.6020 C.3       3 GLC5        0.0000 
     80 CA         12.4700   29.2870    6.8070 C.3       6 GLP5        0.0000 
     81 CA         14.1045   18.8248    2.5105 C.3       3 GLC5        0.0000 
     82 CA         15.9550   19.4950    3.2610 C.3       9 GLL5        0.0000 
     83 CA         12.1530   18.3420    2.4520 C.3       6 GLP5        0.0000 
     84 CA         15.7095   17.9585    0.3450 C.3       3 GLC5        0.0000 
     85 CA         16.1570   19.1200    1.8770 C.3       9 GLL5        0.0000 
     86 CA         14.7660   17.3100   -1.0100 C.3       6 GLP5        0.0000 
     87 CA         17.0018   20.5189    1.7585 C.3       3 GLC5        0.0000 
     88 CA         17.4010   22.3370    1.4710 C.3       6 GLP5        0.0000 
     89 CA         18.6715   17.3648    0.6923 C.3       3 GLC5        0.0000 
     90 CA         19.7970   16.9620   -0.6590 C.3       6 GLP5        0.0000 
     91 CA         14.5672   23.9165    9.0817 C.3       3 GLC5        0.0000 
     92 CA         15.4130   21.9020    8.1780 C.3       9 GLL5        0.0000 
     93 CA         14.9840   20.0748   11.4217 C.3       3 GLC5        0.0000 
     94 CA         14.6250   19.6350   13.3210 C.3       6 GLP5        0.0000 
     95 CA         16.3235   21.8313   10.7997 C.3       3 GLC5        0.0000 
     96 CA         15.8050   20.0760    9.9020 C.3       9 GLL5        0.0000 
     97 CA         13.9570   19.4337    8.6977 C.3       3 GLC5        0.0000 
     98 CA         12.5710   18.3530    7.8730 C.3       6 GLP5        0.0000 
     99 CA         18.3493   23.3660    8.3323 C.3       3 GLC5        0.0000 
    100 CA         17.7940   21.1320    8.6980 C.3       9 GLL5        0.0000 
    101 CA         19.3700   25.1710    8.3370 C.3       6 GLP5        0.0000 
    102 CA         17.2508   22.2330   10.3259 C.3       3 GLC5        0.0000 
    103 CA         16.8630   21.9900    7.9570 C.3       9 GLL5        0.0000 
    104 CA          7.8125   22.7703    4.6268 C.3       3 GLC5        0.0000 
    105 CA          8.7690   24.4600    3.1760 C.3       9 GLL5        0.0000 
    106 CA          9.8298   26.6133    0.6952 C.3       3 GLC5        0.0000 
    107 CA          9.0910   25.5560    2.2410 C.3       9 GLL5        0.0000 
    108 CA         11.0940   27.2800   -0.5470 C.3       6 GLP5        0.0000 
    109 CA          8.5948   25.0733    0.1192 C.3       3 GLC5        0.0000 
    110 CA          8.6240   24.2000   -1.6990 C.3       6 GLP5        0.0000 
    111 CA          6.6095   23.0739    2.1559 C.3       3 GLC5        0.0000 
    112 CA          6.3380   24.9610    2.8700 C.3       9 GLL5        0.0000 
    113 CA          6.0090   21.5080    1.2130 C.3       6 GLP5        0.0000 
@<TRIPOS>BOND
@<TRIPOS>SUBSTRUCTURE
     1 ALC1       36 GROUP        1 X    ALC  0     ROOT ALC X 1
     2 SEC2       13 GROUP        1 X    SEC  0     **** SEC X 2
     3 GLC5        1 GROUP        1 X    GLC  0     **** GLC X 6
     4 ALP1       38 GROUP        1 Y    ALP  0     ROOT ALP Y 8
     5 SEP2       15 GROUP        1 Y    SEP  0     **** SEP Y 9
     6 GLP5        3 GROUP        1 Y    GLP  0     **** GLP Y 13
     7 ALL1       37 GROUP        1 Z    ALL  0     ROOT ALL Z 15
     8 SEL2       14 GROUP        1 Z    SEL  0     **** SEL Z 16
     9 GLL5        2 GROUP        1 Z    GLL  0     **** GLL Z 20
@<TRIPOS>SET

