#    Name: 1g35_AHF_1_ligand
#    Modification time : Tue Mar 25 02:28:53 2014

@<TRIPOS>MOLECULE
1g35_AHF_1_ligand
   87    91     1     0     0
SMALL
NO_CHARGES


@<TRIPOS>ATOM
      1 N01        11.5940   23.9220    6.1630 N.pl3     1 AHF501      0.0000 
      2 S02        11.9410   22.2880    6.4770 S.o2      1 AHF501      0.0000 
      3 N03        13.6100   22.4220    6.2590 N.pl3     1 AHF501      0.0000 
      4 C04        14.0230   22.3010    4.8410 C.3       1 AHF501      0.0000 
      5 C05        14.1580   23.7760    4.2980 C.3       1 AHF501      0.0000 
      6 C06        13.1870   24.8630    4.8690 C.3       1 AHF501      0.0000 
      7 C07        11.6810   24.6340    4.8560 C.3       1 AHF501      0.0000 
      8 C08        10.3120   24.2390    6.7270 C.3       1 AHF501      0.0000 
      9 C09         9.7360   25.4500    7.3510 C.ar      1 AHF501      0.0000 
     10 C10         8.3410   25.7480    7.1780 C.ar      1 AHF501      0.0000 
     11 C11         7.7670   26.9120    7.7710 C.ar      1 AHF501      0.0000 
     12 C12         8.6140   27.8160    8.5670 C.ar      1 AHF501      0.0000 
     13 C13        10.0490   27.5180    8.7510 C.ar      1 AHF501      0.0000 
     14 C14        10.6010   26.3260    8.1350 C.ar      1 AHF501      0.0000 
     15 O15        11.3080   21.4690    5.4610 O.2       1 AHF501      0.0000 
     16 O16        15.0160   20.4680    3.5760 O.3       1 AHF501      0.0000 
     17 C17        15.9550   19.4950    3.2610 C.ar      1 AHF501      0.0000 
     18 C18        16.1570   19.1200    1.8770 C.ar      1 AHF501      0.0000 
     19 C19        17.1490   18.0940    1.5230 C.ar      1 AHF501      0.0000 
     20 C20        17.9430   17.4410    2.5640 C.ar      1 AHF501      0.0000 
     21 C21        17.7530   17.8010    3.9510 C.ar      1 AHF501      0.0000 
     22 C22        16.7620   18.8250    4.3050 C.ar      1 AHF501      0.0000 
     23 C23        14.5080   22.8020    7.4110 C.3       1 AHF501      0.0000 
     24 C24        15.4130   21.9020    8.1780 C.ar      1 AHF501      0.0000 
     25 C25        14.8810   20.9530    9.1430 C.ar      1 AHF501      0.0000 
     26 C26        15.8050   20.0760    9.9020 C.ar      1 AHF501      0.0000 
     27 C27        17.2700   20.1600    9.6870 C.ar      1 AHF501      0.0000 
     28 C28        17.7940   21.1320    8.6980 C.ar      1 AHF501      0.0000 
     29 C29        16.8630   21.9900    7.9570 C.ar      1 AHF501      0.0000 
     30 O30        15.4240   24.3250    4.5120 O.3       1 AHF501      0.0000 
     31 O31        13.4210   26.0160    4.1760 O.3       1 AHF501      0.0000 
     32 C32        11.1270   23.8230    3.6070 C.3       1 AHF501      0.0000 
     33 O33         9.7070   23.7250    3.7470 O.3       1 AHF501      0.0000 
     34 C34         8.7690   24.4600    3.1760 C.ar      1 AHF501      0.0000 
     35 C35         9.0910   25.5560    2.2410 C.ar      1 AHF501      0.0000 
     36 C36         8.0400   26.3370    1.6340 C.ar      1 AHF501      0.0000 
     37 C37         6.6590   26.0340    1.9530 C.ar      1 AHF501      0.0000 
     38 C38         6.3380   24.9610    2.8700 C.ar      1 AHF501      0.0000 
     39 C39         7.3950   24.1770    3.4790 C.ar      1 AHF501      0.0000 
     40 O40        11.7370   22.0060    7.8330 O.2       1 AHF501      0.0000 
     41 C41        15.3360   21.4790    4.6100 C.3       1 AHF501      0.0000 
     42 C42        18.1060   19.3720   10.3740 C.3       1 AHF501      0.0000 
     43 O43        17.7020   18.8050   11.5520 O.3       1 AHF501      0.0000 
     44 O44        19.3410   19.1480    9.9160 O.3       1 AHF501      0.0000 
     45 C45        18.5400   18.0000   12.2860 C.3       1 AHF501      0.0000 
     46 C46         8.1470   28.8530    9.1110 C.3       1 AHF501      0.0000 
     47 O47         7.6480   29.6750    8.1760 O.3       1 AHF501      0.0000 
     48 H          13.2214   21.8429    4.2650 H         1 AHF501      0.0000 
     49 H          13.9588   23.7479    3.2052 H         1 AHF501      0.0000 
     50 H          13.4900   25.0214    5.9315 H         1 AHF501      0.0000 
     51 H          11.2031   25.5775    4.9434 H         1 AHF501      0.0000 
     52 H          10.0469   23.3378    7.4972 H         1 AHF501      0.0000 
     53 H           9.4846   23.8884    5.9096 H         1 AHF501      0.0000 
     54 H           7.7596   25.1192    6.6256 H         1 AHF501      0.0000 
     55 H           6.7919   27.1315    7.6579 H         1 AHF501      0.0000 
     56 H          10.6176   28.1317    9.2904 H         1 AHF501      0.0000 
     57 H          11.5739   26.1012    8.2454 H         1 AHF501      0.0000 
     58 H          15.6199   19.5587    1.1457 H         1 AHF501      0.0000 
     59 H          17.2802   17.8417    0.5581 H         1 AHF501      0.0000 
     60 H          18.6202   16.7414    2.3063 H         1 AHF501      0.0000 
     61 H          18.2898   17.3599    4.6746 H         1 AHF501      0.0000 
     62 H          16.6259   19.0784    5.2703 H         1 AHF501      0.0000 
     63 H          13.8355   23.3639    8.1875 H         1 AHF501      0.0000 
     64 H          15.1478   23.7134    7.0492 H         1 AHF501      0.0000 
     65 H          13.8953   20.8823    9.3036 H         1 AHF501      0.0000 
     66 H          15.4370   19.4219   10.5649 H         1 AHF501      0.0000 
     67 H          18.7779   21.1973    8.5417 H         1 AHF501      0.0000 
     68 H          17.2232   22.6517    7.2844 H         1 AHF501      0.0000 
     69 H          11.6191   22.8596    3.6238 H         1 AHF501      0.0000 
     70 H          11.4260   24.3748    2.7256 H         1 AHF501      0.0000 
     71 H          10.0601   25.7499    2.0333 H         1 AHF501      0.0000 
     72 H           8.2601   27.0820    0.9979 H         1 AHF501      0.0000 
     73 H           5.9157   26.5760    1.5319 H         1 AHF501      0.0000 
     74 H           5.3718   24.7561    3.0878 H         1 AHF501      0.0000 
     75 H           7.1564   23.4297    4.1186 H         1 AHF501      0.0000 
     76 H          15.6044   21.0172    5.5389 H         1 AHF501      0.0000 
     77 H          16.0949   22.1563    4.2733 H         1 AHF501      0.0000 
     78 H          17.6218   18.2183    9.6545 H         1 AHF501      0.0000 
     79 H           8.9207   29.4109    9.7315 H         1 AHF501      0.0000 
     80 H           7.3413   28.6215    9.8804 H         1 AHF501      0.0000 
     81 H          18.8326   17.1970   11.7667 H         1 AHF501      0.0000 
     82 H          19.3681   18.4847   12.5676 H         1 AHF501      0.0000 
     83 H          18.0986   17.6657   13.1187 H         1 AHF501      0.0000 
     84 H          15.2560   25.1771    5.0077 H         1 AHF501      0.0000 
     85 H          14.2108   26.4326    4.6262 H         1 AHF501      0.0000 
     86 H          19.6407   18.3132   10.3779 H         1 AHF501      0.0000 
     87 H           7.9350   29.2791    7.3037 H         1 AHF501      0.0000 
@<TRIPOS>BOND
     1    2    1 1    
     2    7    1 1    
     3    8    1 1    
     4    3    2 1    
     5   15    2 2    
     6   40    2 2    
     7    4    3 1    
     8   23    3 1    
     9    5    4 1    
    10   41    4 1    
    11   48    4 1    
    12    6    5 1    
    13   30    5 1    
    14   49    5 1    
    15    7    6 1    
    16   31    6 1    
    17   50    6 1    
    18   32    7 1    
    19   51    7 1    
    20    9    8 1    
    21   52    8 1    
    22   53    8 1    
    23   10    9 ar   
    24   14    9 ar   
    25   11   10 ar   
    26   54   10 1    
    27   12   11 ar   
    28   55   11 1    
    29   13   12 ar   
    30   46   12 1    
    31   14   13 ar   
    32   56   13 1    
    33   57   14 1    
    34   17   16 1    
    35   41   16 1    
    36   18   17 ar   
    37   22   17 ar   
    38   19   18 ar   
    39   58   18 1    
    40   20   19 ar   
    41   59   19 1    
    42   21   20 ar   
    43   60   20 1    
    44   22   21 ar   
    45   61   21 1    
    46   62   22 1    
    47   24   23 1    
    48   63   23 1    
    49   64   23 1    
    50   25   24 ar   
    51   29   24 ar   
    52   26   25 ar   
    53   65   25 1    
    54   27   26 ar   
    55   66   26 1    
    56   28   27 ar   
    57   42   27 1    
    58   29   28 ar   
    59   67   28 1    
    60   68   29 1    
    61   84   30 1    
    62   85   31 1    
    63   33   32 1    
    64   69   32 1    
    65   70   32 1    
    66   34   33 1    
    67   35   34 ar   
    68   39   34 ar   
    69   36   35 ar   
    70   71   35 1    
    71   37   36 ar   
    72   72   36 1    
    73   38   37 ar   
    74   73   37 1    
    75   39   38 ar   
    76   74   38 1    
    77   75   39 1    
    78   76   41 1    
    79   77   41 1    
    80   43   42 1    
    81   44   42 1    
    82   78   42 1    
    83   45   43 1    
    84   86   44 1    
    85   81   45 1    
    86   82   45 1    
    87   83   45 1    
    88   47   46 1    
    89   79   46 1    
    90   80   46 1    
    91   87   47 1    
@<TRIPOS>SUBSTRUCTURE
     1 AHF501      1 GROUP   
@<TRIPOS>SET

