#    Name: 3l9m_L9M_1_INTS_M
#    Modification time : Mon Mar 24 21:11:51 2014

@<TRIPOS>MOLECULE
3l9m_L9M_1_INTS_M
   71     0    12     0     0
SMALL
NO_CHARGES


@<TRIPOS>ATOM
      1 N          24.4515    9.3500    9.7280 N.am      2 SEC2        0.0000 
      2 N          25.6970    8.4820    9.3970 N.am     10 SEL2        0.0000 
      3 N          23.2060   10.2180   10.0590 N.am      6 SEP2        0.0000 
      4 CA         31.2690    4.5305    8.8055 C.3       4 GLC5        0.0000 
      5 CA         30.0540    3.5020    7.6100 C.3      12 GLL5        0.0000 
      6 CA         32.4840    5.5590   10.0010 C.3       8 GLP5        0.0000 
      7 N          32.9530    4.2205    4.9060 N.am      2 SEC2        0.0000 
      8 N          31.5370    4.0450    5.6520 N.am     10 SEL2        0.0000 
      9 N          34.3690    4.3960    4.1600 N.am      6 SEP2        0.0000 
     10 OD1        31.3160   -0.2290    4.6880 O.co2     3 ASC3        0.0000 
     11 OD1        30.5300   -0.8930    5.7050 O.co2    11 ASL3        0.0000 
     12 OD1        32.1020    0.4350    3.6710 O.co2     7 ASP3        0.0000 
     13 O          29.2855   -1.0300    5.1610 O.2       1 ALC1        0.0000 
     14 O          30.5300   -0.8930    5.7050 O.2       9 ALL1        0.0000 
     15 O          28.0410   -1.1670    4.6170 O.2       5 ALP1        0.0000 
     16 O          31.3160   -0.2290    4.6880 O.2       1 ALC1        0.0000 
     17 O          32.1020    0.4350    3.6710 O.2       5 ALP1        0.0000 
     18 CA         30.3585    1.8320   12.8475 C.3       4 GLC5        0.0000 
     19 CA         29.3640    1.2250   11.3350 C.3      12 GLL5        0.0000 
     20 CA         31.3530    2.4390   14.3600 C.3       8 GLP5        0.0000 
     21 O          25.9500   10.3190    7.9050 O.2       1 ALC1        0.0000 
     22 O          26.2750    9.0600    8.3410 O.2       9 ALL1        0.0000 
     23 O          25.6250   11.5780    7.4690 O.2       5 ALP1        0.0000 
     24 CA         32.9840    0.3175    8.0380 C.3       4 GLC5        0.0000 
     25 CA         31.4970    0.7340    7.2850 C.3      12 GLL5        0.0000 
     26 CA         34.4710   -0.0990    8.7910 C.3       8 GLP5        0.0000 
     27 CA         30.2985    0.9530    4.7955 C.3       4 GLC5        0.0000 
     28 CA         30.2030    0.0630    6.8040 C.3      12 GLL5        0.0000 
     29 CA         30.3940    1.8430    2.7870 C.3       8 GLP5        0.0000 
     30 CA         30.3535    8.3775    5.9630 C.3       4 GLC5        0.0000 
     31 CA         29.0360    7.3230    6.2970 C.3      12 GLL5        0.0000 
     32 CA         31.6710    9.4320    5.6290 C.3       8 GLP5        0.0000 
     33 CA         29.3840    9.0900    5.4165 C.3       4 GLC5        0.0000 
     34 CA         28.1390    8.4110    6.6210 C.3      12 GLL5        0.0000 
     35 CA         30.6290    9.7690    4.2120 C.3       8 GLP5        0.0000 
     36 CA         29.5770    6.6590    9.6650 C.3       4 GLC5        0.0000 
     37 CA         28.0920    5.9700    8.2750 C.3      12 GLL5        0.0000 
     38 CA         31.0620    7.3480   11.0550 C.3       8 GLP5        0.0000 
     39 CA         28.0015    5.3695    5.7400 C.3       4 GLC5        0.0000 
     40 CA         29.0030    6.1150    7.1230 C.3      12 GLL5        0.0000 
     41 CA         27.0000    4.6240    4.3570 C.3       8 GLP5        0.0000 
     42 CA         26.9220    7.3715   12.2525 C.3       4 GLC5        0.0000 
     43 CA         25.7470    6.4170   10.7630 C.3      12 GLL5        0.0000 
     44 CA         28.0970    8.3260   13.7420 C.3       8 GLP5        0.0000 
     45 CA         24.9475    4.9785    9.9515 C.3       4 GLC5        0.0000 
     46 CA         24.1480    3.5400    9.1400 C.3       8 GLP5        0.0000 
     47 CA         25.1245    5.5380   12.1230 C.3       4 GLC5        0.0000 
     48 CA         24.5020    4.6590   13.4830 C.3       8 GLP5        0.0000 
     49 CA         28.2580    4.6855   13.6180 C.3       4 GLC5        0.0000 
     50 CA         27.6800    3.1600   12.3800 C.3      12 GLL5        0.0000 
     51 CA         28.8360    6.2110   14.8560 C.3       8 GLP5        0.0000 
     52 CA         29.5165    2.7995   13.3700 C.3       4 GLC5        0.0000 
     53 CA         26.0295    1.9845   12.0815 C.3       4 GLC5        0.0000 
     54 CA         24.3790    0.8090   11.7830 C.3       8 GLP5        0.0000 
     55 CA         26.3150    3.6000   13.5140 C.3       4 GLC5        0.0000 
     56 CA         24.9500    4.0400   14.6480 C.3       8 GLP5        0.0000 
     57 CA         26.0300    1.8413    8.7300 C.3       4 GLC5        0.0000 
     58 CA         27.3810    2.0450    9.9040 C.3      12 GLL5        0.0000 
     59 CA         24.4790    2.0850    8.0870 C.3       8 GLP5        0.0000 
     60 CA         26.0815    1.4290   11.1465 C.3       4 GLC5        0.0000 
     61 CA         27.2538    6.6975    5.6970 C.3       4 GLC5        0.0000 
     62 CA         25.9200    5.5280    4.9350 C.3       8 GLP5        0.0000 
     63 CA         26.6410    9.1553    5.8003 C.3       4 GLC5        0.0000 
     64 CA         27.2330    8.2640    7.7620 C.3      12 GLL5        0.0000 
     65 CA         25.5960    9.9730    4.4090 C.3       8 GLP5        0.0000 
     66 CA         28.0170    9.0491    9.0524 C.3       4 GLC5        0.0000 
     67 CA         27.1860    7.0510    8.6160 C.3      12 GLL5        0.0000 
     68 CA         28.5980   10.4040   10.2010 C.3       8 GLP5        0.0000 
     69 CA         25.7325    5.6537    8.1538 C.3       4 GLC5        0.0000 
     70 CA         23.8260    4.7970    7.8620 C.3       8 GLP5        0.0000 
     71 CA         26.7854    6.1709    6.5835 C.3       4 GLC5        0.0000 
@<TRIPOS>BOND
@<TRIPOS>SUBSTRUCTURE
     1 ALC1       13 GROUP        1 X    ALC  0     ROOT ALC X 1
     2 SEC2        1 GROUP        1 X    SEC  0     **** SEC X 2
     3 ASC3       10 GROUP        1 X    ASC  0     **** ASC X 3
     4 GLC5        4 GROUP        1 X    GLC  0     **** GLC X 6
     5 ALP1       15 GROUP        1 Y    ALP  0     ROOT ALP Y 8
     6 SEP2        3 GROUP        1 Y    SEP  0     **** SEP Y 9
     7 ASP3       12 GROUP        1 Y    ASP  0     **** ASP Y 10
     8 GLP5        6 GROUP        1 Y    GLP  0     **** GLP Y 13
     9 ALL1       14 GROUP        1 Z    ALL  0     ROOT ALL Z 15
    10 SEL2        2 GROUP        1 Z    SEL  0     **** SEL Z 16
    11 ASL3       11 GROUP        1 Z    ASL  0     **** ASL Z 17
    12 GLL5        5 GROUP        1 Z    GLL  0     **** GLL Z 20
@<TRIPOS>SET

