#    Name: 3l9m_L9M_1_ligand
#    Modification time : Mon Mar 24 21:11:51 2014

@<TRIPOS>MOLECULE
3l9m_L9M_1_ligand
   50    53     1     0     0
SMALL
NO_CHARGES


@<TRIPOS>ATOM
      1 C1         27.7810    1.1500    8.8420 C.ar      1 L9M351      0.0000 
      2 N1         25.6970    8.4820    9.3970 N.2       1 L9M351      0.0000 
      3 S1         30.0540    3.5020    7.6100 S.3       1 L9M351      0.0000 
      4 C2         27.3810    2.0450    9.9040 C.ar      1 L9M351      0.0000 
      5 N2         31.5370    4.0450    5.6520 N.2       1 L9M351      0.0000 
      6 C3         28.1870    2.0530   11.1160 C.ar      1 L9M351      0.0000 
      7 N3         30.5300   -0.8930    5.7050 N.4       1 L9M351      0.0000 
      8 C4         29.3640    1.2250   11.3350 C.ar      1 L9M351      0.0000 
      9 N4         26.2750    9.0600    8.3410 N.pl3     1 L9M351      0.0000 
     10 C5         29.7520    0.3440   10.2740 C.ar      1 L9M351      0.0000 
     11 N5         30.8120    5.0500    5.7470 N.2       1 L9M351      0.0000 
     12 C6         28.9600    0.3250    9.0570 C.ar      1 L9M351      0.0000 
     13 N6         31.9660    1.7630    6.3140 N.pl3     1 L9M351      0.0000 
     14 C7         31.4970    0.7340    7.2850 C.3       1 L9M351      0.0000 
     15 C8         29.4160   -0.6210    7.9330 C.3       1 L9M351      0.0000 
     16 C9         26.1770    7.2750    9.6450 C.2       1 L9M351      0.0000 
     17 C10        30.2030    0.0630    6.8040 C.3       1 L9M351      0.0000 
     18 C11        29.0360    7.3230    6.2970 C.ar      1 L9M351      0.0000 
     19 C12        31.3030    2.9930    6.4540 C.2       1 L9M351      0.0000 
     20 C13        28.1390    8.4110    6.6210 C.ar      1 L9M351      0.0000 
     21 C14        27.2330    8.2640    7.7620 C.ar      1 L9M351      0.0000 
     22 C15        27.1860    7.0510    8.6160 C.ar      1 L9M351      0.0000 
     23 C16        28.0920    5.9700    8.2750 C.ar      1 L9M351      0.0000 
     24 C17        29.0030    6.1150    7.1230 C.ar      1 L9M351      0.0000 
     25 C18        25.7470    6.4170   10.7630 C.3       1 L9M351      0.0000 
     26 C19        29.9220    5.0400    6.7610 C.2       1 L9M351      0.0000 
     27 CL1        27.6800    3.1600   12.3800 C.3       1 L9M351      0.0000 
     28 H          27.2710    1.0966    7.9920 H         1 L9M351      0.0000 
     29 H          26.5889    2.6327    9.8151 H         1 L9M351      0.0000 
     30 H          29.8683    1.2765   12.1858 H         1 L9M351      0.0000 
     31 H          26.0519    9.9622    7.9971 H         1 L9M351      0.0000 
     32 H          30.5533   -0.2513   10.3614 H         1 L9M351      0.0000 
     33 H          32.6540    1.5619    5.6750 H         1 L9M351      0.0000 
     34 H          31.3073    1.1928    8.2601 H         1 L9M351      0.0000 
     35 H          32.2603   -0.0391    7.4149 H         1 L9M351      0.0000 
     36 H          28.5282   -1.1119    7.5008 H         1 L9M351      0.0000 
     37 H          30.0415   -1.4166    8.3710 H         1 L9M351      0.0000 
     38 H          29.5641    0.8564    6.3828 H         1 L9M351      0.0000 
     39 H          29.6672    7.3873    5.5276 H         1 L9M351      0.0000 
     40 H          28.1318    9.2505    6.0810 H         1 L9M351      0.0000 
     41 H          28.1073    5.1246    8.8125 H         1 L9M351      0.0000 
     42 H          30.9558   -0.4322    4.9263 H         1 L9M351      0.0000 
     43 H          31.1648   -1.6039    6.0078 H         1 L9M351      0.0000 
     44 H          29.7135   -1.3564    5.3607 H         1 L9M351      0.0000 
     45 H          26.2374    5.5456   10.7723 H         1 L9M351      0.0000 
     46 H          25.9072    6.8529   11.6486 H         1 L9M351      0.0000 
     47 H          24.7713    6.2037   10.7135 H         1 L9M351      0.0000 
     48 H          28.2799    3.1117   13.1786 H         1 L9M351      0.0000 
     49 H          27.6855    4.1095   12.0663 H         1 L9M351      0.0000 
     50 H          26.7527    2.9616   12.6975 H         1 L9M351      0.0000 
@<TRIPOS>BOND
     1    4    1 ar   
     2   12    1 ar   
     3   28    1 1    
     4    9    2 1    
     5   16    2 2    
     6   19    3 1    
     7   26    3 1    
     8    6    4 ar   
     9   29    4 1    
    10   11    5 1    
    11   19    5 2    
    12    8    6 ar   
    13   27    6 1    
    14   17    7 1    
    15   42    7 1    
    16   43    7 1    
    17   44    7 1    
    18   10    8 ar   
    19   30    8 1    
    20   21    9 1    
    21   31    9 1    
    22   12   10 ar   
    23   32   10 1    
    24   26   11 2    
    25   15   12 1    
    26   14   13 1    
    27   19   13 1    
    28   33   13 1    
    29   17   14 1    
    30   34   14 1    
    31   35   14 1    
    32   17   15 1    
    33   36   15 1    
    34   37   15 1    
    35   22   16 1    
    36   25   16 1    
    37   38   17 1    
    38   20   18 ar   
    39   24   18 ar   
    40   39   18 1    
    41   21   20 ar   
    42   40   20 1    
    43   22   21 ar   
    44   23   22 ar   
    45   24   23 ar   
    46   41   23 1    
    47   26   24 1    
    48   45   25 1    
    49   46   25 1    
    50   47   25 1    
    51   48   27 1    
    52   49   27 1    
    53   50   27 1    
@<TRIPOS>SUBSTRUCTURE
     1 L9M351      1 GROUP   
@<TRIPOS>SET

