#    Name: 2o3p_QUE_3_INTS_M
#    Modification time : Tue Mar 25 21:57:36 2014

@<TRIPOS>MOLECULE
2o3p_QUE_3_INTS_M
   50     0     9     0     0
SMALL
NO_CHARGES


@<TRIPOS>ATOM
      1 CA         74.8850   41.5300   -0.4925 C.3       3 GLC5        0.0000 
      2 CA         73.8950   40.2410    0.5690 C.3       9 GLL5        0.0000 
      3 CA         75.8750   42.8190   -1.5540 C.3       6 GLP5        0.0000 
      4 CA         75.7020   38.6855   -1.5565 C.3       3 GLC5        0.0000 
      5 CA         74.1820   38.8910    0.0240 C.3       9 GLL5        0.0000 
      6 CA         77.2220   38.4800   -3.1370 C.3       6 GLP5        0.0000 
      7 CA         72.7875   40.4625    2.3185 C.3       3 GLC5        0.0000 
      8 CA         74.5230   39.4470    2.7670 C.3       9 GLL5        0.0000 
      9 CA         71.0520   41.4780    1.8700 C.3       6 GLP5        0.0000 
     10 CA         73.1475   33.8150   -2.3955 C.3       3 GLC5        0.0000 
     11 CA         75.0990   34.1800   -2.4400 C.3       9 GLL5        0.0000 
     12 CA         71.1960   33.4500   -2.3510 C.3       6 GLP5        0.0000 
     13 CA         77.4140   31.9630   -3.0785 C.3       3 GLC5        0.0000 
     14 CA         75.4180   32.8310   -2.6190 C.3       9 GLL5        0.0000 
     15 CA         79.4100   31.0950   -3.5380 C.3       6 GLP5        0.0000 
     16 CA         77.4425   30.9660   -2.1035 C.3       3 GLC5        0.0000 
     17 CA         75.7890   32.0330   -1.5340 C.3       9 GLL5        0.0000 
     18 CA         79.0960   29.8990   -2.6730 C.3       6 GLP5        0.0000 
     19 CA         75.0180   30.0675   -1.3020 C.3       3 GLC5        0.0000 
     20 CA         74.2470   28.1020   -1.0700 C.3       6 GLP5        0.0000 
     21 N          76.9515   30.0080   -2.2925 N.am      2 SEC2        0.0000 
     22 N          76.1170   30.7430   -1.6460 N.am      8 SEL2        0.0000 
     23 N          77.7860   29.2730   -2.9390 N.am      5 SEP2        0.0000 
     24 O          74.0390   37.8760   -4.1255 O.2       1 ALC1        0.0000 
     25 O          74.2110   36.8100   -3.0700 O.2       7 ALL1        0.0000 
     26 O          73.8670   38.9420   -5.1810 O.2       4 ALP1        0.0000 
     27 CA         75.8780   40.2167    1.2120 C.3       3 GLC5        0.0000 
     28 CA         77.7690   40.0790    1.1760 C.3       6 GLP5        0.0000 
     29 CA         76.0953   39.2245    0.8330 C.3       3 GLC5        0.0000 
     30 CA         72.5683   40.5504    1.2530 C.3       3 GLC5        0.0000 
     31 CA         72.6693   37.5660   -0.0635 C.3       3 GLC5        0.0000 
     32 CA         70.9170   36.7620   -0.6170 C.3       6 GLP5        0.0000 
     33 CA         76.2190   39.4425    1.8547 C.3       3 GLC5        0.0000 
     34 CA         74.8150   38.1650    2.3000 C.3       9 GLL5        0.0000 
     35 CA         75.9040   37.5690   -2.2332 C.3       3 GLC5        0.0000 
     36 CA         74.8080   36.2100   -0.8820 C.3       9 GLL5        0.0000 
     37 CA         72.7515   36.7100   -0.9733 C.3       3 GLC5        0.0000 
     38 CA         74.3640   37.1060   -1.7770 C.3       9 GLL5        0.0000 
     39 CA         76.9430   35.7802   -0.6695 C.3       3 GLC5        0.0000 
     40 CA         78.9040   36.0740   -0.3140 C.3       6 GLP5        0.0000 
     41 CA         76.3642   33.8992   -4.0968 C.3       3 GLC5        0.0000 
     42 CA         77.4700   34.2930   -5.6640 C.3       6 GLP5        0.0000 
     43 CA         73.6322   32.2625   -1.9698 C.3       3 GLC5        0.0000 
     44 CA         71.6610   32.0930   -1.8630 C.3       6 GLP5        0.0000 
     45 CA         73.8951   33.0794    0.0694 C.3       3 GLC5        0.0000 
     46 CA         75.8560   32.6420   -0.2050 C.3       9 GLL5        0.0000 
     47 CA         72.1900   32.6510    0.5470 C.3       6 GLP5        0.0000 
     48 CA         77.5604   33.4384   -0.0776 C.3       3 GLC5        0.0000 
     49 CA         75.5330   33.9840   -0.0550 C.3       9 GLL5        0.0000 
     50 CA         79.4430   33.7160    0.3070 C.3       6 GLP5        0.0000 
@<TRIPOS>BOND
@<TRIPOS>SUBSTRUCTURE
     1 ALC1       24 GROUP        1 X    ALC  0     ROOT ALC X 1
     2 SEC2       21 GROUP        1 X    SEC  0     **** SEC X 2
     3 GLC5        1 GROUP        1 X    GLC  0     **** GLC X 6
     4 ALP1       26 GROUP        1 Y    ALP  0     ROOT ALP Y 8
     5 SEP2       23 GROUP        1 Y    SEP  0     **** SEP Y 9
     6 GLP5        3 GROUP        1 Y    GLP  0     **** GLP Y 13
     7 ALL1       25 GROUP        1 Z    ALL  0     ROOT ALL Z 15
     8 SEL2       22 GROUP        1 Z    SEL  0     **** SEL Z 16
     9 GLL5        2 GROUP        1 Z    GLL  0     **** GLL Z 20
@<TRIPOS>SET

