#    Name: 2o3p_QUE_3_ligand
#    Modification time : Tue Mar 25 21:57:36 2014

@<TRIPOS>MOLECULE
2o3p_QUE_3_ligand
   32    34     1     0     0
SMALL
NO_CHARGES


@<TRIPOS>ATOM
      1 C1         74.0790   40.4680    1.9270 C.ar      1 QUE501      0.0000 
      2 C2         73.8950   40.2410    0.5690 C.ar      1 QUE501      0.0000 
      3 C3         74.1820   38.8910    0.0240 C.ar      1 QUE501      0.0000 
      4 C4         74.6610   37.8490    0.9560 C.ar      1 QUE501      0.0000 
      5 C5         74.8150   38.1650    2.3000 C.ar      1 QUE501      0.0000 
      6 C6         74.5230   39.4470    2.7670 C.ar      1 QUE501      0.0000 
      7 C9         74.0320   38.4810   -1.3970 C.2       1 QUE501      0.0000 
      8 C10        74.3640   37.1060   -1.7770 C.2       1 QUE501      0.0000 
      9 C11        74.8080   36.2100   -0.8820 C.2       1 QUE501      0.0000 
     10 C14        75.1560   34.7630   -1.1680 C.ar      1 QUE501      0.0000 
     11 C15        75.0990   34.1800   -2.4400 C.ar      1 QUE501      0.0000 
     12 C16        75.4180   32.8310   -2.6190 C.ar      1 QUE501      0.0000 
     13 C17        75.7890   32.0330   -1.5340 C.ar      1 QUE501      0.0000 
     14 C18        75.8560   32.6420   -0.2050 C.ar      1 QUE501      0.0000 
     15 C19        75.5330   33.9840   -0.0550 C.ar      1 QUE501      0.0000 
     16 O12        74.9460   36.5950    0.5050 O.3       1 QUE501      0.0000 
     17 O13        73.6500   39.2450   -2.2520 O.2       1 QUE501      0.0000 
     18 O23        76.2260   31.8700    0.8010 O.3       1 QUE501      0.0000 
     19 O24        76.1170   30.7430   -1.6460 O.3       1 QUE501      0.0000 
     20 O27        74.2110   36.8100   -3.0700 O.3       1 QUE501      0.0000 
     21 O29        74.6930   39.7160    4.0640 O.3       1 QUE501      0.0000 
     22 O30        73.4630   41.2300   -0.1870 O.3       1 QUE501      0.0000 
     23 H          73.8854   41.4029    2.3217 H         1 QUE501      0.0000 
     24 H          75.1485   37.4464    2.9617 H         1 QUE501      0.0000 
     25 H          74.8195   34.7511   -3.2498 H         1 QUE501      0.0000 
     26 H          75.3789   32.4196   -3.5645 H         1 QUE501      0.0000 
     27 H          75.5663   34.4242    0.8763 H         1 QUE501      0.0000 
     28 H          77.1920   31.6725    0.6339 H         1 QUE501      0.0000 
     29 H          76.4310   30.4758   -0.7349 H         1 QUE501      0.0000 
     30 H          74.1016   37.6931   -3.5263 H         1 QUE501      0.0000 
     31 H          75.2704   40.2934    4.6414 H         1 QUE501      0.0000 
     32 H          73.4161   40.8485   -1.1102 H         1 QUE501      0.0000 
@<TRIPOS>BOND
     1    2    1 ar   
     2    6    1 ar   
     3   23    1 1    
     4    3    2 ar   
     5   22    2 1    
     6    4    3 ar   
     7    7    3 1    
     8    5    4 ar   
     9   16    4 1    
    10    6    5 ar   
    11   24    5 1    
    12   21    6 1    
    13    8    7 1    
    14   17    7 2    
    15    9    8 2    
    16   20    8 1    
    17   10    9 1    
    18   16    9 1    
    19   11   10 ar   
    20   15   10 ar   
    21   12   11 ar   
    22   25   11 1    
    23   13   12 ar   
    24   26   12 1    
    25   14   13 ar   
    26   19   13 1    
    27   15   14 ar   
    28   18   14 1    
    29   27   15 1    
    30   28   18 1    
    31   29   19 1    
    32   30   20 1    
    33   31   21 1    
    34   32   22 1    
@<TRIPOS>SUBSTRUCTURE
     1 QUE501      1 GROUP   
@<TRIPOS>SET

