#    Name: 3k8t_2A5_2_INTS_M
#    Modification time : Mon Mar 24 18:55:42 2014

@<TRIPOS>MOLECULE
3k8t_2A5_2_INTS_M
   72     0     9     0     0
SMALL
NO_CHARGES


@<TRIPOS>ATOM
      1 N          27.5165   48.7255   15.4205 N.am      2 SEC2        0.0000 
      2 N          26.7440   49.3640   16.2730 N.am      8 SEL2        0.0000 
      3 N          28.2890   48.0870   14.5680 N.am      5 SEP2        0.0000 
      4 N          26.7035   50.2250   13.4500 N.am      2 SEC2        0.0000 
      5 N          25.3960   50.2490   14.1920 N.am      8 SEL2        0.0000 
      6 N          28.0110   50.2010   12.7080 N.am      5 SEP2        0.0000 
      7 N          26.9945   55.1495   16.0945 N.am      2 SEC2        0.0000 
      8 N          26.4970   54.0290   15.5370 N.am      8 SEL2        0.0000 
      9 N          27.4920   56.2700   16.6520 N.am      5 SEP2        0.0000 
     10 N          27.6575   54.1800   18.5430 N.am      2 SEC2        0.0000 
     11 N          27.4090   52.9630   17.6750 N.am      8 SEL2        0.0000 
     12 N          27.9060   55.3970   19.4110 N.am      5 SEP2        0.0000 
     13 N          27.4505   54.6165   17.1635 N.am      2 SEC2        0.0000 
     14 N          28.4545   52.5215   13.7695 N.am      2 SEC2        0.0000 
     15 N          28.2040   52.2040   15.3650 N.am      8 SEL2        0.0000 
     16 N          28.7050   52.8390   12.1740 N.am      5 SEP2        0.0000 
     17 N          29.5040   52.8565   14.6735 N.am      2 SEC2        0.0000 
     18 N          30.8040   53.5090   13.9820 N.am      5 SEP2        0.0000 
     19 N          29.4460   52.1475   15.7910 N.am      2 SEC2        0.0000 
     20 N          30.6880   52.0910   16.2170 N.am      5 SEP2        0.0000 
     21 CA         25.3760   47.8860   17.9830 C.3       3 GLC5        0.0000 
     22 CA         24.2310   49.6120   17.7290 C.3       9 GLL5        0.0000 
     23 CA         26.5210   46.1600   18.2370 C.3       6 GLP5        0.0000 
     24 CA         24.6005   47.9395   16.5750 C.3       3 GLC5        0.0000 
     25 CA         24.9700   46.2670   15.4210 C.3       6 GLP5        0.0000 
     26 CA         23.0285   51.0090   19.9325 C.3       3 GLC5        0.0000 
     27 CA         22.9010   50.0650   18.3080 C.3       9 GLL5        0.0000 
     28 CA         23.1560   51.9530   21.5570 C.3       6 GLP5        0.0000 
     29 CA         22.0745   51.6350   19.6515 C.3       3 GLC5        0.0000 
     30 CA         20.9930   51.3170   17.7460 C.3       9 GLL5        0.0000 
     31 CA         18.8885   51.8460   18.2960 C.3       3 GLC5        0.0000 
     32 CA         16.7840   52.3750   18.8460 C.3       6 GLP5        0.0000 
     33 CA         19.1565   51.0000   16.5500 C.3       3 GLC5        0.0000 
     34 CA         17.3200   50.6830   15.3540 C.3       6 GLP5        0.0000 
     35 CA         18.1930   46.9920   19.9035 C.3       3 GLC5        0.0000 
     36 CA         18.8510   48.5360   19.3940 C.3       9 GLL5        0.0000 
     37 CA         17.5350   45.4480   20.4130 C.3       6 GLP5        0.0000 
     38 N          18.6480   47.4180   19.7535 N.am      2 SEC2        0.0000 
     39 N          17.5340   48.7540   19.9200 N.am      8 SEL2        0.0000 
     40 N          19.7620   46.0820   19.5870 N.am      5 SEP2        0.0000 
     41 N          17.0795   47.6450   18.9090 N.am      2 SEC2        0.0000 
     42 N          16.6250   46.5360   17.8980 N.am      5 SEP2        0.0000 
     43 O          16.8910   50.0955   20.4605 O.2       1 ALC1        0.0000 
     44 O          17.5340   48.7540   19.9200 O.2       7 ALL1        0.0000 
     45 O          16.2480   51.4370   21.0010 O.2       4 ALP1        0.0000 
     46 O          22.7415   47.0430   19.1620 O.2       1 ALC1        0.0000 
     47 O          21.8980   48.0600   19.0840 O.2       7 ALL1        0.0000 
     48 O          23.5850   46.0260   19.2400 O.2       4 ALP1        0.0000 
     49 CA         18.2190   52.6610   17.5960 C.3       3 GLC5        0.0000 
     50 CA         19.6540   52.9470   16.3460 C.3       9 GLL5        0.0000 
     51 CA         16.8190   53.6620   13.8790 C.3       3 GLC5        0.0000 
     52 CA         18.6220   54.2800   14.4780 C.3       9 GLL5        0.0000 
     53 CA         15.0160   53.0440   13.2800 C.3       6 GLP5        0.0000 
     54 CA         18.3685   54.8320   18.7605 C.3       3 GLC5        0.0000 
     55 CA         18.0810   54.6840   16.7440 C.3       9 GLL5        0.0000 
     56 CA         18.6560   54.9800   20.7770 C.3       6 GLP5        0.0000 
     57 CA         17.4325   53.5295   17.7950 C.3       3 GLC5        0.0000 
     58 CA         17.7005   52.6835   16.0490 C.3       3 GLC5        0.0000 
     59 CA         21.8155   49.0207   19.9528 C.3       3 GLC5        0.0000 
     60 CA         21.2740   48.4860   21.7290 C.3       6 GLP5        0.0000 
     61 CA         18.0035   50.7803   19.0582 C.3       3 GLC5        0.0000 
     62 CA         20.3642   48.8404   20.3491 C.3       3 GLC5        0.0000 
     63 CA         18.1743   48.8789   17.7626 C.3       3 GLC5        0.0000 
     64 CA         19.5950   49.8350   19.1470 C.3       9 GLL5        0.0000 
     65 CA         16.8940   48.5630   16.5560 C.3       6 GLP5        0.0000 
     66 CA         23.9698   49.0691   19.4119 C.3       3 GLC5        0.0000 
     67 CA         21.8130   49.0460   18.0450 C.3       9 GLL5        0.0000 
     68 CA         25.2500   48.6960   20.7920 C.3       6 GLP5        0.0000 
     69 CA         18.2157   52.1807   15.2024 C.3       3 GLC5        0.0000 
     70 CA         21.2200   49.0175   16.5426 C.3       3 GLC5        0.0000 
     71 CA         20.5210   49.8720   17.9420 C.3       9 GLL5        0.0000 
     72 CA         20.8830   47.9600   15.0750 C.3       6 GLP5        0.0000 
@<TRIPOS>BOND
@<TRIPOS>SUBSTRUCTURE
     1 ALC1       43 GROUP        1 X    ALC  0     ROOT ALC X 1
     2 SEC2        1 GROUP        1 X    SEC  0     **** SEC X 2
     3 GLC5       21 GROUP        1 X    GLC  0     **** GLC X 6
     4 ALP1       45 GROUP        1 Y    ALP  0     ROOT ALP Y 8
     5 SEP2        3 GROUP        1 Y    SEP  0     **** SEP Y 9
     6 GLP5       23 GROUP        1 Y    GLP  0     **** GLP Y 13
     7 ALL1       44 GROUP        1 Z    ALL  0     ROOT ALL Z 15
     8 SEL2        2 GROUP        1 Z    SEL  0     **** SEL Z 16
     9 GLL5       22 GROUP        1 Z    GLL  0     **** GLL Z 20
@<TRIPOS>SET

