#    Name: 3k8t_2A5_2_ligand
#    Modification time : Mon Mar 24 18:55:42 2014

@<TRIPOS>MOLECULE
3k8t_2A5_2_ligand
   45    47     1     0     0
SMALL
NO_CHARGES


@<TRIPOS>ATOM
      1 O2A        26.7440   49.3640   16.2730 O.co2     1 2A5891      0.0000 
      2 PA         25.6630   50.2490   15.6890 P.3       1 2A5891      0.0000 
      3 O1A        25.3960   50.2490   14.1920 O.co2     1 2A5891      0.0000 
      4 O3A        25.8130   51.7740   16.2420 O.3       1 2A5891      0.0000 
      5 PB         27.0860   52.7960   16.2070 P.3       1 2A5891      0.0000 
      6 O2B        26.4970   54.0290   15.5370 O.co2     1 2A5891      0.0000 
      7 O1B        27.4090   52.9630   17.6750 O.co2     1 2A5891      0.0000 
      8 O3B        28.2040   52.2040   15.3650 O.co2     1 2A5891      0.0000 
      9 O5'        24.2600   49.8240   16.3290 O.3       1 2A5891      0.0000 
     10 C5'        24.2310   49.6120   17.7290 C.3       1 2A5891      0.0000 
     11 C4'        22.9010   50.0650   18.3080 C.3       1 2A5891      0.0000 
     12 O4'        22.4370   51.3080   17.7700 O.3       1 2A5891      0.0000 
     13 C1'        20.9930   51.3170   17.7460 C.3       1 2A5891      0.0000 
     14 C2'        20.5210   49.8720   17.9420 C.3       1 2A5891      0.0000 
     15 C01        19.5950   49.8350   19.1470 C.3       1 2A5891      0.0000 
     16 C02        18.8510   48.5360   19.3940 C.3       1 2A5891      0.0000 
     17 O01        17.5340   48.7540   19.9200 O.3       1 2A5891      0.0000 
     18 C3'        21.8130   49.0460   18.0450 C.3       1 2A5891      0.0000 
     19 O3'        21.8980   48.0600   19.0840 O.3       1 2A5891      0.0000 
     20 N9         20.5250   51.9350   16.4680 N.pl3     1 2A5891      0.0000 
     21 C8         20.9540   51.5810   15.2350 C.2       1 2A5891      0.0000 
     22 N7         20.3690   52.3400   14.2780 N.2       1 2A5891      0.0000 
     23 C5         19.5480   53.2070   14.9010 C.ar      1 2A5891      0.0000 
     24 C4         19.6540   52.9470   16.3460 C.ar      1 2A5891      0.0000 
     25 C6         18.6220   54.2800   14.4780 C.ar      1 2A5891      0.0000 
     26 N6         18.4870   54.5570   13.1600 N.pl3     1 2A5891      0.0000 
     27 N1         17.9340   54.9680   15.4350 N.ar      1 2A5891      0.0000 
     28 C2         18.0810   54.6840   16.7440 C.ar      1 2A5891      0.0000 
     29 N3         18.9070   53.7080   17.1890 N.ar      1 2A5891      0.0000 
     30 H          25.0280   50.1706   18.2447 H         1 2A5891      0.0000 
     31 H          24.3628   48.5489   17.9853 H         1 2A5891      0.0000 
     32 H          23.0055   50.1441   19.3940 H         1 2A5891      0.0000 
     33 H          20.6247   51.9015   18.5852 H         1 2A5891      0.0000 
     34 H          19.9940   49.5905   17.0507 H         1 2A5891      0.0000 
     35 H          18.8501   50.6607   19.0486 H         1 2A5891      0.0000 
     36 H          20.1878   50.0867   20.0590 H         1 2A5891      0.0000 
     37 H          19.4603   47.9223   20.0852 H         1 2A5891      0.0000 
     38 H          18.8117   47.9804   18.4372 H         1 2A5891      0.0000 
     39 H          22.0236   48.6281   17.0665 H         1 2A5891      0.0000 
     40 H          21.6041   50.8676   15.0563 H         1 2A5891      0.0000 
     41 H          17.8127   55.2568   12.9243 H         1 2A5891      0.0000 
     42 H          19.0735   54.0373   12.5388 H         1 2A5891      0.0000 
     43 H          17.5304   55.2443   17.4541 H         1 2A5891      0.0000 
     44 H          17.4942   49.7330   20.1202 H         1 2A5891      0.0000 
     45 H          22.6687   47.4776   18.8255 H         1 2A5891      0.0000 
@<TRIPOS>BOND
     1    2    1 ar   
     2    3    2 ar   
     3    4    2 1    
     4    9    2 1    
     5    5    4 1    
     6    6    5 ar   
     7    7    5 ar   
     8    8    5 ar   
     9   10    9 1    
    10   11   10 1    
    11   30   10 1    
    12   31   10 1    
    13   12   11 1    
    14   18   11 1    
    15   32   11 1    
    16   13   12 1    
    17   14   13 1    
    18   20   13 1    
    19   33   13 1    
    20   15   14 1    
    21   18   14 1    
    22   34   14 1    
    23   16   15 1    
    24   35   15 1    
    25   36   15 1    
    26   17   16 1    
    27   37   16 1    
    28   38   16 1    
    29   44   17 1    
    30   19   18 1    
    31   39   18 1    
    32   45   19 1    
    33   21   20 1    
    34   24   20 1    
    35   22   21 2    
    36   40   21 1    
    37   23   22 1    
    38   24   23 ar   
    39   25   23 ar   
    40   29   24 ar   
    41   26   25 1    
    42   27   25 ar   
    43   41   26 1    
    44   42   26 1    
    45   28   27 ar   
    46   29   28 ar   
    47   43   28 1    
@<TRIPOS>SUBSTRUCTURE
     1 2A5891      1 GROUP   
@<TRIPOS>SET

