#    Name: 1z2c_GNP_1_INTS_M
#    Modification time : Mon Apr  7 16:21:14 2014

@<TRIPOS>MOLECULE
1z2c_GNP_1_INTS_M
   78     0    15     0     0
SMALL
NO_CHARGES


@<TRIPOS>ATOM
      1 N          27.7330   80.2245   93.5600 N.am      2 SEC2        0.0000 
      2 N          27.7620   80.3320   92.1510 N.am     12 SEL2        0.0000 
      3 N          27.7040   80.1170   94.9690 N.am      7 SEP2        0.0000 
      4 NZ         24.8940   79.8415   90.0305 N.4       3 LYC4        0.0000 
      5 NZ         26.7200   79.2590   90.0170 N.4      13 LYL4        0.0000 
      6 NZ         23.0680   80.4240   90.0440 N.4       8 LYP4        0.0000 
      7 Zn         26.9315   78.1395   89.9115 Zn        4 ZIC7        0.0000 
      8 Zn         26.7200   79.2590   90.0170 Zn       14 ZIL7        0.0000 
      9 Zn         27.1430   77.0200   89.8060 Zn        9 ZIP7        0.0000 
     10 N          28.4385   79.0170   89.9405 N.am      2 SEC2        0.0000 
     11 N          26.7200   79.2590   90.0170 N.am     12 SEL2        0.0000 
     12 N          30.1570   78.7750   89.8640 N.am      7 SEP2        0.0000 
     13 N          27.4335   78.6425   89.1020 N.am      2 SEC2        0.0000 
     14 N          28.1470   78.0260   88.1870 N.am      7 SEP2        0.0000 
     15 NZ         24.3030   80.6445   90.8355 N.4       3 LYC4        0.0000 
     16 NZ         25.5380   80.8650   91.6270 N.4      13 LYL4        0.0000 
     17 N          24.8145   80.6595   92.9640 N.am      2 SEC2        0.0000 
     18 N          25.5380   80.8650   91.6270 N.am     12 SEL2        0.0000 
     19 N          24.0910   80.4540   94.3010 N.am      7 SEP2        0.0000 
     20 N          24.3030   80.6445   90.8355 N.am      2 SEC2        0.0000 
     21 N          23.0680   80.4240   90.0440 N.am      7 SEP2        0.0000 
     22 N          25.7950   81.9030   90.3430 N.am      2 SEC2        0.0000 
     23 N          26.0520   82.9410   89.0590 N.am      7 SEP2        0.0000 
     24 NZ         23.3075   79.3700   90.8845 N.4       3 LYC4        0.0000 
     25 NZ         23.5470   78.3160   91.7250 N.4      13 LYL4        0.0000 
     26 N          23.8190   79.3850   93.0130 N.am      2 SEC2        0.0000 
     27 N          23.5470   78.3160   91.7250 N.am     12 SEL2        0.0000 
     28 N          22.4730   77.4920   92.5975 N.am      2 SEC2        0.0000 
     29 N          21.3990   76.6680   93.4700 N.am      7 SEP2        0.0000 
     30 N          22.6540   77.2430   91.1705 N.am      2 SEC2        0.0000 
     31 N          21.7610   76.1700   90.6160 N.am      7 SEP2        0.0000 
     32 N          23.3075   79.3700   90.8845 N.am      2 SEC2        0.0000 
     33 Zn         26.1690   76.9375   90.1830 Zn        4 ZIC7        0.0000 
     34 Zn         25.1950   76.8550   90.5600 Zn       14 ZIL7        0.0000 
     35 N          24.5560   75.8315   89.8550 N.am      2 SEC2        0.0000 
     36 N          25.1950   76.8550   90.5600 N.am     12 SEL2        0.0000 
     37 N          23.9170   74.8080   89.1500 N.am      7 SEP2        0.0000 
     38 N          22.9295   76.5835   93.1995 N.am      2 SEC2        0.0000 
     39 N          24.4600   76.4990   92.9290 N.am     12 SEL2        0.0000 
     40 N          24.2395   73.0850   91.4455 N.am      2 SEC2        0.0000 
     41 N          24.5080   74.0490   92.5190 N.am     12 SEL2        0.0000 
     42 N          23.9710   72.1210   90.3720 N.am      7 SEP2        0.0000 
     43 CA         24.0350   77.3480   95.4645 C.3       5 GLC5        0.0000 
     44 CA         24.1830   75.2990   95.6210 C.3      15 GLL5        0.0000 
     45 CA         23.8870   79.3970   95.3080 C.3      10 GLP5        0.0000 
     46 CA         22.8685   75.3125   94.2675 C.3       5 GLC5        0.0000 
     47 CA         21.5540   75.3260   92.9140 C.3      10 GLP5        0.0000 
     48 CA         26.2645   75.9350   95.5170 C.3       5 GLC5        0.0000 
     49 CA         28.3460   76.5710   95.4130 C.3      10 GLP5        0.0000 
     50 CA         27.3785   74.5075   97.3370 C.3       5 GLC5        0.0000 
     51 CA         25.5480   73.8420   97.3310 C.3      15 GLL5        0.0000 
     52 CA         29.2090   75.1730   97.3430 C.3      10 GLP5        0.0000 
     53 CA         24.6670   71.8745   95.2505 C.3       5 GLC5        0.0000 
     54 CA         24.7380   72.5680   97.1340 C.3      15 GLL5        0.0000 
     55 CA         24.5960   71.1810   93.3670 C.3      10 GLP5        0.0000 
     56 CA         21.6815   74.2645   97.4910 C.3       5 GLC5        0.0000 
     57 CA         23.3760   72.9610   97.7090 C.3      15 GLL5        0.0000 
     58 CA         19.9870   75.5680   97.2730 C.3      10 GLP5        0.0000 
     59 CA         19.2855   72.6970   96.6275 C.3       5 GLC5        0.0000 
     60 CA         20.4670   71.3670   96.2320 C.3      15 GLL5        0.0000 
     61 CA         18.1040   74.0270   97.0230 C.3      10 GLP5        0.0000 
     62 CA         20.1280   70.1020   94.4075 C.3       5 GLC5        0.0000 
     63 CA         19.7890   68.8370   92.5830 C.3      10 GLP5        0.0000 
     64 N          18.7900   68.7385   95.3625 N.am      2 SEC2        0.0000 
     65 N          18.4740   70.2840   95.4450 N.am     12 SEL2        0.0000 
     66 N          19.1060   67.1930   95.2800 N.am      7 SEP2        0.0000 
     67 O          17.6135   70.1470   98.1670 O.2       1 ALC1        0.0000 
     68 O          18.8110   70.6210   97.6920 O.2      11 ALL1        0.0000 
     69 O          16.4160   69.6730   98.6420 O.2       6 ALP1        0.0000 
     70 O          17.7040   70.2635   99.3080 O.2       1 ALC1        0.0000 
     71 O          18.9920   70.8540   99.9740 O.2      11 ALL1        0.0000 
     72 O          17.9890   69.9765  100.3235 O.2       1 ALC1        0.0000 
     73 O          16.9860   69.0990  100.6730 O.2       6 ALP1        0.0000 
     74 CA         20.0550   73.2545   97.6850 C.3       5 GLC5        0.0000 
     75 CA         21.1240   71.7830   97.3710 C.3      15 GLL5        0.0000 
     76 CA         18.9860   74.7260   97.9990 C.3      10 GLP5        0.0000 
     77 CA         23.5190   70.7223   97.1663 C.3       5 GLC5        0.0000 
     78 CA         22.9810   68.6800   96.9110 C.3      10 GLP5        0.0000 
@<TRIPOS>BOND
@<TRIPOS>SUBSTRUCTURE
     1 ALC1       67 GROUP        1 X    ALC  0     ROOT ALC X 1
     2 SEC2        1 GROUP        1 X    SEC  0     **** SEC X 2
     3 LYC4        4 GROUP        1 X    LYC  0     **** LYC X 4
     4 ZIC7        7 GROUP        1 X    ZIC  0     **** ZIC X 5
     5 GLC5       43 GROUP        1 X    GLC  0     **** GLC X 6
     6 ALP1       69 GROUP        1 Y    ALP  0     ROOT ALP Y 8
     7 SEP2        3 GROUP        1 Y    SEP  0     **** SEP Y 9
     8 LYP4        6 GROUP        1 Y    LYP  0     **** LYP Y 11
     9 ZIP7        9 GROUP        1 Y    ZIP  0     **** ZIP Y 12
    10 GLP5       45 GROUP        1 Y    GLP  0     **** GLP Y 13
    11 ALL1       68 GROUP        1 Z    ALL  0     ROOT ALL Z 15
    12 SEL2        2 GROUP        1 Z    SEL  0     **** SEL Z 16
    13 LYL4        5 GROUP        1 Z    LYL  0     **** LYL Z 18
    14 ZIL7        8 GROUP        1 Z    ZIL  0     **** ZIL Z 19
    15 GLL5       44 GROUP        1 Z    GLL  0     **** GLL Z 20
@<TRIPOS>SET

