#    Name: 1z2c_GNP_1_ligand
#    Modification time : Mon Apr  7 16:21:14 2014

@<TRIPOS>MOLECULE
1z2c_GNP_1_ligand
   44    46     1     0     0
SMALL
NO_CHARGES


@<TRIPOS>ATOM
      1 PG         26.5500   79.7610   91.4390 P.3       1 GNP195      0.0000 
      2 O1G        27.7620   80.3320   92.1510 O.co2     1 GNP195      0.0000 
      3 O2G        26.7200   79.2590   90.0170 O.co2     1 GNP195      0.0000 
      4 O3G        25.5380   80.8650   91.6270 O.co2     1 GNP195      0.0000 
      5 N3B        26.0150   78.4620   92.2390 N.4       1 GNP195      0.0000 
      6 PB         24.7810   77.5190   91.8150 P.3       1 GNP195      0.0000 
      7 O1B        23.5470   78.3160   91.7250 O.co2     1 GNP195      0.0000 
      8 O2B        25.1950   76.8550   90.5600 O.co2     1 GNP195      0.0000 
      9 O3A        24.4600   76.4990   92.9290 O.3       1 GNP195      0.0000 
     10 PA         25.2130   75.1730   93.1900 P.3       1 GNP195      0.0000 
     11 O1A        24.5080   74.0490   92.5190 O.co2     1 GNP195      0.0000 
     12 O2A        26.6560   75.3620   92.8400 O.co2     1 GNP195      0.0000 
     13 O5'        25.1640   74.8100   94.7340 O.3       1 GNP195      0.0000 
     14 C5'        24.1830   75.2990   95.6210 C.3       1 GNP195      0.0000 
     15 C4'        24.4910   74.9180   97.0680 C.3       1 GNP195      0.0000 
     16 O4'        23.2950   74.3760   97.6780 O.3       1 GNP195      0.0000 
     17 C3'        25.5480   73.8420   97.3310 C.3       1 GNP195      0.0000 
     18 O3'        26.0750   73.8830   98.6670 O.3       1 GNP195      0.0000 
     19 C2'        24.7380   72.5680   97.1340 C.3       1 GNP195      0.0000 
     20 O2'        25.2940   71.4260   97.7730 O.3       1 GNP195      0.0000 
     21 C1'        23.3760   72.9610   97.7090 C.3       1 GNP195      0.0000 
     22 N9         22.2960   72.3670   96.9150 N.pl3     1 GNP195      0.0000 
     23 C8         22.2680   72.2650   95.5380 C.2       1 GNP195      0.0000 
     24 N7         21.2000   71.6730   95.0860 N.2       1 GNP195      0.0000 
     25 C5         20.4670   71.3670   96.2320 C.2       1 GNP195      0.0000 
     26 C6         19.2050   70.7250   96.3560 C.2       1 GNP195      0.0000 
     27 O6         18.4740   70.2840   95.4450 O.2       1 GNP195      0.0000 
     28 N1         18.8110   70.6210   97.6920 N.am      1 GNP195      0.0000 
     29 C2         19.5450   71.0640   98.7670 C.2       1 GNP195      0.0000 
     30 N2         18.9920   70.8540   99.9740 N.pl3     1 GNP195      0.0000 
     31 N3         20.7250   71.6630   98.6590 N.2       1 GNP195      0.0000 
     32 C4         21.1240   71.7830   97.3710 C.2       1 GNP195      0.0000 
     33 H          23.1770   74.9036   95.3844 H         1 GNP195      0.0000 
     34 H          24.1024   76.4018   95.5819 H         1 GNP195      0.0000 
     35 H          24.7758   75.8100   97.6257 H         1 GNP195      0.0000 
     36 H          26.2748   73.8892   96.5716 H         1 GNP195      0.0000 
     37 H          24.5986   72.4415   96.0704 H         1 GNP195      0.0000 
     38 H          23.3373   72.5946   98.7228 H         1 GNP195      0.0000 
     39 H          23.0164   72.6244   94.9786 H         1 GNP195      0.0000 
     40 H          17.8690   70.1624   97.8837 H         1 GNP195      0.0000 
     41 H          18.4117   70.0439  100.0572 H         1 GNP195      0.0000 
     42 H          19.2102   71.5267  100.6811 H         1 GNP195      0.0000 
     43 H          26.1275   72.9264   98.9538 H         1 GNP195      0.0000 
     44 H          25.8971   71.0151   97.0894 H         1 GNP195      0.0000 
@<TRIPOS>BOND
     1    2    1 ar   
     2    3    1 ar   
     3    4    1 ar   
     4    5    1 1    
     5    6    5 1    
     6    7    6 ar   
     7    8    6 ar   
     8    9    6 1    
     9   10    9 1    
    10   11   10 ar   
    11   12   10 ar   
    12   13   10 1    
    13   14   13 1    
    14   15   14 1    
    15   33   14 1    
    16   34   14 1    
    17   16   15 1    
    18   17   15 1    
    19   35   15 1    
    20   21   16 1    
    21   18   17 1    
    22   19   17 1    
    23   36   17 1    
    24   43   18 1    
    25   20   19 1    
    26   21   19 1    
    27   37   19 1    
    28   44   20 1    
    29   22   21 1    
    30   38   21 1    
    31   23   22 1    
    32   32   22 1    
    33   24   23 2    
    34   39   23 1    
    35   25   24 1    
    36   26   25 1    
    37   32   25 2    
    38   27   26 2    
    39   28   26 am   
    40   29   28 1    
    41   40   28 1    
    42   30   29 1    
    43   31   29 2    
    44   41   30 1    
    45   42   30 1    
    46   32   31 1    
@<TRIPOS>SUBSTRUCTURE
     1 GNP195      1 GROUP   
@<TRIPOS>SET

