#    Name: 1ae1_NAP_2_INTS_M
#    Modification time : Mon Mar 24 18:17:31 2014

@<TRIPOS>MOLECULE
1ae1_NAP_2_INTS_M
  108     0    12     0     0
SMALL
NO_CHARGES


@<TRIPOS>ATOM
      1 N          21.4745  102.3375   13.6315 N.am      2 SEC2        0.0000 
      2 N          20.6210  101.1680   14.4140 N.am     10 SEL2        0.0000 
      3 N          22.3280  103.5070   12.8490 N.am      6 SEP2        0.0000 
      4 CA         20.7605   99.2015   12.2520 C.3       4 GLC5        0.0000 
      5 CA         22.3330   99.0860   13.2650 C.3      12 GLL5        0.0000 
      6 CA         19.1880   99.3170   11.2390 C.3       8 GLP5        0.0000 
      7 O          22.6255   98.1955   10.7810 O.2       1 ALC1        0.0000 
      8 O          22.9130   98.9320   11.9590 O.2       9 ALL1        0.0000 
      9 O          22.3380   97.4590    9.6030 O.2       5 ALP1        0.0000 
     10 CA         20.9215   97.4630   13.1135 C.3       4 GLC5        0.0000 
     11 CA         22.8690   97.9500   14.1130 C.3      12 GLL5        0.0000 
     12 CA         18.9740   96.9760   12.1140 C.3       8 GLP5        0.0000 
     13 CA         25.2125   99.4145   13.2730 C.3       4 GLC5        0.0000 
     14 CA         24.2450   98.5080   14.4070 C.3      12 GLL5        0.0000 
     15 CA         26.1800  100.3210   12.1390 C.3       8 GLP5        0.0000 
     16 CA         25.7895   99.5655   15.1730 C.3       4 GLC5        0.0000 
     17 CA         27.3340  100.6230   15.9390 C.3       8 GLP5        0.0000 
     18 CA         28.3805   93.9205   16.4185 C.3       4 GLC5        0.0000 
     19 CA         27.1380   95.6070   17.0060 C.3      12 GLL5        0.0000 
     20 CA         29.6230   92.2340   15.8310 C.3       8 GLP5        0.0000 
     21 CA         29.0680   96.0925   17.1505 C.3       4 GLC5        0.0000 
     22 CA         30.9980   96.5780   17.2950 C.3       8 GLP5        0.0000 
     23 O          27.7020   93.7135   18.2110 O.2       1 ALC1        0.0000 
     24 O          27.3200   95.1470   18.2480 O.2       9 ALL1        0.0000 
     25 O          28.0840   92.2800   18.1740 O.2       5 ALP1        0.0000 
     26 N          29.1680   94.7445   16.4640 N.am      2 SEC2        0.0000 
     27 N          27.9530   95.2580   15.9700 N.am     10 SEL2        0.0000 
     28 N          30.3830   94.2310   16.9580 N.am      6 SEP2        0.0000 
     29 CA         27.0440   95.6265   12.8255 C.3       4 GLC5        0.0000 
     30 CA         27.7690   95.7280   14.7220 C.3      12 GLL5        0.0000 
     31 CA         26.3190   95.5250   10.9290 C.3       8 GLP5        0.0000 
     32 CA         26.9115   94.1740   14.7780 C.3       4 GLC5        0.0000 
     33 CA         26.0540   92.6200   14.8340 C.3       8 GLP5        0.0000 
     34 CA         28.6960   93.9810   15.2765 C.3       4 GLC5        0.0000 
     35 CA         28.9625   96.9590   15.1510 C.3       4 GLC5        0.0000 
     36 CA         30.1560   98.1900   15.5800 C.3       8 GLP5        0.0000 
     37 CA         25.9810   94.7895   15.1220 C.3       4 GLC5        0.0000 
     38 CA         25.9080   96.9590   15.4100 C.3      12 GLL5        0.0000 
     39 CA         28.0320   97.5745   15.4950 C.3       4 GLC5        0.0000 
     40 N          17.4390  104.9400   15.9730 N.am      2 SEC2        0.0000 
     41 N          18.7230  104.9890   16.2830 N.am     10 SEL2        0.0000 
     42 N          16.1550  104.8910   15.6630 N.am      6 SEP2        0.0000 
     43 N          20.1740  105.5010   13.1400 N.am      2 SEC2        0.0000 
     44 N          20.3340  104.7520   14.3750 N.am     10 SEL2        0.0000 
     45 N          20.0140  106.2500   11.9050 N.am      6 SEP2        0.0000 
     46 N          21.3310  104.1295   13.6120 N.am      2 SEC2        0.0000 
     47 CA         21.4010  106.8620   15.7560 C.3       4 GLC5        0.0000 
     48 CA         22.4930  105.0200   16.2880 C.3      12 GLL5        0.0000 
     49 CA         20.3090  108.7040   15.2240 C.3       8 GLP5        0.0000 
     50 CA         24.0145  107.6715   16.6525 C.3       4 GLC5        0.0000 
     51 CA         23.3400  105.9000   17.1930 C.3      12 GLL5        0.0000 
     52 CA         24.6890  109.4430   16.1120 C.3       8 GLP5        0.0000 
     53 CA         24.2660  103.4850   19.1250 C.3       4 GLC5        0.0000 
     54 CA         23.5930  105.2990   18.5560 C.3      12 GLL5        0.0000 
     55 CA         24.9390  101.6710   19.6940 C.3       8 GLP5        0.0000 
     56 N          25.2250  106.2365   20.5115 N.am      2 SEC2        0.0000 
     57 N          24.8420  105.7060   19.1310 N.am     10 SEL2        0.0000 
     58 N          25.6080  106.7670   21.8920 N.am      6 SEP2        0.0000 
     59 O          25.3930  105.1320   17.9545 O.2       1 ALC1        0.0000 
     60 O          24.8420  105.7060   19.1310 O.2       9 ALL1        0.0000 
     61 O          25.9440  104.5580   16.7780 O.2       5 ALP1        0.0000 
     62 N          24.2385  106.3085   21.3345 N.am      2 SEC2        0.0000 
     63 N          22.8690  105.8500   20.7770 N.am     10 SEL2        0.0000 
     64 O          22.0250  106.1865   21.7065 O.2       1 ALC1        0.0000 
     65 O          22.8690  105.8500   20.7770 O.2       9 ALL1        0.0000 
     66 O          21.1810  106.5230   22.6360 O.2       5 ALP1        0.0000 
     67 CA         21.3795  107.9990   17.0440 C.3       4 GLC5        0.0000 
     68 CA         22.4500  107.2940   18.8640 C.3      12 GLL5        0.0000 
     69 CA         23.5695  108.3685   17.4880 C.3       4 GLC5        0.0000 
     70 N          15.7860  109.7385   18.0630 N.am      2 SEC2        0.0000 
     71 N          16.3610  108.6520   18.7520 N.am     10 SEL2        0.0000 
     72 N          15.2110  110.8250   17.3740 N.am      6 SEP2        0.0000 
     73 O          15.9410  107.6015   16.9775 O.2       1 ALC1        0.0000 
     74 O          17.1690  107.0250   17.5150 O.2       9 ALL1        0.0000 
     75 O          14.7130  108.1780   16.4400 O.2       5 ALP1        0.0000 
     76 CA         21.9670  110.6945   19.3845 C.3       4 GLC5        0.0000 
     77 CA         21.2670  109.0850   19.9910 C.3      12 GLL5        0.0000 
     78 CA         22.6670  112.3040   18.7780 C.3       8 GLP5        0.0000 
     79 N          23.7820   94.0015   12.1530 N.am      2 SEC2        0.0000 
     80 N          22.2230   94.4910   12.3850 N.am     10 SEL2        0.0000 
     81 N          25.3410   93.5120   11.9210 N.am      6 SEP2        0.0000 
     82 NZ         19.5810   96.1755   13.7410 N.4       3 LYC4        0.0000 
     83 NZ         20.7980   95.6680   14.0310 N.4      11 LYL4        0.0000 
     84 NZ         18.3640   96.6830   13.4510 N.4       7 LYP4        0.0000 
     85 N          19.5810   96.1755   13.7410 N.am      2 SEC2        0.0000 
     86 N          20.7980   95.6680   14.0310 N.am     10 SEL2        0.0000 
     87 N          18.3640   96.6830   13.4510 N.am      6 SEP2        0.0000 
     88 NZ         22.7705   94.4755   16.0975 N.4       3 LYC4        0.0000 
     89 NZ         23.0280   94.7270   14.7070 N.4      11 LYL4        0.0000 
     90 NZ         23.6090   93.4760   17.5020 N.4       7 LYP4        0.0000 
     91 N          23.7395   94.1235   15.5895 N.am      2 SEC2        0.0000 
     92 N          23.0280   94.7270   14.7070 N.am     10 SEL2        0.0000 
     93 N          24.4510   93.5200   16.4720 N.am      6 SEP2        0.0000 
     94 N          22.7705   94.4755   16.0975 N.am      2 SEC2        0.0000 
     95 N          22.5130   94.2240   17.4880 N.am      6 SEP2        0.0000 
     96 CA         24.3753  100.0108   12.8887 C.3       4 GLC5        0.0000 
     97 CA         26.0973   94.3290   16.5615 C.3       4 GLC5        0.0000 
     98 CA         26.1010   96.4850   16.6900 C.3      12 GLL5        0.0000 
     99 CA         25.5750   92.6120   16.2750 C.3       8 GLP5        0.0000 
    100 CA         26.6693   98.6725   15.9945 C.3       4 GLC5        0.0000 
    101 CA         19.8215  108.3277   16.9772 C.3       4 GLC5        0.0000 
    102 CA         19.9130  107.5890   18.5700 C.3      12 GLL5        0.0000 
    103 CA         19.9958  111.0517   18.9333 C.3       4 GLC5        0.0000 
    104 CA         18.8900  109.4040   19.7530 C.3      12 GLL5        0.0000 
    105 CA         20.4910  112.5040   17.8400 C.3       8 GLP5        0.0000 
    106 CA         21.3615  109.9290   21.8422 C.3       4 GLC5        0.0000 
    107 CA         20.1110  109.7950   20.3000 C.3      12 GLL5        0.0000 
    108 CA         22.0340  110.4180   23.5390 C.3       8 GLP5        0.0000 
@<TRIPOS>BOND
@<TRIPOS>SUBSTRUCTURE
     1 ALC1        7 GROUP        1 X    ALC  0     ROOT ALC X 1
     2 SEC2        1 GROUP        1 X    SEC  0     **** SEC X 2
     3 LYC4       82 GROUP        1 X    LYC  0     **** LYC X 4
     4 GLC5        4 GROUP        1 X    GLC  0     **** GLC X 6
     5 ALP1        9 GROUP        1 Y    ALP  0     ROOT ALP Y 8
     6 SEP2        3 GROUP        1 Y    SEP  0     **** SEP Y 9
     7 LYP4       84 GROUP        1 Y    LYP  0     **** LYP Y 11
     8 GLP5        6 GROUP        1 Y    GLP  0     **** GLP Y 13
     9 ALL1        8 GROUP        1 Z    ALL  0     ROOT ALL Z 15
    10 SEL2        2 GROUP        1 Z    SEL  0     **** SEL Z 16
    11 LYL4       83 GROUP        1 Z    LYL  0     **** LYL Z 18
    12 GLL5        5 GROUP        1 Z    GLL  0     **** GLL Z 20
@<TRIPOS>SET

