#    Name: 1ae1_NAP_2_ligand
#    Modification time : Mon Mar 24 18:17:31 2014

@<TRIPOS>MOLECULE
1ae1_NAP_2_ligand
   73    77     1     0     0
SMALL
NO_CHARGES


@<TRIPOS>ATOM
      1 PA         19.3580  101.6410   15.2360 P.3       1 NAP274      0.0000 
      2 O1A        18.9700  100.6600   16.2540 O.co2     1 NAP274      0.0000 
      3 O2A        18.3260  102.1490   14.3460 O.co2     1 NAP274      0.0000 
      4 O5B        20.6210  101.1680   14.4140 O.3       1 NAP274      0.0000 
      5 C5B        21.8390  100.7730   15.0830 C.3       1 NAP274      0.0000 
      6 C4B        22.8080  100.3150   14.0120 C.3       1 NAP274      0.0000 
      7 O4B        24.0320   99.9030   14.6660 O.3       1 NAP274      0.0000 
      8 C3B        22.3330   99.0860   13.2650 C.3       1 NAP274      0.0000 
      9 O3B        22.9130   98.9320   11.9590 O.3       1 NAP274      0.0000 
     10 C2B        22.8690   97.9500   14.1130 C.3       1 NAP274      0.0000 
     11 O2B        22.9220   96.7530   13.2900 O.3       1 NAP274      0.0000 
     12 C1B        24.2450   98.5080   14.4070 C.3       1 NAP274      0.0000 
     13 N9A        24.8490   97.7450   15.5200 N.pl3     1 NAP274      0.0000 
     14 C8A        24.4240   97.7280   16.8030 C.2       1 NAP274      0.0000 
     15 N7A        25.2010   96.9470   17.5490 N.2       1 NAP274      0.0000 
     16 C5A        26.1010   96.4850   16.6900 C.ar      1 NAP274      0.0000 
     17 C6A        27.1380   95.6070   17.0060 C.ar      1 NAP274      0.0000 
     18 N6A        27.3200   95.1470   18.2480 N.pl3     1 NAP274      0.0000 
     19 N1A        27.9530   95.2580   15.9700 N.ar      1 NAP274      0.0000 
     20 C2A        27.7690   95.7280   14.7220 C.ar      1 NAP274      0.0000 
     21 N3A        26.7660   96.5670   14.4420 N.ar      1 NAP274      0.0000 
     22 C4A        25.9080   96.9590   15.4100 C.ar      1 NAP274      0.0000 
     23 O3         19.9870  102.8970   16.0000 O.3       1 NAP274      0.0000 
     24 PN         19.9820  104.4810   15.7760 P.3       1 NAP274      0.0000 
     25 O1N        18.7230  104.9890   16.2830 O.co2     1 NAP274      0.0000 
     26 O2N        20.3340  104.7520   14.3750 O.co2     1 NAP274      0.0000 
     27 O5D        21.1490  104.9880   16.7280 O.3       1 NAP274      0.0000 
     28 C5D        22.4930  105.0200   16.2880 C.3       1 NAP274      0.0000 
     29 C4D        23.3400  105.9000   17.1930 C.3       1 NAP274      0.0000 
     30 O4D        22.5980  107.1180   17.4500 O.3       1 NAP274      0.0000 
     31 C3D        23.5930  105.2990   18.5560 C.3       1 NAP274      0.0000 
     32 O3D        24.8420  105.7060   19.1310 O.3       1 NAP274      0.0000 
     33 C2D        22.4600  105.8740   19.4110 C.3       1 NAP274      0.0000 
     34 O2D        22.8690  105.8500   20.7770 O.3       1 NAP274      0.0000 
     35 C1D        22.4500  107.2940   18.8640 C.3       1 NAP274      0.0000 
     36 N1N        21.1720  107.9880   19.1300 N.pl3     1 NAP274      0.0000 
     37 C2N        19.9130  107.5890   18.5700 C.ar      1 NAP274      0.0000 
     38 C3N        18.7550  108.3140   18.8910 C.ar      1 NAP274      0.0000 
     39 C7N        17.3420  108.0130   18.3790 C.2       1 NAP274      0.0000 
     40 O7N        16.3610  108.6520   18.7520 O.2       1 NAP274      0.0000 
     41 N7N        17.1690  107.0250   17.5150 N.am      1 NAP274      0.0000 
     42 C4N        18.8900  109.4040   19.7530 C.ar      1 NAP274      0.0000 
     43 C5N        20.1110  109.7950   20.3000 C.ar      1 NAP274      0.0000 
     44 C6N        21.2670  109.0850   19.9910 C.ar      1 NAP274      0.0000 
     45 P2B        22.1960   95.3830   13.7020 P.3       1 NAP274      0.0000 
     46 O1X        22.2230   94.4910   12.3850 O.co2     1 NAP274      0.0000 
     47 O2X        20.7980   95.6680   14.0310 O.co2     1 NAP274      0.0000 
     48 O3X        23.0280   94.7270   14.7070 O.co2     1 NAP274      0.0000 
     49 H          21.6664   99.9498   15.7678 H         1 NAP274      0.0000 
     50 H          22.2843  101.6039   15.6195 H         1 NAP274      0.0000 
     51 H          23.0007  101.0982   13.3256 H         1 NAP274      0.0000 
     52 H          21.2860   99.0373   13.2775 H         1 NAP274      0.0000 
     53 H          22.3173   97.8769   14.9740 H         1 NAP274      0.0000 
     54 H          24.8295   98.3755   13.5021 H         1 NAP274      0.0000 
     55 H          23.6429   98.2303   17.1299 H         1 NAP274      0.0000 
     56 H          27.6722   94.2142   18.3245 H         1 NAP274      0.0000 
     57 H          27.0876   95.7770   18.9891 H         1 NAP274      0.0000 
     58 H          28.4265   95.4283   13.9579 H         1 NAP274      0.0000 
     59 H          22.5796  105.4160   15.2616 H         1 NAP274      0.0000 
     60 H          22.9467  104.0141   16.2812 H         1 NAP274      0.0000 
     61 H          24.2653  106.1269   16.7233 H         1 NAP274      0.0000 
     62 H          23.4632  104.2528   18.5124 H         1 NAP274      0.0000 
     63 H          21.5870  105.3976   19.1787 H         1 NAP274      0.0000 
     64 H          23.2741  107.8217   19.2668 H         1 NAP274      0.0000 
     65 H          19.8747  106.7876   17.9487 H         1 NAP274      0.0000 
     66 H          17.9875  106.5043   17.2723 H         1 NAP274      0.0000 
     67 H          16.2355  106.8889   17.1833 H         1 NAP274      0.0000 
     68 H          18.0318  109.9538   20.0000 H         1 NAP274      0.0000 
     69 H          20.1561  110.6048   20.9291 H         1 NAP274      0.0000 
     70 H          22.1664  109.3570   20.3831 H         1 NAP274      0.0000 
     71 H          22.2942   98.3155   11.4722 H         1 NAP274      0.0000 
     72 H          25.4443  105.8722   18.3502 H         1 NAP274      0.0000 
     73 H          22.0626  106.1378   21.2936 H         1 NAP274      0.0000 
@<TRIPOS>BOND
     1    2    1 ar   
     2    3    1 ar   
     3    4    1 1    
     4   23    1 1    
     5    5    4 1    
     6    6    5 1    
     7   49    5 1    
     8   50    5 1    
     9    7    6 1    
    10    8    6 1    
    11   51    6 1    
    12   12    7 1    
    13    9    8 1    
    14   10    8 1    
    15   52    8 1    
    16   71    9 1    
    17   11   10 1    
    18   12   10 1    
    19   53   10 1    
    20   45   11 1    
    21   13   12 1    
    22   54   12 1    
    23   14   13 1    
    24   22   13 1    
    25   15   14 2    
    26   55   14 1    
    27   16   15 1    
    28   17   16 ar   
    29   22   16 ar   
    30   18   17 1    
    31   19   17 ar   
    32   56   18 1    
    33   57   18 1    
    34   20   19 ar   
    35   21   20 ar   
    36   58   20 1    
    37   22   21 ar   
    38   24   23 1    
    39   25   24 ar   
    40   26   24 ar   
    41   27   24 1    
    42   28   27 1    
    43   29   28 1    
    44   59   28 1    
    45   60   28 1    
    46   30   29 1    
    47   31   29 1    
    48   61   29 1    
    49   35   30 1    
    50   32   31 1    
    51   33   31 1    
    52   62   31 1    
    53   72   32 1    
    54   34   33 1    
    55   35   33 1    
    56   63   33 1    
    57   73   34 1    
    58   36   35 1    
    59   64   35 1    
    60   37   36 ar   
    61   44   36 ar   
    62   38   37 ar   
    63   65   37 1    
    64   39   38 1    
    65   42   38 ar   
    66   40   39 2    
    67   41   39 am   
    68   66   41 1    
    69   67   41 1    
    70   43   42 ar   
    71   68   42 1    
    72   44   43 ar   
    73   69   43 1    
    74   70   44 1    
    75   46   45 ar   
    76   47   45 ar   
    77   48   45 ar   
@<TRIPOS>SUBSTRUCTURE
     1 NAP274      1 GROUP   
@<TRIPOS>SET

