#    Name: 3ukr_CKH_1_INTS_M
#    Modification time : Mon Mar 24 22:53:30 2014

@<TRIPOS>MOLECULE
3ukr_CKH_1_INTS_M
   61     0     9     0     0
SMALL
NO_CHARGES


@<TRIPOS>ATOM
      1 CA          4.1235   14.8040   39.5295 C.3       3 GLC5        0.0000 
      2 CA          2.3450   14.7090   38.6440 C.3       9 GLL5        0.0000 
      3 CA          5.9020   14.8990   40.4150 C.3       6 GLP5        0.0000 
      4 O           0.7270   12.7635   36.9355 O.2       1 ALC1        0.0000 
      5 O           0.5770   13.9750   36.9820 O.2       7 ALL1        0.0000 
      6 O           0.8770   11.5520   36.8890 O.2       4 ALP1        0.0000 
      7 CA          2.8650   17.6940   37.1380 C.3       3 GLC5        0.0000 
      8 CA          0.8950   17.5120   38.0720 C.3       9 GLL5        0.0000 
      9 CA          4.8350   17.8760   36.2040 C.3       6 GLP5        0.0000 
     10 CA          1.2255   19.6910   39.4820 C.3       3 GLC5        0.0000 
     11 CA          0.1010   17.8350   39.3400 C.3       9 GLL5        0.0000 
     12 CA          2.3500   21.5470   39.6240 C.3       6 GLP5        0.0000 
     13 CA         -1.6380   18.3940   38.7795 C.3       3 GLC5        0.0000 
     14 CA         -3.3770   18.9530   38.2190 C.3       6 GLP5        0.0000 
     15 CA         -1.1665   16.1760   39.3720 C.3       3 GLC5        0.0000 
     16 CA         -2.4340   14.5170   39.4040 C.3       6 GLP5        0.0000 
     17 N           1.8600   19.7280   41.1060 N.am      2 SEC2        0.0000 
     18 N           1.9490   18.3870   41.3270 N.am      8 SEL2        0.0000 
     19 N           1.7710   21.0690   40.8850 N.am      5 SEP2        0.0000 
     20 CA          3.5970   16.0530   46.1195 C.3       3 GLC5        0.0000 
     21 CA          3.1860   15.5860   44.2290 C.3       9 GLL5        0.0000 
     22 CA          4.0080   16.5200   48.0100 C.3       6 GLP5        0.0000 
     23 CA          2.8135   14.2995   46.2440 C.3       3 GLC5        0.0000 
     24 CA          2.4320   14.4330   44.4160 C.3       9 GLL5        0.0000 
     25 CA          3.1950   14.1660   48.0720 C.3       6 GLP5        0.0000 
     26 CA         -1.2660   14.6735   40.6245 C.3       3 GLC5        0.0000 
     27 CA         -0.0980   14.8300   41.8450 C.3       9 GLL5        0.0000 
     28 CA         -0.1155   13.0185   41.4535 C.3       3 GLC5        0.0000 
     29 CA         -0.1330   11.2070   41.0620 C.3       6 GLP5        0.0000 
     30 CA          2.0108   13.2830   39.3478 C.3       3 GLC5        0.0000 
     31 CA          1.1600   14.9290   37.7010 C.3       9 GLL5        0.0000 
     32 CA          2.2690   11.7470   40.5230 C.3       6 GLP5        0.0000 
     33 CA          1.6185   15.7713   35.7815 C.3       3 GLC5        0.0000 
     34 CA          2.4000   16.0070   33.9610 C.3       6 GLP5        0.0000 
     35 CA          0.1062   15.4032   34.6048 C.3       3 GLC5        0.0000 
     36 CA         -0.4480   14.5090   36.3170 C.3       9 GLL5        0.0000 
     37 CA          1.1300   16.5790   33.3210 C.3       6 GLP5        0.0000 
     38 CA         -2.8490   13.5535   36.7350 C.3       3 GLC5        0.0000 
     39 CA         -1.3870   13.9460   35.4600 C.3       9 GLL5        0.0000 
     40 CA         -3.8070   12.7680   38.2840 C.3       6 GLP5        0.0000 
     41 CA         -0.6505   15.9938   34.1928 C.3       3 GLC5        0.0000 
     42 CA         -2.3950   14.7320   34.9120 C.3       9 GLL5        0.0000 
     43 CA         -4.3415   15.8652   35.2398 C.3       3 GLC5        0.0000 
     44 CA         -2.4670   16.0850   35.2170 C.3       9 GLL5        0.0000 
     45 CA         -6.2520   16.3220   35.4150 C.3       6 GLP5        0.0000 
     46 CA         -2.4950   18.1550   34.6188 C.3       3 GLC5        0.0000 
     47 CA         -2.9930   19.9410   33.5930 C.3       6 GLP5        0.0000 
     48 CA         -2.2155   15.4430   37.5243 C.3       3 GLC5        0.0000 
     49 CA         -3.2595   13.7015   34.5862 C.3       3 GLC5        0.0000 
     50 CA         -4.3400   12.1910   33.9710 C.3       6 GLP5        0.0000 
     51 CA          0.0527   16.4190   34.8332 C.3       3 GLC5        0.0000 
     52 CA         -1.5270   16.6530   36.0720 C.3       9 GLL5        0.0000 
     53 CA          4.8342   16.1265   43.1437 C.3       3 GLC5        0.0000 
     54 CA          2.8370   16.4880   43.2280 C.3       9 GLL5        0.0000 
     55 CA          6.6570   16.2160   42.5590 C.3       6 GLP5        0.0000 
     56 CA          1.7143   13.1955   41.8123 C.3       3 GLC5        0.0000 
     57 CA          0.9860   15.0950   42.6030 C.3       9 GLL5        0.0000 
     58 CA         -1.3475   15.4162   42.6540 C.3       3 GLC5        0.0000 
     59 CA         -3.1390   15.8700   43.0840 C.3       6 GLP5        0.0000 
     60 CA         -1.1290   14.9391   38.2195 C.3       3 GLC5        0.0000 
     61 CA          0.5140   16.1420   37.5030 C.3       9 GLL5        0.0000 
@<TRIPOS>BOND
@<TRIPOS>SUBSTRUCTURE
     1 ALC1        4 GROUP        1 X    ALC  0     ROOT ALC X 1
     2 SEC2       17 GROUP        1 X    SEC  0     **** SEC X 2
     3 GLC5        1 GROUP        1 X    GLC  0     **** GLC X 6
     4 ALP1        6 GROUP        1 Y    ALP  0     ROOT ALP Y 8
     5 SEP2       19 GROUP        1 Y    SEP  0     **** SEP Y 9
     6 GLP5        3 GROUP        1 Y    GLP  0     **** GLP Y 13
     7 ALL1        5 GROUP        1 Z    ALL  0     ROOT ALL Z 15
     8 SEL2       18 GROUP        1 Z    SEL  0     **** SEL Z 16
     9 GLL5        2 GROUP        1 Z    GLL  0     **** GLL Z 20
@<TRIPOS>SET

