#    Name: 3ukr_CKH_1_ligand
#    Modification time : Mon Mar 24 22:53:30 2014

@<TRIPOS>MOLECULE
3ukr_CKH_1_ligand
   39    41     1     0     0
SMALL
NO_CHARGES


@<TRIPOS>ATOM
      1 CAQ         2.3450   14.7090   38.6440 C.3       1 CKH401      0.0000 
      2 CAP         1.1600   14.9290   37.7010 C.2       1 CKH401      0.0000 
      3 NAO         0.5770   13.9750   36.9820 N.pl3     1 CKH401      0.0000 
      4 CAN        -0.4480   14.5090   36.3170 C.ar      1 CKH401      0.0000 
      5 CAM        -1.3870   13.9460   35.4600 C.ar      1 CKH401      0.0000 
      6 CAL        -2.3950   14.7320   34.9120 C.ar      1 CKH401      0.0000 
      7 CAA        -2.4670   16.0850   35.2170 C.ar      1 CKH401      0.0000 
      8 CAB        -1.5270   16.6530   36.0720 C.ar      1 CKH401      0.0000 
      9 CAC        -0.5220   15.8650   36.6190 C.ar      1 CKH401      0.0000 
     10 CAD         0.5140   16.1420   37.5030 C.2       1 CKH401      0.0000 
     11 CAE         0.8950   17.5120   38.0720 C.3       1 CKH401      0.0000 
     12 CAF         0.1010   17.8350   39.3400 C.3       1 CKH401      0.0000 
     13 NAG         0.4990   16.9240   40.4230 N.am      1 CKH401      0.0000 
     14 CAH         1.4030   17.2820   41.3290 C.2       1 CKH401      0.0000 
     15 OAR         1.9490   18.3870   41.3270 O.2       1 CKH401      0.0000 
     16 CAI         1.7400   16.2520   42.4110 C.ar      1 CKH401      0.0000 
     17 CAJ         2.8370   16.4880   43.2280 C.ar      1 CKH401      0.0000 
     18 CAK         3.1860   15.5860   44.2290 C.ar      1 CKH401      0.0000 
     19 CAU         2.4320   14.4330   44.4160 C.ar      1 CKH401      0.0000 
     20 CAT         1.3330   14.1930   43.6000 C.ar      1 CKH401      0.0000 
     21 CAS         0.9860   15.0950   42.6030 C.ar      1 CKH401      0.0000 
     22 FAV        -0.0980   14.8300   41.8450 F         1 CKH401      0.0000 
     23 H           0.8510   13.0410   36.9454 H         1 CKH401      0.0000 
     24 H          -1.3361   12.9434   35.2301 H         1 CKH401      0.0000 
     25 H          -3.0884   14.3095   34.2794 H         1 CKH401      0.0000 
     26 H          -3.2115   16.6662   34.8133 H         1 CKH401      0.0000 
     27 H          -1.5773   17.6544   36.2978 H         1 CKH401      0.0000 
     28 H           0.6984   18.2787   37.3208 H         1 CKH401      0.0000 
     29 H           1.9610   17.5188   38.3050 H         1 CKH401      0.0000 
     30 H          -0.9615   17.7300   39.1163 H         1 CKH401      0.0000 
     31 H           0.2983   18.8723   39.6142 H         1 CKH401      0.0000 
     32 H           0.0310   15.9994   40.4272 H         1 CKH401      0.0000 
     33 H           3.4023   17.3429   43.0929 H         1 CKH401      0.0000 
     34 H           3.9993   15.7725   44.8281 H         1 CKH401      0.0000 
     35 H           2.6852   13.7645   45.1510 H         1 CKH401      0.0000 
     36 H           0.7711   13.3382   43.7364 H         1 CKH401      0.0000 
     37 H           3.1422   14.3474   38.1606 H         1 CKH401      0.0000 
     38 H           2.6309   15.5593   39.0858 H         1 CKH401      0.0000 
     39 H           2.1246   14.0601   39.3722 H         1 CKH401      0.0000 
@<TRIPOS>BOND
     1    2    1 1    
     2   37    1 1    
     3   38    1 1    
     4   39    1 1    
     5    3    2 1    
     6   10    2 2    
     7    4    3 1    
     8   23    3 1    
     9    5    4 ar   
    10    9    4 ar   
    11    6    5 ar   
    12   24    5 1    
    13    7    6 ar   
    14   25    6 1    
    15    8    7 ar   
    16   26    7 1    
    17    9    8 ar   
    18   27    8 1    
    19   10    9 1    
    20   11   10 1    
    21   12   11 1    
    22   28   11 1    
    23   29   11 1    
    24   13   12 1    
    25   30   12 1    
    26   31   12 1    
    27   14   13 am   
    28   32   13 1    
    29   15   14 2    
    30   16   14 1    
    31   17   16 ar   
    32   21   16 ar   
    33   18   17 ar   
    34   33   17 1    
    35   19   18 ar   
    36   34   18 1    
    37   20   19 ar   
    38   35   19 1    
    39   21   20 ar   
    40   36   20 1    
    41   22   21 1    
@<TRIPOS>SUBSTRUCTURE
     1 CKH401      1 GROUP   
@<TRIPOS>SET

