#    Name: 4agw_NG7_1_INTS_M
#    Modification time : Tue Mar 25 05:35:09 2014

@<TRIPOS>MOLECULE
4agw_NG7_1_INTS_M
  117     0     6     0     0
SMALL
NO_CHARGES


@<TRIPOS>ATOM
      1 CA          2.8220   -1.1120   -2.1515 C.3       2 GLC5        0.0000 
      2 CA          1.4900    0.6440   -1.7950 C.3       6 GLL5        0.0000 
      3 CA          4.1540   -2.8680   -2.5080 C.3       4 GLP5        0.0000 
      4 CA          0.6435    1.2855   -3.1605 C.3       2 GLC5        0.0000 
      5 CA         -0.2030    1.9270   -4.5260 C.3       4 GLP5        0.0000 
      6 CA          2.9885    2.2935   -2.1025 C.3       2 GLC5        0.0000 
      7 CA          4.4870    3.9430   -2.4100 C.3       4 GLP5        0.0000 
      8 N           3.3625    5.0145   -0.4765 N.am      1 SEC2        0.0000 
      9 N           4.0070    4.5760    0.7680 N.am      5 SEL2        0.0000 
     10 N           2.7180    5.4530   -1.7210 N.am      3 SEP2        0.0000 
     11 CA         11.2485   11.8180    0.5605 C.3       2 GLC5        0.0000 
     12 CA         10.6290   10.4750   -0.4600 C.3       6 GLL5        0.0000 
     13 CA         11.8680   13.1610    1.5810 C.3       4 GLP5        0.0000 
     14 CA          9.5325   11.7020    0.9150 C.3       2 GLC5        0.0000 
     15 CA          8.4360   12.9290    2.2900 C.3       4 GLP5        0.0000 
     16 CA         10.1445    9.2190   -1.9795 C.3       2 GLC5        0.0000 
     17 CA          9.6600    7.9630   -3.4990 C.3       4 GLP5        0.0000 
     18 CA         11.3670    5.6535   -0.3565 C.3       2 GLC5        0.0000 
     19 CA         10.4060    6.7630    0.6920 C.3       6 GLL5        0.0000 
     20 CA         12.3280    4.5440   -1.4050 C.3       4 GLP5        0.0000 
     21 CA          0.5105   -1.7605    0.9525 C.3       2 GLC5        0.0000 
     22 CA          1.4730   -0.7190   -0.1290 C.3       6 GLL5        0.0000 
     23 CA         -0.4520   -2.8020    2.0340 C.3       4 GLP5        0.0000 
     24 CA          1.0285   -2.2550   -1.5810 C.3       2 GLC5        0.0000 
     25 CA          0.5840   -3.7910   -3.0330 C.3       4 GLP5        0.0000 
     26 CA         11.9995    6.8070   -0.9425 C.3       2 GLC5        0.0000 
     27 CA         10.8430    7.9870    0.1560 C.3       6 GLL5        0.0000 
     28 CA         13.1560    5.6270   -2.0410 C.3       4 GLP5        0.0000 
     29 CA          3.6065    0.2630   -2.5930 C.3       2 GLC5        0.0000 
     30 CA          3.1320    0.5400   -0.4990 C.3       6 GLL5        0.0000 
     31 CA          4.0810   -0.0140   -4.6870 C.3       4 GLP5        0.0000 
     32 CA          3.8095    2.2415   -1.4545 C.3       2 GLC5        0.0000 
     33 N          13.0280    7.2975   -0.1690 N.am      1 SEC2        0.0000 
     34 N          12.1130    8.2720   -0.4860 N.am      5 SEL2        0.0000 
     35 N          13.9430    6.3230    0.1480 N.am      3 SEP2        0.0000 
     36 CA          8.3970    4.9655    1.5905 C.3       2 GLC5        0.0000 
     37 CA          9.1310    6.6430    1.2890 C.3       6 GLL5        0.0000 
     38 CA          7.6630    3.2880    1.8920 C.3       4 GLP5        0.0000 
     39 CA          8.8075    5.7165    3.1945 C.3       2 GLC5        0.0000 
     40 CA          8.4840    4.7900    5.1000 C.3       4 GLP5        0.0000 
     41 CA         15.1255   11.3105   -1.0820 C.3       2 GLC5        0.0000 
     42 CA         14.4830   12.1560   -2.8450 C.3       6 GLL5        0.0000 
     43 CA         15.7680   10.4650    0.6810 C.3       4 GLP5        0.0000 
     44 CA         15.5040   10.5415   -5.1030 C.3       2 GLC5        0.0000 
     45 CA         14.9170   12.2140   -4.3140 C.3       6 GLL5        0.0000 
     46 CA         16.0910    8.8690   -5.8920 C.3       4 GLP5        0.0000 
     47 CA          3.3305    8.7495    3.6060 C.3       2 GLC5        0.0000 
     48 CA          4.1740    7.2880    3.1960 C.3       6 GLL5        0.0000 
     49 CA          2.4870   10.2110    4.0160 C.3       4 GLP5        0.0000 
     50 CA          3.5580    5.4245    3.9085 C.3       2 GLC5        0.0000 
     51 CA          2.9420    3.5610    4.6210 C.3       4 GLP5        0.0000 
     52 CA          4.4900    4.6720    3.0635 C.3       2 GLC5        0.0000 
     53 CA          4.5080    6.4160    2.1690 C.3       6 GLL5        0.0000 
     54 CA          4.4720    2.9280    3.9580 C.3       4 GLP5        0.0000 
     55 CA          5.6860    5.7930   -0.3350 C.3       2 GLC5        0.0000 
     56 CA          5.8190    6.6000    1.6250 C.3       6 GLL5        0.0000 
     57 CA          5.5530    4.9860   -2.2950 C.3       4 GLP5        0.0000 
     58 CA          2.1360    3.6825    3.1000 C.3       2 GLC5        0.0000 
     59 CA          1.3300    3.8040    1.5790 C.3       6 GLL5        0.0000 
     60 CA          3.1765    3.3250   -0.7805 C.3       2 GLC5        0.0000 
     61 CA          1.8660    2.7070    0.8490 C.3       6 GLL5        0.0000 
     62 CA         -1.8060    0.1615    1.5995 C.3       2 GLC5        0.0000 
     63 CA         -1.2390    0.4450   -0.0420 C.3       6 GLL5        0.0000 
     64 CA         -2.3730   -0.1220    3.2410 C.3       4 GLP5        0.0000 
     65 CA         -0.8455   -1.1785    0.9960 C.3       2 GLC5        0.0000 
     66 CA         -3.9290   -1.6240    0.8945 C.3       2 GLC5        0.0000 
     67 CA         -3.8170    0.2130    0.1730 C.3       6 GLL5        0.0000 
     68 CA         -4.0410   -3.4610    1.6160 C.3       4 GLP5        0.0000 
     69 CA         -1.2760    3.8820   -1.1365 C.3       2 GLC5        0.0000 
     70 CA         -2.8270    2.3400   -0.7800 C.3       6 GLL5        0.0000 
     71 CA          0.2750    5.4240   -1.4930 C.3       4 GLP5        0.0000 
     72 CA          2.1942    0.6593   -2.9780 C.3       2 GLC5        0.0000 
     73 CA          1.7850    0.5430   -0.4770 C.3       6 GLL5        0.0000 
     74 CA          2.7510    0.7250   -4.8200 C.3       4 GLP5        0.0000 
     75 CA         10.4900    9.1625    1.7183 C.3       2 GLC5        0.0000 
     76 CA          9.8750    9.0270    0.2950 C.3       6 GLL5        0.0000 
     77 CA         10.7280    8.5740    3.5190 C.3       4 GLP5        0.0000 
     78 CA         10.6762    7.9745    1.9715 C.3       2 GLC5        0.0000 
     79 CA         12.2473    6.7470    1.4835 C.3       2 GLC5        0.0000 
     80 CA         13.8700    6.1190    2.5430 C.3       4 GLP5        0.0000 
     81 CA          2.8453   -1.5230   -0.2865 C.3       2 GLC5        0.0000 
     82 CA          3.3100   -3.2720   -0.1720 C.3       4 GLP5        0.0000 
     83 CA          9.4834    7.2430   -0.7672 C.3       2 GLC5        0.0000 
     84 CA          8.7170    6.2850   -1.8940 C.3       4 GLP5        0.0000 
     85 CA          9.7045    7.8792    2.4297 C.3       2 GLC5        0.0000 
     86 CA          8.6990    6.7348   -0.2767 C.3       2 GLC5        0.0000 
     87 CA         13.5597   11.4808   -4.3214 C.3       2 GLC5        0.0000 
     88 CA         12.6420   10.1620   -4.9920 C.3       4 GLP5        0.0000 
     89 CA          8.6615    8.2765    3.0325 C.3       2 GLC5        0.0000 
     90 CA          6.8050    7.5590    2.0280 C.3       6 GLL5        0.0000 
     91 CA          6.8460    6.5665    4.0695 C.3       2 GLC5        0.0000 
     92 CA          7.0970    5.1540    5.5930 C.3       4 GLP5        0.0000 
     93 CA          5.0915    9.4515    4.4443 C.3       2 GLC5        0.0000 
     94 CA          6.3850    8.3990    3.0640 C.3       6 GLL5        0.0000 
     95 CA          4.4380   10.5800    5.5480 C.3       4 GLP5        0.0000 
     96 CA          5.8683    6.4607    4.4998 C.3       2 GLC5        0.0000 
     97 CA          5.1050    8.2470    3.6170 C.3       6 GLL5        0.0000 
     98 CA          6.5365    5.0179    1.9449 C.3       2 GLC5        0.0000 
     99 CA          6.1303    5.8310    3.7450 C.3       2 GLC5        0.0000 
    100 CA          0.4575    4.5857    0.0840 C.3       2 GLC5        0.0000 
    101 CA         -1.5957    4.5932    2.4320 C.3       2 GLC5        0.0000 
    102 CA         -0.0500    3.6910    1.7430 C.3       6 GLL5        0.0000 
    103 CA         -2.7600    6.0280    3.3730 C.3       4 GLP5        0.0000 
    104 CA          0.7378    2.6208    3.0030 C.3       2 GLC5        0.0000 
    105 CA          1.9070    2.0830    4.5150 C.3       4 GLP5        0.0000 
    106 CA         -1.4678    0.9828    2.0600 C.3       2 GLC5        0.0000 
    107 CA         -0.8130    2.6260    1.2390 C.3       6 GLL5        0.0000 
    108 CA         -0.1437    3.7558   -0.3070 C.3       2 GLC5        0.0000 
    109 CA          1.6920    2.1277    2.5580 C.3       2 GLC5        0.0000 
    110 CA          1.0880    1.6380    0.3530 C.3       6 GLL5        0.0000 
    111 CA          0.8760    3.7983   -0.4460 C.3       2 GLC5        0.0000 
    112 CA         -3.4423    0.2203    1.6985 C.3       2 GLC5        0.0000 
    113 CA         -3.5903    1.7032   -2.5962 C.3       2 GLC5        0.0000 
    114 CA         -3.6430    0.7630   -4.4060 C.3       4 GLP5        0.0000 
    115 CA         -7.8483    2.4540   -2.0957 C.3       2 GLC5        0.0000 
    116 CA         -6.6520    2.4920   -1.1740 C.3       6 GLL5        0.0000 
    117 CA         -8.5120    2.7760   -3.4290 C.3       4 GLP5        0.0000 
@<TRIPOS>BOND
@<TRIPOS>SUBSTRUCTURE
     1 SEC2        8 GROUP        1 X    SEC  0     ROOT SEC X 2
     2 GLC5        1 GROUP        1 X    GLC  0     **** GLC X 6
     3 SEP2       10 GROUP        1 Y    SEP  0     ROOT SEP Y 9
     4 GLP5        3 GROUP        1 Y    GLP  0     **** GLP Y 13
     5 SEL2        9 GROUP        1 Z    SEL  0     ROOT SEL Z 16
     6 GLL5        2 GROUP        1 Z    GLL  0     **** GLL Z 20
@<TRIPOS>SET

