#    Name: 4agw_NG7_1_ligand
#    Modification time : Tue Mar 25 05:35:09 2014

@<TRIPOS>MOLECULE
4agw_NG7_1_ligand
   75    80     1     0     0
SMALL
NO_CHARGES


@<TRIPOS>ATOM
      1 C           1.7850    0.5430   -0.4770 C.3       1 NG71534     0.0000 
      2 F1          1.4900    0.6440   -1.7950 F         1 NG71534     0.0000 
      3 N          -5.2820    1.9060   -0.9510 N.3       1 NG71534     0.0000 
      4 O           4.0070    4.5760    0.7680 O.2       1 NG71534     0.0000 
      5 S          10.6290   10.4750   -0.4600 S.3       1 NG71534     0.0000 
      6 C01        10.4060    6.7630    0.6920 C.ar      1 NG71534     0.0000 
      7 F3          1.4730   -0.7190   -0.1290 F         1 NG71534     0.0000 
      8 N01         8.6450    8.9420    0.8560 N.ar      1 NG71534     0.0000 
      9 O01        12.1590   12.0010   -2.3740 O.2       1 NG71534     0.0000 
     10 C02        10.8430    7.9870    0.1560 C.ar      1 NG71534     0.0000 
     11 F2          3.1320    0.5400   -0.4990 F         1 NG71534     0.0000 
     12 N02        12.1130    8.2720   -0.4860 N.2       1 NG71534     0.0000 
     13 C03         9.8750    9.0270    0.2950 C.ar      1 NG71534     0.0000 
     14 N03        13.2730   10.2430   -1.5050 N.am      1 NG71534     0.0000 
     15 C04         8.2310    7.7260    1.3920 C.ar      1 NG71534     0.0000 
     16 N04         2.1640    4.9080    2.0810 N.am      1 NG71534     0.0000 
     17 C05         9.1310    6.6430    1.2890 C.ar      1 NG71534     0.0000 
     18 N05        -2.6320    0.9140   -0.4090 N.4       1 NG71534     0.0000 
     19 C06        12.2080    9.5350   -0.8780 C.2       1 NG71534     0.0000 
     20 C07        13.2260   11.4110   -2.3560 C.2       1 NG71534     0.0000 
     21 C08        14.4830   12.1560   -2.8450 C.3       1 NG71534     0.0000 
     22 C09        14.9170   12.2140   -4.3140 C.3       1 NG71534     0.0000 
     23 C10        14.2550   13.4140   -3.7220 C.3       1 NG71534     0.0000 
     24 C11         6.8050    7.5590    2.0280 C.ar      1 NG71534     0.0000 
     25 C12         6.3850    8.3990    3.0640 C.ar      1 NG71534     0.0000 
     26 C13         5.1050    8.2470    3.6170 C.ar      1 NG71534     0.0000 
     27 C14         4.1740    7.2880    3.1960 C.ar      1 NG71534     0.0000 
     28 C15         4.5080    6.4160    2.1690 C.ar      1 NG71534     0.0000 
     29 C16         5.8190    6.6000    1.6250 C.ar      1 NG71534     0.0000 
     30 C17         3.5110    5.2770    1.6410 C.2       1 NG71534     0.0000 
     31 C18         1.3300    3.8040    1.5790 C.ar      1 NG71534     0.0000 
     32 C19        -0.0500    3.6910    1.7430 C.ar      1 NG71534     0.0000 
     33 C20        -0.8130    2.6260    1.2390 C.ar      1 NG71534     0.0000 
     34 C21        -0.3120    1.5490    0.5190 C.ar      1 NG71534     0.0000 
     35 C22         1.0880    1.6380    0.3530 C.ar      1 NG71534     0.0000 
     36 C23         1.8660    2.7070    0.8490 C.ar      1 NG71534     0.0000 
     37 C24        -1.2390    0.4450   -0.0420 C.3       1 NG71534     0.0000 
     38 C25        -3.8170    0.2130    0.1730 C.3       1 NG71534     0.0000 
     39 C26        -5.2060    0.9120    0.1390 C.3       1 NG71534     0.0000 
     40 C27        -4.2480    2.9470   -0.7930 C.3       1 NG71534     0.0000 
     41 C28        -2.8270    2.3400   -0.7800 C.3       1 NG71534     0.0000 
     42 C29        -6.6520    2.4920   -1.1740 C.3       1 NG71534     0.0000 
     43 C30        -7.7170    1.7720   -0.3510 C.3       1 NG71534     0.0000 
     44 H          11.0222    5.9395    0.6504 H         1 NG71534     0.0000 
     45 H          14.2683    9.8549   -1.3218 H         1 NG71534     0.0000 
     46 H           1.7391    5.5013    2.8476 H         1 NG71534     0.0000 
     47 H           8.8437    5.7176    1.6685 H         1 NG71534     0.0000 
     48 H          -2.6878    0.4100   -1.5934 H         1 NG71534     0.0000 
     49 H          15.2749   12.3719   -2.3221 H         1 NG71534     0.0000 
     50 H          14.2757   11.7259   -4.8188 H         1 NG71534     0.0000 
     51 H          15.8573   12.3556   -4.3267 H         1 NG71534     0.0000 
     52 H          14.9215   14.0409   -3.4757 H         1 NG71534     0.0000 
     53 H          13.3399   13.4112   -3.9679 H         1 NG71534     0.0000 
     54 H           7.0121    9.1276    3.4212 H         1 NG71534     0.0000 
     55 H           4.8259    8.8962    4.3996 H         1 NG71534     0.0000 
     56 H           3.2564    7.2358    3.6461 H         1 NG71534     0.0000 
     57 H           6.0957    5.9463    0.8247 H         1 NG71534     0.0000 
     58 H          -0.5530    4.4472    2.2758 H         1 NG71534     0.0000 
     59 H          -1.8604    2.6511    1.4269 H         1 NG71534     0.0000 
     60 H           2.8976    2.6954    0.6714 H         1 NG71534     0.0000 
     61 H          -0.7526    0.0057   -0.9317 H         1 NG71534     0.0000 
     62 H          -1.3088   -0.3616    0.7101 H         1 NG71534     0.0000 
     63 H          -3.6052   -0.0494    1.2489 H         1 NG71534     0.0000 
     64 H          -3.9398   -0.7908   -0.3254 H         1 NG71534     0.0000 
     65 H          -5.9666    0.1358    0.0121 H         1 NG71534     0.0000 
     66 H          -5.3635    1.3877    1.1116 H         1 NG71534     0.0000 
     67 H          -4.3896    3.4945    0.1461 H         1 NG71534     0.0000 
     68 H          -4.2982    3.6709   -1.6147 H         1 NG71534     0.0000 
     69 H          -2.3779    2.5250   -1.8034 H         1 NG71534     0.0000 
     70 H          -2.1939    2.9923   -0.1041 H         1 NG71534     0.0000 
     71 H          -6.9153    2.4195   -2.2348 H         1 NG71534     0.0000 
     72 H          -6.6484    3.5521   -0.8984 H         1 NG71534     0.0000 
     73 H          -7.7732    0.8012   -0.5842 H         1 NG71534     0.0000 
     74 H          -7.5290    1.8275    0.6296 H         1 NG71534     0.0000 
     75 H          -8.6261    2.1618   -0.4976 H         1 NG71534     0.0000 
@<TRIPOS>BOND
     1    2    1 1    
     2    7    1 1    
     3   11    1 1    
     4   35    1 1    
     5   39    3 1    
     6   40    3 1    
     7   42    3 1    
     8   30    4 2    
     9   13    5 1    
    10   19    5 1    
    11   10    6 ar   
    12   17    6 ar   
    13   44    6 1    
    14   13    8 ar   
    15   15    8 ar   
    16   20    9 2    
    17   12   10 1    
    18   13   10 ar   
    19   19   12 2    
    20   19   14 1    
    21   20   14 am   
    22   45   14 1    
    23   17   15 ar   
    24   24   15 1    
    25   30   16 am   
    26   31   16 1    
    27   46   16 1    
    28   47   17 1    
    29   37   18 1    
    30   38   18 1    
    31   41   18 1    
    32   48   18 1    
    33   21   20 1    
    34   22   21 1    
    35   23   21 1    
    36   49   21 1    
    37   23   22 1    
    38   50   22 1    
    39   51   22 1    
    40   52   23 1    
    41   53   23 1    
    42   25   24 ar   
    43   29   24 ar   
    44   26   25 ar   
    45   54   25 1    
    46   27   26 ar   
    47   55   26 1    
    48   28   27 ar   
    49   56   27 1    
    50   29   28 ar   
    51   30   28 1    
    52   57   29 1    
    53   32   31 ar   
    54   36   31 ar   
    55   33   32 ar   
    56   58   32 1    
    57   34   33 ar   
    58   59   33 1    
    59   35   34 ar   
    60   37   34 1    
    61   36   35 ar   
    62   60   36 1    
    63   61   37 1    
    64   62   37 1    
    65   39   38 1    
    66   63   38 1    
    67   64   38 1    
    68   65   39 1    
    69   66   39 1    
    70   41   40 1    
    71   67   40 1    
    72   68   40 1    
    73   69   41 1    
    74   70   41 1    
    75   43   42 1    
    76   71   42 1    
    77   72   42 1    
    78   73   43 1    
    79   74   43 1    
    80   75   43 1    
@<TRIPOS>SUBSTRUCTURE
     1 NG71534     1 GROUP   
@<TRIPOS>SET

