#    Name: 3S7B_2_CAVITY_N1_6.mol2
#    Modification time : Mon Mar 10 23:02:49 2014

@<TRIPOS>MOLECULE
3S7B_2_CAVITY_N1_6.mol2
  101     0     6     0     0
SMALL
NO_CHARGES


@<TRIPOS>ATOM
      1 OG        -17.1203  -55.7034    9.1500 O.2       1 SER1        0.0000 
      2 N         -16.0258  -55.5300    8.1390 N.2       2 ALA2        0.0000 
      3 CZ        -17.8797  -56.5603    8.1809 C.ar      4 PHE5        0.0000 
      4 N         -16.7852  -56.3869    7.1700 N.2       2 ALA2        0.0000 
      5 CZ        -17.8099  -54.4845    8.6125 C.ar      4 PHE5        0.0000 
      6 CZ        -16.7154  -54.3111    7.6016 C.ar      4 PHE5        0.0000 
      7 CZ        -18.5692  -55.3414    7.6434 C.ar      4 PHE5        0.0000 
      8 N         -17.4747  -55.1680    6.6325 N.2       2 ALA2        0.0000 
      9 CZ        -19.3286  -56.1983    6.6743 C.ar      4 PHE5        0.0000 
     10 OG        -18.2341  -56.0249    5.6634 O.2       1 SER1        0.0000 
     11 OG        -17.5638  -57.3919    1.7034 O.2       1 SER1        0.0000 
     12 CZ        -18.4994  -53.2656    8.0750 C.ar      4 PHE5        0.0000 
     13 CZ        -19.2588  -54.1225    7.1059 C.ar      4 PHE5        0.0000 
     14 CZ        -18.1643  -53.9491    6.0950 C.ar      4 PHE5        0.0000 
     15 CZ        -17.0698  -53.7757    5.0841 C.ar      4 PHE5        0.0000 
     16 CZ        -20.0181  -54.9794    6.1369 C.ar      4 PHE5        0.0000 
     17 OG        -18.9236  -54.8060    5.1259 O.2       1 SER1        0.0000 
     18 N         -17.8291  -54.6326    4.1150 N.2       2 ALA2        0.0000 
     19 OG        -19.6830  -55.6629    4.1568 O.2       1 SER1        0.0000 
     20 OG        -18.5885  -55.4895    3.1459 O.2       1 SER1        0.0000 
     21 N         -17.4940  -55.3162    2.1350 N.2       2 ALA2        0.0000 
     22 N         -16.3995  -55.1428    1.1240 N.2       2 ALA2        0.0000 
     23 OG        -19.3478  -56.3464    2.1768 O.2       1 SER1        0.0000 
     24 OG        -18.2533  -56.1731    1.1659 O.2       1 SER1        0.0000 
     25 OG        -17.1588  -55.9997    0.1549 O.2       1 SER1        0.0000 
     26 CZ        -19.1889  -52.0467    7.5375 C.ar      4 PHE5        0.0000 
     27 N         -21.0428  -53.0770    7.5794 N.2       2 ALA2        0.0000 
     28 CZ        -19.9483  -52.9036    6.5685 C.ar      4 PHE5        0.0000 
     29 CZ        -18.8538  -52.7302    5.5575 C.ar      4 PHE5        0.0000 
     30 CA        -20.7076  -53.7605    5.5994 C.3       5 GLY6        0.0000 
     31 DU        -19.6131  -53.5871    4.5884 H         6 CUB7        0.0000 
     32 CZ        -18.5186  -53.4138    3.5775 C.ar      4 PHE5        0.0000 
     33 CA        -17.4241  -53.2404    2.5666 C.3       5 GLY6        0.0000 
     34 N         -20.3725  -54.4440    3.6194 N.2       2 ALA2        0.0000 
     35 DU        -19.2780  -54.2707    2.6084 H         6 CUB7        0.0000 
     36 O         -18.1835  -54.0973    1.5975 O.2       2 ALA2        0.0000 
     37 N         -20.0373  -55.1276    1.6393 N.2       2 ALA2        0.0000 
     38 OG        -18.9428  -54.9542    0.6284 O.2       1 SER1        0.0000 
     39 N         -20.7967  -55.9845    0.6703 N.2       2 ALA2        0.0000 
     40 CA        -19.8785  -50.8278    7.0001 C.3       5 GLY6        0.0000 
     41 N         -20.6378  -51.6847    6.0310 N.2       2 ALA2        0.0000 
     42 CZ        -19.5433  -51.5114    5.0200 C.ar      4 PHE5        0.0000 
     43 CZ        -18.4488  -51.3380    4.0091 C.ar      4 PHE5        0.0000 
     44 N         -21.3972  -52.5416    5.0619 N.2       2 ALA2        0.0000 
     45 DU        -20.3027  -52.3683    4.0510 H         6 CUB7        0.0000 
     46 CZ        -19.2082  -52.1949    3.0400 C.ar      4 PHE5        0.0000 
     47 N         -22.1565  -53.3985    4.0928 N.2       2 ALA2        0.0000 
     48 N         -21.0620  -53.2252    3.0819 N.2       2 ALA2        0.0000 
     49 DU        -19.9675  -53.0518    2.0709 H         6 CUB7        0.0000 
     50 CA        -18.8730  -52.8784    1.0600 C.3       5 GLY6        0.0000 
     51 N         -21.8214  -54.0821    2.1128 N.2       2 ALA2        0.0000 
     52 DU        -20.7269  -53.9087    1.1019 H         6 CUB7        0.0000 
     53 OG        -19.6324  -53.7353    0.0909 O.2       1 SER1        0.0000 
     54 CA        -20.5680  -49.6090    6.4626 C.3       5 GLY6        0.0000 
     55 CA        -19.4735  -49.4356    5.4516 C.3       5 GLY6        0.0000 
     56 N         -22.4218  -50.6392    6.5044 N.2       2 ALA2        0.0000 
     57 N         -21.3273  -50.4659    5.4935 N.2       2 ALA2        0.0000 
     58 OG        -20.2328  -50.2925    4.4826 O.2       1 SER1        0.0000 
     59 OG        -19.1383  -50.1191    3.4716 O.2       1 SER1        0.0000 
     60 N         -22.0867  -51.3228    4.5244 N.2       2 ALA2        0.0000 
     61 DU        -20.9922  -51.1494    3.5135 H         6 CUB7        0.0000 
     62 N         -19.8977  -50.9760    2.5025 N.2       2 ALA2        0.0000 
     63 N         -22.8461  -52.1797    3.5554 N.2       2 ALA2        0.0000 
     64 DU        -21.7515  -52.0063    2.5444 H         6 CUB7        0.0000 
     65 NZ        -20.6570  -51.8329    1.5335 N.2       3 LYS4        0.0000 
     66 CA        -19.5625  -51.6595    0.5225 C.3       5 GLY6        0.0000 
     67 N         -23.6054  -53.0366    2.5863 N.2       2 ALA2        0.0000 
     68 N         -22.5109  -52.8632    1.5753 N.2       2 ALA2        0.0000 
     69 NZ        -21.4164  -52.6898    0.5644 N.2       3 LYS4        0.0000 
     70 CA        -24.3648  -53.8935    1.6172 C.3       5 GLY6        0.0000 
     71 N         -23.2703  -53.7201    0.6063 N.2       2 ALA2        0.0000 
     72 O         -22.3520  -48.5635    6.9360 O.2       2 ALA2        0.0000 
     73 CA        -21.2575  -48.3901    5.9251 C.3       5 GLY6        0.0000 
     74 CA        -20.1630  -48.2167    4.9142 C.3       5 GLY6        0.0000 
     75 O         -25.3004  -49.7671    7.9889 O.2       2 ALA2        0.0000 
     76 OG        -24.2059  -49.5937    6.9779 O.2       1 SER1        0.0000 
     77 N         -23.1114  -49.4204    5.9670 N.2       2 ALA2        0.0000 
     78 N         -22.0169  -49.2470    4.9560 N.2       2 ALA2        0.0000 
     79 N         -20.9224  -49.0736    3.9451 N.2       2 ALA2        0.0000 
     80 OG        -19.8279  -48.9002    2.9341 O.2       1 SER1        0.0000 
     81 N         -24.9652  -50.4506    6.0088 N.2       2 ALA2        0.0000 
     82 N         -23.8707  -50.2773    4.9979 N.2       2 ALA2        0.0000 
     83 N         -22.7762  -50.1039    3.9869 N.2       2 ALA2        0.0000 
     84 NZ        -21.6817  -49.9305    2.9760 N.2       3 LYS4        0.0000 
     85 NZ        -20.5872  -49.7571    1.9651 N.2       3 LYS4        0.0000 
     86 N         -25.7246  -51.3075    5.0398 N.2       2 ALA2        0.0000 
     87 N         -24.6301  -51.1342    4.0288 N.2       2 ALA2        0.0000 
     88 DU        -23.5356  -50.9608    3.0179 H         6 CUB7        0.0000 
     89 NZ        -22.4411  -50.7874    2.0069 N.2       3 LYS4        0.0000 
     90 NZ        -21.3466  -50.6140    0.9960 N.2       3 LYS4        0.0000 
     91 N         -25.3894  -51.9911    3.0597 N.2       2 ALA2        0.0000 
     92 DU        -24.2949  -51.8177    2.0488 H         6 CUB7        0.0000 
     93 NZ        -23.2004  -51.6443    1.0379 N.2       3 LYS4        0.0000 
     94 CA        -23.8009  -48.2015    5.4295 C.3       5 GLY6        0.0000 
     95 N         -22.7064  -48.0281    4.4185 N.2       2 ALA2        0.0000 
     96 N         -21.6119  -47.8547    3.4076 N.2       2 ALA2        0.0000 
     97 DU        -24.5603  -49.0584    4.4604 H         6 CUB7        0.0000 
     98 CA        -23.4658  -48.8850    3.4495 C.3       5 GLY6        0.0000 
     99 NZ        -22.3713  -48.7116    2.4385 N.2       3 LYS4        0.0000 
    100 DU        -24.2251  -49.7419    2.4804 H         6 CUB7        0.0000 
    101 NZ        -23.1306  -49.5685    1.4694 N.2       3 LYS4        0.0000 
@<TRIPOS>BOND
@<TRIPOS>SUBSTRUCTURE
     1 SER1        1 GROUP   
     2 ALA2        2 GROUP   
     3 LYS4       65 GROUP   
     4 PHE5        3 GROUP   
     5 GLY6       30 GROUP   
     6 CUB7       31 GROUP   
@<TRIPOS>SET

