#    Name: 3s7b_NH5_2_INTS_M
#    Modification time : Mon Apr  7 22:06:12 2014

@<TRIPOS>MOLECULE
3s7b_NH5_2_INTS_M
   75     0     3     0     0
SMALL
NO_CHARGES


@<TRIPOS>ATOM
      1 CA        -19.4300  -62.9350    0.5530 C.3       1 GLC5        0.0000 
      2 CA        -18.1060  -62.9680   -1.1500 C.3       3 GLL5        0.0000 
      3 CA        -20.7540  -62.9020    2.2560 C.3       2 GLP5        0.0000 
      4 CA        -15.5470  -61.9000    1.1055 C.3       1 GLC5        0.0000 
      5 CA        -17.5060  -61.1460    0.3320 C.3       3 GLL5        0.0000 
      6 CA        -13.5880  -62.6540    1.8790 C.3       2 GLP5        0.0000 
      7 CA        -19.1300  -62.0240    1.2940 C.3       1 GLC5        0.0000 
      8 CA        -14.9335  -60.6245    1.3395 C.3       1 GLC5        0.0000 
      9 CA        -16.5170  -59.9770    0.2140 C.3       3 GLL5        0.0000 
     10 CA        -13.3500  -61.2720    2.4650 C.3       2 GLP5        0.0000 
     11 CA        -16.8265  -53.5940    2.6220 C.3       1 GLC5        0.0000 
     12 CA        -18.7420  -54.4690    2.5150 C.3       3 GLL5        0.0000 
     13 CA        -14.9110  -52.7190    2.7290 C.3       2 GLP5        0.0000 
     14 CA        -19.5655  -57.3320    4.0420 C.3       1 GLC5        0.0000 
     15 CA        -19.6400  -55.2590    3.4860 C.3       3 GLL5        0.0000 
     16 CA        -19.4910  -59.4050    4.5980 C.3       2 GLP5        0.0000 
     17 CA        -15.0420  -56.8370    6.6065 C.3       1 GLC5        0.0000 
     18 CA        -16.7210  -55.9740    6.2880 C.3       3 GLL5        0.0000 
     19 CA        -13.3630  -57.7000    6.9250 C.3       2 GLP5        0.0000 
     20 CA        -15.6050  -54.1590    6.8040 C.3       1 GLC5        0.0000 
     21 CA        -14.4890  -52.3440    7.3200 C.3       2 GLP5        0.0000 
     22 CA        -17.6455  -57.9480    5.8945 C.3       1 GLC5        0.0000 
     23 CA        -18.5700  -59.9220    5.5010 C.3       2 GLP5        0.0000 
     24 CA        -11.5730  -58.8540   -2.9085 C.3       1 GLC5        0.0000 
     25 CA        -13.1290  -57.8760   -2.0710 C.3       3 GLL5        0.0000 
     26 CA        -10.0170  -59.8320   -3.7460 C.3       2 GLP5        0.0000 
     27 CA        -10.8345  -57.5920   -2.6415 C.3       1 GLC5        0.0000 
     28 CA        -12.3690  -56.7120   -1.4060 C.3       3 GLL5        0.0000 
     29 CA         -9.3000  -58.4720   -3.8770 C.3       2 GLP5        0.0000 
     30 CA        -11.9810  -54.7785   -1.8235 C.3       1 GLC5        0.0000 
     31 CA        -11.5930  -52.8450   -2.2410 C.3       2 GLP5        0.0000 
     32 CA        -13.1785  -67.5720   -2.9755 C.3       1 GLC5        0.0000 
     33 CA        -13.5240  -66.6660   -1.0250 C.3       3 GLL5        0.0000 
     34 CA        -12.8330  -68.4780   -4.9260 C.3       2 GLP5        0.0000 
     35 CA        -11.7765  -67.2545   -0.7280 C.3       1 GLC5        0.0000 
     36 CA        -10.0290  -67.8430   -0.4310 C.3       2 GLP5        0.0000 
     37 CA        -13.2745  -68.2485    3.1430 C.3       1 GLC5        0.0000 
     38 CA        -13.3720  -66.6030    2.1410 C.3       3 GLL5        0.0000 
     39 CA        -13.1770  -69.8940    4.1450 C.3       2 GLP5        0.0000 
     40 CA        -11.8485  -67.4355    1.5610 C.3       1 GLC5        0.0000 
     41 CA        -10.3250  -68.2680    0.9810 C.3       2 GLP5        0.0000 
     42 CA        -11.8375  -65.8940    3.0785 C.3       1 GLC5        0.0000 
     43 CA        -10.3030  -65.1850    4.0160 C.3       2 GLP5        0.0000 
     44 CA        -13.4800  -64.6285    2.0100 C.3       1 GLC5        0.0000 
     45 CA        -17.1393  -66.8770    1.4337 C.3       1 GLC5        0.0000 
     46 CA        -15.8390  -65.4740    2.0660 C.3       3 GLL5        0.0000 
     47 CA        -17.8850  -68.5350    1.1340 C.3       2 GLP5        0.0000 
     48 CA        -14.9908  -63.9365    1.8062 C.3       1 GLC5        0.0000 
     49 CA        -16.9480  -64.9640    1.4010 C.3       3 GLL5        0.0000 
     50 CA        -15.3870  -67.8807    1.4603 C.3       1 GLC5        0.0000 
     51 CA        -14.7820  -66.0000    1.3280 C.3       3 GLL5        0.0000 
     52 CA        -16.6970  -69.4600    1.1860 C.3       2 GLP5        0.0000 
     53 CA        -14.1967  -64.3287    1.2537 C.3       1 GLC5        0.0000 
     54 CA        -15.1378  -68.0327   -0.3680 C.3       1 GLC5        0.0000 
     55 CA        -14.8290  -66.0070   -0.0710 C.3       3 GLL5        0.0000 
     56 CA        -16.0990  -69.7290   -0.1880 C.3       2 GLP5        0.0000 
     57 CA        -17.1800  -66.8822    0.3875 C.3       1 GLC5        0.0000 
     58 CA        -15.9440  -65.4900   -0.7260 C.3       3 GLL5        0.0000 
     59 CA        -19.0065  -64.4849    1.4274 C.3       1 GLC5        0.0000 
     60 CA        -20.4080  -64.2700    2.8510 C.3       2 GLP5        0.0000 
     61 CA        -20.7635  -52.6688    8.6205 C.3       1 GLC5        0.0000 
     62 CA        -20.4630  -52.7610    6.2990 C.3       3 GLL5        0.0000 
     63 CA        -21.4830  -52.3430   10.4290 C.3       2 GLP5        0.0000 
     64 CA        -21.5888  -54.3811    6.3479 C.3       1 GLC5        0.0000 
     65 CA        -19.6250  -53.2280    7.3250 C.3       3 GLL5        0.0000 
     66 CA        -23.1370  -55.6030    6.1940 C.3       2 GLP5        0.0000 
     67 CA        -21.1923  -55.2756    5.6040 C.3       1 GLC5        0.0000 
     68 CA        -18.8520  -54.9890    5.8710 C.3       3 GLL5        0.0000 
     69 CA        -10.8035  -55.5590   -0.1625 C.3       1 GLC5        0.0000 
     70 CA        -12.7170  -56.5580    0.0860 C.3       3 GLL5        0.0000 
     71 CA         -9.0640  -54.4830    0.3350 C.3       2 GLP5        0.0000 
     72 CA        -10.9870  -57.6710    0.3160 C.3       1 GLC5        0.0000 
     73 CA         -9.4310  -58.7070    1.2920 C.3       2 GLP5        0.0000 
     74 CA        -13.1810  -56.1520    1.9300 C.3       1 GLC5        0.0000 
     75 CA        -12.8840  -55.7830    3.6600 C.3       2 GLP5        0.0000 
@<TRIPOS>BOND
@<TRIPOS>SUBSTRUCTURE
     1 GLC5        1 GROUP        1 X    GLC  0     ROOT GLC X 6
     2 GLP5        3 GROUP        1 Y    GLP  0     ROOT GLP Y 13
     3 GLL5        2 GROUP        1 Z    GLL  0     ROOT GLL Z 20
@<TRIPOS>SET

