#    Name: 3s7b_NH5_2_ligand
#    Modification time : Mon Apr  7 22:06:12 2014

@<TRIPOS>MOLECULE
3s7b_NH5_2_ligand
   75    78     1     0     0
SMALL
NO_CHARGES


@<TRIPOS>ATOM
      1 C1        -16.9480  -64.9640    1.4010 C.ar      1 NH5439      0.0000 
      2 C2        -15.8390  -65.4740    2.0660 C.ar      1 NH5439      0.0000 
      3 C3        -14.7820  -66.0000    1.3280 C.ar      1 NH5439      0.0000 
      4 C4        -14.8290  -66.0070   -0.0710 C.ar      1 NH5439      0.0000 
      5 C5        -15.9440  -65.4900   -0.7260 C.ar      1 NH5439      0.0000 
      6 C6        -17.0060  -64.9690    0.0080 C.ar      1 NH5439      0.0000 
      7 C7        -18.2330  -64.4330   -0.6970 C.3       1 NH5439      0.0000 
      8 C8        -18.1060  -62.9680   -1.1500 C.3       1 NH5439      0.0000 
      9 N9        -17.0010  -62.2520   -0.4870 N.4       1 NH5439      0.0000 
     10 C10       -17.5060  -61.1460    0.3320 C.3       1 NH5439      0.0000 
     11 C11       -16.5170  -59.9770    0.2140 C.3       1 NH5439      0.0000 
     12 C12       -17.2360  -58.6450    0.0490 C.2       1 NH5439      0.0000 
     13 O13       -18.4470  -58.5770    0.1660 O.2       1 NH5439      0.0000 
     14 N14       -16.5010  -57.5280   -0.1910 N.am      1 NH5439      0.0000 
     15 C15       -17.0900  -56.1970   -0.3950 C.3       1 NH5439      0.0000 
     16 C16       -18.2020  -55.8410    0.6050 C.3       1 NH5439      0.0000 
     17 N17       -17.6830  -55.2490    1.8400 N.4       1 NH5439      0.0000 
     18 C18       -18.7420  -54.4690    2.5150 C.3       1 NH5439      0.0000 
     19 C19       -19.6400  -55.2590    3.4860 C.3       1 NH5439      0.0000 
     20 C20       -19.6460  -54.5560    4.8280 C.ar      1 NH5439      0.0000 
     21 C21       -20.4490  -53.4200    5.0580 C.ar      1 NH5439      0.0000 
     22 C22       -20.4630  -52.7610    6.2990 C.ar      1 NH5439      0.0000 
     23 C23       -19.6250  -53.2280    7.3250 C.ar      1 NH5439      0.0000 
     24 C24       -18.8490  -54.3710    7.1050 C.ar      1 NH5439      0.0000 
     25 C25       -18.8520  -54.9890    5.8710 C.ar      1 NH5439      0.0000 
     26 O26       -18.0140  -56.0280    5.6390 O.3       1 NH5439      0.0000 
     27 C27       -16.7210  -55.9740    6.2880 C.3       1 NH5439      0.0000 
     28 C28       -16.8270  -55.5250    7.7340 C.2       1 NH5439      0.0000 
     29 O29       -15.9950  -55.8120    8.5630 O.2       1 NH5439      0.0000 
     30 N30       -17.8990  -54.7810    8.0420 N.am      1 NH5439      0.0000 
     31 O31       -19.4920  -52.6630    8.5480 O.3       1 NH5439      0.0000 
     32 C32       -15.0170  -57.6240   -0.3710 C.3       1 NH5439      0.0000 
     33 C33       -14.6450  -57.7460   -1.8680 C.3       1 NH5439      0.0000 
     34 C34       -13.1290  -57.8760   -2.0710 C.3       1 NH5439      0.0000 
     35 C35       -12.3690  -56.7120   -1.4060 C.3       1 NH5439      0.0000 
     36 C36       -12.7170  -56.5580    0.0860 C.3       1 NH5439      0.0000 
     37 C37       -14.2390  -56.4840    0.3140 C.3       1 NH5439      0.0000 
     38 CL38      -13.5240  -66.6660   -1.0250 Cl        1 NH5439      0.0000 
     39 CL39      -13.3720  -66.6030    2.1410 Cl        1 NH5439      0.0000 
     40 H         -17.7375  -64.5773    1.9423 H         1 NH5439      0.0000 
     41 H         -15.7988  -65.4634    3.0889 H         1 NH5439      0.0000 
     42 H         -15.9827  -65.4932   -1.7537 H         1 NH5439      0.0000 
     43 H         -19.1063  -64.5165   -0.0281 H         1 NH5439      0.0000 
     44 H         -18.4479  -65.0544   -1.5829 H         1 NH5439      0.0000 
     45 H         -19.0674  -62.4658   -0.9473 H         1 NH5439      0.0000 
     46 H         -17.9673  -62.9624   -2.2447 H         1 NH5439      0.0000 
     47 H         -17.5740  -61.4310    1.3752 H         1 NH5439      0.0000 
     48 H         -18.4745  -60.8099   -0.0189 H         1 NH5439      0.0000 
     49 H         -15.8678  -60.1484   -0.6475 H         1 NH5439      0.0000 
     50 H         -15.8969  -59.9461    1.1127 H         1 NH5439      0.0000 
     51 H         -17.5150  -56.1148   -1.4159 H         1 NH5439      0.0000 
     52 H         -16.3085  -55.4136   -0.3239 H         1 NH5439      0.0000 
     53 H         -18.7682  -56.7624    0.8222 H         1 NH5439      0.0000 
     54 H         -18.8982  -55.1481    0.1030 H         1 NH5439      0.0000 
     55 H         -19.4047  -53.9897    1.7576 H         1 NH5439      0.0000 
     56 H         -18.2896  -53.6250    3.0856 H         1 NH5439      0.0000 
     57 H         -19.2445  -56.2585    3.5949 H         1 NH5439      0.0000 
     58 H         -20.6424  -55.2965    3.0847 H         1 NH5439      0.0000 
     59 H         -21.0444  -53.0629    4.2895 H         1 NH5439      0.0000 
     60 H         -21.0691  -51.9603    6.4514 H         1 NH5439      0.0000 
     61 H         -16.0454  -55.2768    5.7615 H         1 NH5439      0.0000 
     62 H         -16.2310  -56.9636    6.2717 H         1 NH5439      0.0000 
     63 H         -18.0539  -54.4758    9.0460 H         1 NH5439      0.0000 
     64 H         -14.6770  -58.5744    0.1054 H         1 NH5439      0.0000 
     65 H         -15.0042  -56.8605   -2.3928 H         1 NH5439      0.0000 
     66 H         -15.1407  -58.6238   -2.2830 H         1 NH5439      0.0000 
     67 H         -12.9088  -57.8798   -3.1378 H         1 NH5439      0.0000 
     68 H         -12.7882  -58.8155   -1.6378 H         1 NH5439      0.0000 
     69 H         -12.6153  -55.7831   -1.9269 H         1 NH5439      0.0000 
     70 H         -11.2945  -56.8865   -1.5050 H         1 NH5439      0.0000 
     71 H         -12.2554  -55.6470    0.4675 H         1 NH5439      0.0000 
     72 H         -12.3160  -57.4100    0.6354 H         1 NH5439      0.0000 
     73 H         -14.4386  -56.5157    1.3924 H         1 NH5439      0.0000 
     74 H         -14.6088  -55.5234   -0.0658 H         1 NH5439      0.0000 
     75 H         -18.8473  -53.2514    9.0360 H         1 NH5439      0.0000 
@<TRIPOS>BOND
     1    2    1 ar   
     2    6    1 ar   
     3   40    1 1    
     4    3    2 ar   
     5   41    2 1    
     6    4    3 ar   
     7   39    3 1    
     8    5    4 ar   
     9   38    4 1    
    10    6    5 ar   
    11   42    5 1    
    12    7    6 1    
    13    8    7 1    
    14   43    7 1    
    15   44    7 1    
    16    9    8 1    
    17   45    8 1    
    18   46    8 1    
    19   10    9 1    
    20   11   10 1    
    21   47   10 1    
    22   48   10 1    
    23   12   11 1    
    24   49   11 1    
    25   50   11 1    
    26   13   12 2    
    27   14   12 am   
    28   15   14 1    
    29   32   14 1    
    30   16   15 1    
    31   51   15 1    
    32   52   15 1    
    33   17   16 1    
    34   53   16 1    
    35   54   16 1    
    36   18   17 1    
    37   19   18 1    
    38   55   18 1    
    39   56   18 1    
    40   20   19 1    
    41   57   19 1    
    42   58   19 1    
    43   21   20 ar   
    44   25   20 ar   
    45   22   21 ar   
    46   59   21 1    
    47   23   22 ar   
    48   60   22 1    
    49   24   23 ar   
    50   31   23 1    
    51   25   24 ar   
    52   30   24 1    
    53   26   25 1    
    54   27   26 1    
    55   28   27 1    
    56   61   27 1    
    57   62   27 1    
    58   29   28 2    
    59   30   28 am   
    60   63   30 1    
    61   75   31 1    
    62   33   32 1    
    63   37   32 1    
    64   64   32 1    
    65   34   33 1    
    66   65   33 1    
    67   66   33 1    
    68   35   34 1    
    69   67   34 1    
    70   68   34 1    
    71   36   35 1    
    72   69   35 1    
    73   70   35 1    
    74   37   36 1    
    75   71   36 1    
    76   72   36 1    
    77   73   37 1    
    78   74   37 1    
@<TRIPOS>SUBSTRUCTURE
     1 NH5439      1 GROUP   
@<TRIPOS>SET

