#    Name: 3zki_WZV_1_INTS_M
#    Modification time : Tue Mar 25 03:36:49 2014

@<TRIPOS>MOLECULE
3zki_WZV_1_INTS_M
   69     0     9     0     0
SMALL
NO_CHARGES


@<TRIPOS>ATOM
      1 CA        -11.6975   -1.4045  -32.9935 C.3       3 GLC5        0.0000 
      2 CA        -12.2870    0.2780  -32.4460 C.3       9 GLL5        0.0000 
      3 CA        -11.1080   -3.0870  -33.5410 C.3       6 GLP5        0.0000 
      4 CA        -11.5745    2.8110  -30.2425 C.3       3 GLC5        0.0000 
      5 CA        -12.6420    1.7810  -30.9620 C.3       9 GLL5        0.0000 
      6 CA        -10.5070    3.8410  -29.5230 C.3       6 GLP5        0.0000 
      7 CA        -15.1380    4.6790  -35.9020 C.3       3 GLC5        0.0000 
      8 CA        -15.4840    3.4910  -34.4350 C.3       9 GLL5        0.0000 
      9 CA        -14.7920    5.8670  -37.3690 C.3       6 GLP5        0.0000 
     10 CA        -15.0595    2.8515  -36.4385 C.3       3 GLC5        0.0000 
     11 CA        -14.6350    2.2120  -38.4420 C.3       6 GLP5        0.0000 
     12 CA        -13.3160    2.9690  -34.3070 C.3       3 GLC5        0.0000 
     13 CA        -11.1480    2.4470  -34.1790 C.3       6 GLP5        0.0000 
     14 CA        -17.9495    5.9530  -34.5685 C.3       3 GLC5        0.0000 
     15 CA        -17.8360    3.8010  -34.4510 C.3       9 GLL5        0.0000 
     16 CA        -18.0630    8.1050  -34.6860 C.3       6 GLP5        0.0000 
     17 O         -17.6650    4.6540  -37.1390 O.2       1 ALC1        0.0000 
     18 O         -18.8480    4.9950  -36.2990 O.2       7 ALL1        0.0000 
     19 O         -16.4820    4.3130  -37.9790 O.2       4 ALP1        0.0000 
     20 CA        -20.8840    8.5610  -41.6850 C.3       3 GLC5        0.0000 
     21 CA        -19.4830    7.6900  -40.3560 C.3       9 GLL5        0.0000 
     22 CA        -22.2850    9.4320  -43.0140 C.3       6 GLP5        0.0000 
     23 CA        -21.2370    7.6475  -42.6615 C.3       3 GLC5        0.0000 
     24 CA        -19.9530    7.0620  -41.6580 C.3       9 GLL5        0.0000 
     25 CA        -22.5210    8.2330  -43.6650 C.3       6 GLP5        0.0000 
     26 CA        -18.5805   10.3745  -41.1760 C.3       3 GLC5        0.0000 
     27 CA        -19.9220    9.1370  -40.2630 C.3       9 GLL5        0.0000 
     28 CA        -17.2390   11.6120  -42.0890 C.3       6 GLP5        0.0000 
     29 CA        -21.4425    9.4330  -41.0500 C.3       3 GLC5        0.0000 
     30 CA        -22.9630    9.7290  -41.8370 C.3       6 GLP5        0.0000 
     31 CA        -20.4135    9.6760  -38.5080 C.3       3 GLC5        0.0000 
     32 CA        -20.9050   10.2150  -36.7530 C.3       6 GLP5        0.0000 
     33 O         -17.4215    8.6860  -39.8405 O.2       1 ALC1        0.0000 
     34 O         -18.0410    7.5860  -40.3510 O.2       7 ALL1        0.0000 
     35 O         -16.8020    9.7860  -39.3300 O.2       4 ALP1        0.0000 
     36 OD1       -15.5075    7.7170  -39.9595 O.co2     2 ASC3        0.0000 
     37 OD1       -17.4110    6.5950  -40.8130 O.co2     8 ASL3        0.0000 
     38 OD1       -14.8470    8.8070  -39.2210 O.co2     5 ASP3        0.0000 
     39 OD1       -17.4215    8.6860  -39.8405 O.co2     2 ASC3        0.0000 
     40 OD1       -16.8020    9.7860  -39.3300 O.co2     5 ASP3        0.0000 
     41 OD1       -15.0890    5.7745  -41.1250 O.co2     2 ASC3        0.0000 
     42 OD1       -14.0100    4.9220  -41.5520 O.co2     5 ASP3        0.0000 
     43 O         -15.5075    7.7170  -39.9595 O.2       1 ALC1        0.0000 
     44 O         -16.1680    6.6270  -40.6980 O.2       7 ALL1        0.0000 
     45 O         -14.8470    8.8070  -39.2210 O.2       4 ALP1        0.0000 
     46 O         -15.0890    5.7745  -41.1250 O.2       1 ALC1        0.0000 
     47 O         -14.0100    4.9220  -41.5520 O.2       4 ALP1        0.0000 
     48 CA        -14.4031    0.2614  -29.8199 C.3       3 GLC5        0.0000 
     49 CA        -14.4820    0.8780  -32.0760 C.3       9 GLL5        0.0000 
     50 CA        -15.0670   -0.1390  -28.1460 C.3       6 GLP5        0.0000 
     51 CA        -14.3494   -0.8610  -32.8616 C.3       3 GLC5        0.0000 
     52 CA        -13.1260   -0.3250  -30.5980 C.3       9 GLL5        0.0000 
     53 CA        -15.0040   -2.1960  -34.0440 C.3       6 GLP5        0.0000 
     54 CA        -12.3609    1.7237  -32.9746 C.3       3 GLC5        0.0000 
     55 CA        -15.7652    3.9405  -32.1980 C.3       3 GLC5        0.0000 
     56 CA        -15.6010    2.6330  -33.3430 C.3       9 GLL5        0.0000 
     57 CA        -15.9880    4.8190  -30.5070 C.3       6 GLP5        0.0000 
     58 CA        -14.9343    1.2595  -34.8650 C.3       3 GLC5        0.0000 
     59 CA        -14.3260   -0.5430  -35.8410 C.3       6 GLP5        0.0000 
     60 CA        -17.7647    2.3015  -31.1128 C.3       3 GLC5        0.0000 
     61 CA        -16.8580    2.3520  -32.7900 C.3       9 GLL5        0.0000 
     62 CA        -18.1050    1.9500  -29.1570 C.3       6 GLP5        0.0000 
     63 CA        -16.8091    4.0230  -32.1334 C.3       3 GLC5        0.0000 
     64 CA        -19.1784    6.9940  -35.9635 C.3       3 GLC5        0.0000 
     65 CA        -19.7510    5.6730  -37.1120 C.3       9 GLL5        0.0000 
     66 CA        -21.2075    8.1767  -36.9975 C.3       3 GLC5        0.0000 
     67 CA        -21.1000    5.7810  -36.8050 C.3       9 GLL5        0.0000 
     68 CA        -20.8167    8.6397  -37.8657 C.3       3 GLC5        0.0000 
     69 CA        -21.4070    7.1140  -38.8300 C.3       9 GLL5        0.0000 
@<TRIPOS>BOND
@<TRIPOS>SUBSTRUCTURE
     1 ALC1       17 GROUP        1 X    ALC  0     ROOT ALC X 1
     2 ASC3       36 GROUP        1 X    ASC  0     **** ASC X 3
     3 GLC5        1 GROUP        1 X    GLC  0     **** GLC X 6
     4 ALP1       19 GROUP        1 Y    ALP  0     ROOT ALP Y 8
     5 ASP3       38 GROUP        1 Y    ASP  0     **** ASP Y 10
     6 GLP5        3 GROUP        1 Y    GLP  0     **** GLP Y 13
     7 ALL1       18 GROUP        1 Z    ALL  0     ROOT ALL Z 15
     8 ASL3       37 GROUP        1 Z    ASL  0     **** ASL Z 17
     9 GLL5        2 GROUP        1 Z    GLL  0     **** GLL Z 20
@<TRIPOS>SET

