#    Name: 3zki_WZV_1_ligand
#    Modification time : Tue Mar 25 03:36:49 2014

@<TRIPOS>MOLECULE
3zki_WZV_1_ligand
   52    54     1     0     0
SMALL
NO_CHARGES


@<TRIPOS>ATOM
      1 F30       -12.2870    0.2780  -32.4460 F         1 WZV1398     0.0000 
      2 C28       -13.0910    0.6520  -31.4880 C.3       1 WZV1398     0.0000 
      3 F31       -12.6420    1.7810  -30.9620 F         1 WZV1398     0.0000 
      4 F29       -13.1260   -0.3250  -30.5980 F         1 WZV1398     0.0000 
      5 C27       -14.4820    0.8780  -32.0760 C.3       1 WZV1398     0.0000 
      6 O26       -14.4700    2.0860  -32.8230 O.3       1 WZV1398     0.0000 
      7 C18       -15.6010    2.6330  -33.3430 C.ar      1 WZV1398     0.0000 
      8 C23       -15.4840    3.4910  -34.4350 C.ar      1 WZV1398     0.0000 
      9 N22       -16.5890    4.0620  -34.9610 N.ar      1 WZV1398     0.0000 
     10 C19       -16.8580    2.3520  -32.7900 C.ar      1 WZV1398     0.0000 
     11 C20       -17.9910    2.9540  -33.3470 C.ar      1 WZV1398     0.0000 
     12 C21       -17.8360    3.8010  -34.4510 C.ar      1 WZV1398     0.0000 
     13 C24       -19.0410    4.4370  -35.0940 C.2       1 WZV1398     0.0000 
     14 O25       -20.1190    4.3860  -34.5310 O.2       1 WZV1398     0.0000 
     15 N13       -18.8480    4.9950  -36.2990 N.am      1 WZV1398     0.0000 
     16 C7        -19.7510    5.6730  -37.1120 C.ar      1 WZV1398     0.0000 
     17 C12       -19.2240    6.2970  -38.2420 C.ar      1 WZV1398     0.0000 
     18 C8        -21.1000    5.7810  -36.8050 C.ar      1 WZV1398     0.0000 
     19 C9        -21.9200    6.4960  -37.6790 C.ar      1 WZV1398     0.0000 
     20 C10       -21.4070    7.1140  -38.8300 C.ar      1 WZV1398     0.0000 
     21 C11       -20.0500    7.0150  -39.1270 C.ar      1 WZV1398     0.0000 
     22 C1        -19.4830    7.6900  -40.3560 C.3       1 WZV1398     0.0000 
     23 C2        -19.9530    7.0620  -41.6580 C.3       1 WZV1398     0.0000 
     24 C3        -19.3270    5.6920  -41.7770 C.2       1 WZV1398     0.0000 
     25 O16       -20.0150    4.7720  -42.1920 O.2       1 WZV1398     0.0000 
     26 C14       -19.9220    9.1370  -40.2630 C.3       1 WZV1398     0.0000 
     27 N6        -18.0410    7.5860  -40.3510 N.pl3     1 WZV1398     0.0000 
     28 C5        -17.4110    6.5950  -40.8130 C.cat     1 WZV1398     0.0000 
     29 N15       -16.1680    6.6270  -40.6980 N.pl3     1 WZV1398     0.0000 
     30 N4        -18.0310    5.5380  -41.4080 N.am      1 WZV1398     0.0000 
     31 C17       -17.3370    4.2690  -41.6440 C.3       1 WZV1398     0.0000 
     32 H         -15.1925    0.9153  -31.2463 H         1 WZV1398     0.0000 
     33 H         -14.7254    0.0129  -32.6981 H         1 WZV1398     0.0000 
     34 H         -14.5463    3.6772  -34.8268 H         1 WZV1398     0.0000 
     35 H         -16.9433    1.7207  -31.9970 H         1 WZV1398     0.0000 
     36 H         -18.9148    2.7793  -32.9560 H         1 WZV1398     0.0000 
     37 H         -17.8330    4.9139  -36.7210 H         1 WZV1398     0.0000 
     38 H         -18.2122    6.2347  -38.4378 H         1 WZV1398     0.0000 
     39 H         -21.4836    5.3528  -35.9681 H         1 WZV1398     0.0000 
     40 H         -22.9337    6.5746  -37.4761 H         1 WZV1398     0.0000 
     41 H         -22.0353    7.6373  -39.4492 H         1 WZV1398     0.0000 
     42 H         -19.6413    7.6801  -42.4882 H         1 WZV1398     0.0000 
     43 H         -21.0301    6.9723  -41.6455 H         1 WZV1398     0.0000 
     44 H         -17.5525    8.4312  -39.9171 H         1 WZV1398     0.0000 
     45 H         -15.6715    5.8419  -41.0683 H         1 WZV1398     0.0000 
     46 H         -15.7885    7.4346  -40.2466 H         1 WZV1398     0.0000 
     47 H         -19.5804    9.5761  -39.4320 H         1 WZV1398     0.0000 
     48 H         -19.5902    9.6762  -41.0370 H         1 WZV1398     0.0000 
     49 H         -20.9182    9.2229  -40.2515 H         1 WZV1398     0.0000 
     50 H         -16.3900    4.2986  -41.3243 H         1 WZV1398     0.0000 
     51 H         -17.7824    3.5086  -41.1713 H         1 WZV1398     0.0000 
     52 H         -17.3111    4.0350  -42.6159 H         1 WZV1398     0.0000 
@<TRIPOS>BOND
     1    2    1 1    
     2    3    2 1    
     3    4    2 1    
     4    5    2 1    
     5    6    5 1    
     6   32    5 1    
     7   33    5 1    
     8    7    6 1    
     9    8    7 ar   
    10   10    7 ar   
    11    9    8 ar   
    12   34    8 1    
    13   12    9 ar   
    14   11   10 ar   
    15   35   10 1    
    16   12   11 ar   
    17   36   11 1    
    18   13   12 1    
    19   14   13 2    
    20   15   13 am   
    21   16   15 1    
    22   37   15 1    
    23   17   16 ar   
    24   18   16 ar   
    25   21   17 ar   
    26   38   17 1    
    27   19   18 ar   
    28   39   18 1    
    29   20   19 ar   
    30   40   19 1    
    31   21   20 ar   
    32   41   20 1    
    33   22   21 1    
    34   23   22 1    
    35   26   22 1    
    36   27   22 1    
    37   24   23 1    
    38   42   23 1    
    39   43   23 1    
    40   25   24 2    
    41   30   24 am   
    42   47   26 1    
    43   48   26 1    
    44   49   26 1    
    45   28   27 ar   
    46   44   27 1    
    47   29   28 ar   
    48   30   28 1    
    49   45   29 1    
    50   46   29 1    
    51   31   30 1    
    52   50   31 1    
    53   51   31 1    
    54   52   31 1    
@<TRIPOS>SUBSTRUCTURE
     1 WZV1398     1 GROUP   
@<TRIPOS>SET

