#    Name: 1idb_0DO_1_INTS_M
#    Modification time : Tue Mar 25 06:56:12 2014

@<TRIPOS>MOLECULE
1idb_0DO_1_INTS_M
   92     0     9     0     0
SMALL
NO_CHARGES


@<TRIPOS>ATOM
      1 CA         51.5850   20.2735    7.2605 C.3       3 GLC5        0.0000 
      2 CA         51.1180   22.3530    7.6270 C.3       9 GLL5        0.0000 
      3 CA         52.0520   18.1940    6.8940 C.3       6 GLP5        0.0000 
      4 CA         50.4315   21.3370    9.4065 C.3       3 GLC5        0.0000 
      5 CA         49.7450   20.3210   11.1860 C.3       6 GLP5        0.0000 
      6 CA         49.0985   22.0305    6.7970 C.3       3 GLC5        0.0000 
      7 CA         47.0790   21.7080    5.9670 C.3       6 GLP5        0.0000 
      8 CA         53.2050   23.5600   13.6050 C.3       3 GLC5        0.0000 
      9 CA         51.5210   23.9480   12.3540 C.3       9 GLL5        0.0000 
     10 CA         54.8890   23.1720   14.8560 C.3       6 GLP5        0.0000 
     11 CA         53.9850   23.3365   12.7680 C.3       3 GLC5        0.0000 
     12 CA         52.2960   22.8820   11.8850 C.3       9 GLL5        0.0000 
     13 CA         55.6740   23.7910   13.6510 C.3       6 GLP5        0.0000 
     14 CA         52.8530   21.3515   13.3885 C.3       3 GLC5        0.0000 
     15 CA         53.4100   19.8210   14.8920 C.3       6 GLP5        0.0000 
     16 CA         54.1110   19.6745   10.0745 C.3       3 GLC5        0.0000 
     17 CA         53.2980   21.4380   10.0390 C.3       9 GLL5        0.0000 
     18 CA         54.9240   17.9110   10.1100 C.3       6 GLP5        0.0000 
     19 CA         54.1770   20.4075    8.2840 C.3       3 GLC5        0.0000 
     20 CA         55.0560   19.3770    6.5290 C.3       6 GLP5        0.0000 
     21 N          54.7980   26.0950    3.3975 N.am      2 SEC2        0.0000 
     22 N          54.0460   25.1400    4.1170 N.am      8 SEL2        0.0000 
     23 N          55.5500   27.0500    2.6780 N.am      5 SEP2        0.0000 
     24 O          55.2775   25.3280    4.3755 O.2       1 ALC1        0.0000 
     25 O          54.0460   25.1400    4.1170 O.2       7 ALL1        0.0000 
     26 O          56.5090   25.5160    4.6340 O.2       4 ALP1        0.0000 
     27 O          55.2385   24.2695    4.5465 O.2       1 ALC1        0.0000 
     28 O          56.4310   23.3990    4.9760 O.2       4 ALP1        0.0000 
     29 CA         55.6505   24.1285    1.8120 C.3       3 GLC5        0.0000 
     30 CA         53.5280   23.7020    2.3730 C.3       9 GLL5        0.0000 
     31 CA         57.7730   24.5550    1.2510 C.3       6 GLP5        0.0000 
     32 CA         53.7860   24.9290    0.6510 C.3       3 GLC5        0.0000 
     33 CA         54.0440   26.1560   -1.0710 C.3       6 GLP5        0.0000 
     34 CA         50.8500   19.5670    0.9010 C.3       3 GLC5        0.0000 
     35 CA         52.7210   20.3510    0.9320 C.3       9 GLL5        0.0000 
     36 CA         48.9790   18.7830    0.8700 C.3       6 GLP5        0.0000 
     37 CA         56.6715   21.3060    2.4350 C.3       3 GLC5        0.0000 
     38 CA         54.4860   21.5480    2.7080 C.3       9 GLL5        0.0000 
     39 CA         58.8570   21.0640    2.1620 C.3       6 GLP5        0.0000 
     40 N          55.3135   15.9105    2.7890 N.am      2 SEC2        0.0000 
     41 N          54.2500   17.1960    2.2840 N.am      8 SEL2        0.0000 
     42 N          56.3770   14.6250    3.2940 N.am      5 SEP2        0.0000 
     43 CA         49.3360   25.4490   -2.8845 C.3       3 GLC5        0.0000 
     44 CA         51.0970   24.0740   -2.9210 C.3       9 GLL5        0.0000 
     45 CA         47.5750   26.8240   -2.8480 C.3       6 GLP5        0.0000 
     46 CA         49.8770   22.6755   -4.0080 C.3       3 GLC5        0.0000 
     47 CA         48.6570   21.2770   -5.0950 C.3       6 GLP5        0.0000 
     48 CA         48.8750   25.8225   -1.8000 C.3       3 GLC5        0.0000 
     49 CA         50.1750   24.8210   -0.7520 C.3       9 GLL5        0.0000 
     50 CA         49.6560   26.2270    0.3150 C.3       3 GLC5        0.0000 
     51 CA         49.1370   27.6330    1.3820 C.3       6 GLP5        0.0000 
     52 CA         49.0460   21.9530   -3.4095 C.3       3 GLC5        0.0000 
     53 CA         49.4350   22.6290   -1.7240 C.3       9 GLL5        0.0000 
     54 CA         52.0000   25.9555   11.7513 C.3       3 GLC5        0.0000 
     55 CA         51.0830   24.5550   10.0580 C.3       9 GLL5        0.0000 
     56 CA         53.0000   27.2360   12.7620 C.3       6 GLP5        0.0000 
     57 CA         52.4543   25.3255   12.4407 C.3       3 GLC5        0.0000 
     58 CA         50.8267   21.8680   11.6527 C.3       3 GLC5        0.0000 
     59 CA         54.1953   23.1845    9.3410 C.3       3 GLC5        0.0000 
     60 CA         52.4470   22.6120   10.5190 C.3       9 GLL5        0.0000 
     61 CA         55.5180   24.3440    8.4030 C.3       6 GLP5        0.0000 
     62 CA         52.8354   25.1887    9.0102 C.3       3 GLC5        0.0000 
     63 CA         51.8080   23.4450    9.5920 C.3       9 GLL5        0.0000 
     64 CA         54.7320   25.6160    8.5380 C.3       6 GLP5        0.0000 
     65 CA         51.2289   21.2771   10.6166 C.3       3 GLC5        0.0000 
     66 CA         49.7758   26.5602    2.8625 C.3       3 GLC5        0.0000 
     67 CA         49.7000   25.5220    4.6140 C.3       9 GLL5        0.0000 
     68 CA         48.5418   26.3585    2.7635 C.3       3 GLC5        0.0000 
     69 CA         48.5980   25.0420    3.8910 C.3       9 GLL5        0.0000 
     70 CA         47.5018   24.2180    2.5960 C.3       3 GLC5        0.0000 
     71 CA         47.2950   25.1260    4.3990 C.3       9 GLL5        0.0000 
     72 CA         47.0570   23.3520    1.0470 C.3       6 GLP5        0.0000 
     73 CA         45.3298   25.6920    4.9230 C.3       3 GLC5        0.0000 
     74 CA         47.0520   25.6940    5.6490 C.3       9 GLL5        0.0000 
     75 CA         43.4860   25.9740    4.8220 C.3       6 GLP5        0.0000 
     76 CA         47.7184   27.7763    6.3900 C.3       3 GLC5        0.0000 
     77 CA         47.5230   29.6310    6.8970 C.3       6 GLP5        0.0000 
     78 CA         47.2891   23.5485    5.4320 C.3       3 GLC5        0.0000 
     79 CA         54.6595   20.1040    4.6685 C.3       3 GLC5        0.0000 
     80 CA         50.7585   17.8185    0.3212 C.3       3 GLC5        0.0000 
     81 CA         53.0890   17.2690   -0.1380 C.3       9 GLL5        0.0000 
     82 CA         55.3434   17.1771   -0.5292 C.3       3 GLC5        0.0000 
     83 CA         57.2810   17.0760   -0.0600 C.3       6 GLP5        0.0000 
     84 CA         50.1355   16.8320   -1.7408 C.3       3 GLC5        0.0000 
     85 CA         51.9870   16.4390   -0.3170 C.3       9 GLL5        0.0000 
     86 CA         48.4220   17.4820   -2.5310 C.3       6 GLP5        0.0000 
     87 CA         52.2287   15.3227    0.7446 C.3       3 GLC5        0.0000 
     88 CA         51.7110   15.9250   -1.5840 C.3       9 GLL5        0.0000 
     89 CA         52.3330   14.2560    2.3950 C.3       6 GLP5        0.0000 
     90 CA         52.2805   25.2404   -1.2803 C.3       3 GLC5        0.0000 
     91 CA         48.4868   23.3837   -0.1931 C.3       3 GLC5        0.0000 
     92 CA         50.6210   23.5830   -1.5330 C.3       9 GLL5        0.0000 
@<TRIPOS>BOND
@<TRIPOS>SUBSTRUCTURE
     1 ALC1       24 GROUP        1 X    ALC  0     ROOT ALC X 1
     2 SEC2       21 GROUP        1 X    SEC  0     **** SEC X 2
     3 GLC5        1 GROUP        1 X    GLC  0     **** GLC X 6
     4 ALP1       26 GROUP        1 Y    ALP  0     ROOT ALP Y 8
     5 SEP2       23 GROUP        1 Y    SEP  0     **** SEP Y 9
     6 GLP5        3 GROUP        1 Y    GLP  0     **** GLP Y 13
     7 ALL1       25 GROUP        1 Z    ALL  0     ROOT ALL Z 15
     8 SEL2       22 GROUP        1 Z    SEL  0     **** SEL Z 16
     9 GLL5        2 GROUP        1 Z    GLL  0     **** GLL Z 20
@<TRIPOS>SET

