#    Name: 1idb_0DO_1_ligand
#    Modification time : Tue Mar 25 06:56:12 2014

@<TRIPOS>MOLECULE
1idb_0DO_1_ligand
   93    96     1     0     0
SMALL
NO_CHARGES


@<TRIPOS>ATOM
      1 C1         51.1430   22.6980    6.1460 C.2       1 0DO100      0.0000 
      2 C2         51.1180   22.3530    7.6270 C.3       1 0DO100      0.0000 
      3 C1'        51.8080   23.4450    9.5920 C.ar      1 0DO100      0.0000 
      4 C2'        51.0830   24.5550   10.0580 C.ar      1 0DO100      0.0000 
      5 C3'        50.9170   24.7950   11.4230 C.ar      1 0DO100      0.0000 
      6 C4'        51.5210   23.9480   12.3540 C.ar      1 0DO100      0.0000 
      7 C5'        52.2960   22.8820   11.8850 C.ar      1 0DO100      0.0000 
      8 C6'        52.4470   22.6120   10.5190 C.ar      1 0DO100      0.0000 
      9 CM2        50.4320   25.5230    9.1400 C.3       1 0DO100      0.0000 
     10 CM6        53.2980   21.4380   10.0390 C.3       1 0DO100      0.0000 
     11 O1         50.5640   21.9530    5.3520 O.2       1 0DO100      0.0000 
     12 O1'        52.0310   23.2320    8.2970 O.3       1 0DO100      0.0000 
     13 N          51.8320   23.8140    5.7720 N.am      1 0DO100      0.0000 
     14 CA         51.8550   24.1220    4.3450 C.3       1 0DO100      0.0000 
     15 C          53.2910   23.9880    3.8410 C.3       1 0DO100      0.0000 
     16 OXT        54.0460   25.1400    4.1170 O.3       1 0DO100      0.0000 
     17 CB         51.1290   25.4530    4.0720 C.3       1 0DO100      0.0000 
     18 CG         49.7000   25.5220    4.6140 C.ar      1 0DO100      0.0000 
     19 CD1        48.5980   25.0420    3.8910 C.ar      1 0DO100      0.0000 
     20 CD2        49.4250   26.0910    5.8610 C.ar      1 0DO100      0.0000 
     21 CE1        47.2950   25.1260    4.3990 C.ar      1 0DO100      0.0000 
     22 CE2        48.1260   26.2070    6.3730 C.ar      1 0DO100      0.0000 
     23 CZ         47.0520   25.6940    5.6490 C.ar      1 0DO100      0.0000 
     24 CM         53.5280   23.7020    2.3730 C.3       1 0DO100      0.0000 
     25 N1         53.3200   22.3030    2.2360 N.4       1 0DO100      0.0000 
     26 C21        52.8000   21.8460    0.9150 C.3       1 0DO100      0.0000 
     27 C3         52.7210   20.3510    0.9320 C.3       1 0DO100      0.0000 
     28 C4         53.8730   19.6370    1.5380 C.3       1 0DO100      0.0000 
     29 C5         54.0400   20.1140    2.9080 C.3       1 0DO100      0.0000 
     30 C6         54.4860   21.5480    2.7080 C.3       1 0DO100      0.0000 
     31 C7         51.4940   22.4250    0.4390 C.2       1 0DO100      0.0000 
     32 O          50.4700   22.2930    1.1750 O.2       1 0DO100      0.0000 
     33 N11        52.4810   16.2210   -2.6200 N.ar      1 0DO100      0.0000 
     34 C22        53.5640   17.0150   -2.4900 C.ar      1 0DO100      0.0000 
     35 C31        53.8810   17.5600   -1.2280 C.ar      1 0DO100      0.0000 
     36 C41        53.0890   17.2690   -0.1380 C.ar      1 0DO100      0.0000 
     37 C51        51.9870   16.4390   -0.3170 C.ar      1 0DO100      0.0000 
     38 C61        51.7110   15.9250   -1.5840 C.ar      1 0DO100      0.0000 
     39 S          53.4470   17.9190    1.3870 S.o2      1 0DO100      0.0000 
     40 O1S        52.2630   17.5810    2.0750 O.2       1 0DO100      0.0000 
     41 O2S        54.2500   17.1960    2.2840 O.2       1 0DO100      0.0000 
     42 N2         51.6590   22.9310   -0.8410 N.am      1 0DO100      0.0000 
     43 C1'1       50.6210   23.5830   -1.5330 C.3       1 0DO100      0.0000 
     44 C2'1       51.0970   24.0740   -2.9210 C.3       1 0DO100      0.0000 
     45 C3'1       50.1750   24.8210   -0.7520 C.3       1 0DO100      0.0000 
     46 C4'1       49.4350   22.6290   -1.7240 C.3       1 0DO100      0.0000 
     47 H          51.4077   21.3100    7.7380 H         1 0DO100      0.0000 
     48 H          50.0992   22.4785    7.9881 H         1 0DO100      0.0000 
     49 H          50.3538   25.5900   11.7407 H         1 0DO100      0.0000 
     50 H          51.4011   24.1014   13.3512 H         1 0DO100      0.0000 
     51 H          52.7773   22.2679   12.5744 H         1 0DO100      0.0000 
     52 H          52.3111   24.4190    6.4056 H         1 0DO100      0.0000 
     53 H          51.2599   23.3200    3.8331 H         1 0DO100      0.0000 
     54 H          53.7634   23.1368    4.4032 H         1 0DO100      0.0000 
     55 H          51.1086   25.6253    2.9821 H         1 0DO100      0.0000 
     56 H          51.7207   26.2733    4.5135 H         1 0DO100      0.0000 
     57 H          48.7518   24.6157    2.9600 H         1 0DO100      0.0000 
     58 H          50.2219   26.4455    6.4372 H         1 0DO100      0.0000 
     59 H          46.5084   24.7627    3.8396 H         1 0DO100      0.0000 
     60 H          47.9707   26.6667    7.2742 H         1 0DO100      0.0000 
     61 H          46.1062   25.7329    6.0255 H         1 0DO100      0.0000 
     62 H          54.5385   23.9904    2.1285 H         1 0DO100      0.0000 
     63 H          52.8221   24.2782    1.7953 H         1 0DO100      0.0000 
     64 H          52.4782   22.0304    2.9941 H         1 0DO100      0.0000 
     65 H          53.5780   22.0929    0.1442 H         1 0DO100      0.0000 
     66 H          52.5766   19.9885   -0.1190 H         1 0DO100      0.0000 
     67 H          51.7814   20.0485    1.4635 H         1 0DO100      0.0000 
     68 H          54.7267   19.7317    0.9262 H         1 0DO100      0.0000 
     69 H          54.8070   19.5769    3.4162 H         1 0DO100      0.0000 
     70 H          53.1159   20.1059    3.4382 H         1 0DO100      0.0000 
     71 H          54.8431   21.9396    3.6515 H         1 0DO100      0.0000 
     72 H          55.2819   21.5693    1.9751 H         1 0DO100      0.0000 
     73 H          54.1727   17.2384   -3.2896 H         1 0DO100      0.0000 
     74 H          54.7010   18.1691   -1.1368 H         1 0DO100      0.0000 
     75 H          51.3811   16.2058    0.4755 H         1 0DO100      0.0000 
     76 H          50.8786   15.3011   -1.6848 H         1 0DO100      0.0000 
     77 H          52.5819   22.8295   -1.3161 H         1 0DO100      0.0000 
     78 H          51.0943   25.9624    8.5331 H         1 0DO100      0.0000 
     79 H          49.7491   25.0814    8.5580 H         1 0DO100      0.0000 
     80 H          49.9640   26.2518    9.6398 H         1 0DO100      0.0000 
     81 H          54.0580   21.7408    9.4640 H         1 0DO100      0.0000 
     82 H          53.6936   20.9290   10.8035 H         1 0DO100      0.0000 
     83 H          52.7632   20.7878    9.4994 H         1 0DO100      0.0000 
     84 H          51.8572   24.7194   -2.8460 H         1 0DO100      0.0000 
     85 H          51.4102   23.3176   -3.4952 H         1 0DO100      0.0000 
     86 H          50.3663   24.5386   -3.4212 H         1 0DO100      0.0000 
     87 H          50.9229   25.4739   -0.6321 H         1 0DO100      0.0000 
     88 H          49.4341   25.3061   -1.2164 H         1 0DO100      0.0000 
     89 H          49.8432   24.5844    0.1612 H         1 0DO100      0.0000 
     90 H          49.6923   21.8167   -2.2473 H         1 0DO100      0.0000 
     91 H          49.0699   22.3106   -0.8492 H         1 0DO100      0.0000 
     92 H          48.6814   23.0669   -2.2142 H         1 0DO100      0.0000 
     93 H          54.9699   24.8055    4.3026 H         1 0DO100      0.0000 
@<TRIPOS>BOND
     1    2    1 1    
     2   11    1 2    
     3   13    1 am   
     4   12    2 1    
     5   47    2 1    
     6   48    2 1    
     7    4    3 ar   
     8    8    3 ar   
     9   12    3 1    
    10    5    4 ar   
    11    9    4 1    
    12    6    5 ar   
    13   49    5 1    
    14    7    6 ar   
    15   50    6 1    
    16    8    7 ar   
    17   51    7 1    
    18   10    8 1    
    19   78    9 1    
    20   79    9 1    
    21   80    9 1    
    22   81   10 1    
    23   82   10 1    
    24   83   10 1    
    25   14   13 1    
    26   52   13 1    
    27   15   14 1    
    28   17   14 1    
    29   53   14 1    
    30   16   15 1    
    31   24   15 1    
    32   54   15 1    
    33   93   16 1    
    34   18   17 1    
    35   55   17 1    
    36   56   17 1    
    37   19   18 ar   
    38   20   18 ar   
    39   21   19 ar   
    40   57   19 1    
    41   22   20 ar   
    42   58   20 1    
    43   23   21 ar   
    44   59   21 1    
    45   23   22 ar   
    46   60   22 1    
    47   61   23 1    
    48   25   24 1    
    49   62   24 1    
    50   63   24 1    
    51   26   25 1    
    52   30   25 1    
    53   64   25 1    
    54   27   26 1    
    55   31   26 1    
    56   65   26 1    
    57   28   27 1    
    58   66   27 1    
    59   67   27 1    
    60   29   28 1    
    61   39   28 1    
    62   68   28 1    
    63   30   29 1    
    64   69   29 1    
    65   70   29 1    
    66   71   30 1    
    67   72   30 1    
    68   32   31 2    
    69   42   31 am   
    70   34   33 ar   
    71   38   33 ar   
    72   35   34 ar   
    73   73   34 1    
    74   36   35 ar   
    75   74   35 1    
    76   37   36 ar   
    77   39   36 1    
    78   38   37 ar   
    79   75   37 1    
    80   76   38 1    
    81   40   39 2    
    82   41   39 2    
    83   43   42 1    
    84   77   42 1    
    85   44   43 1    
    86   45   43 1    
    87   46   43 1    
    88   84   44 1    
    89   85   44 1    
    90   86   44 1    
    91   87   45 1    
    92   88   45 1    
    93   89   45 1    
    94   90   46 1    
    95   91   46 1    
    96   92   46 1    
@<TRIPOS>SUBSTRUCTURE
     1 0DO100      1 GROUP   
@<TRIPOS>SET

