#    Name: 1z82_NDP_1_INTS_M
#    Modification time : Mon Apr  7 16:54:20 2014

@<TRIPOS>MOLECULE
1z82_NDP_1_INTS_M
   93     0    12     0     0
SMALL
NO_CHARGES


@<TRIPOS>ATOM
      1 N          28.6255   27.5350   11.8985 N.am      2 SEC2        0.0000 
      2 N          29.4640   26.4040   12.3920 N.am     10 SEL2        0.0000 
      3 N          27.7870   28.6660   11.4050 N.am      6 SEP2        0.0000 
      4 N          28.2740   26.6745   12.9275 N.am      2 SEC2        0.0000 
      5 N          27.0840   26.9450   13.4630 N.am      6 SEP2        0.0000 
      6 NZ         31.1995   25.4030   14.4805 N.4       3 LYC4        0.0000 
      7 NZ         31.5990   25.4430   13.2130 N.4      11 LYL4        0.0000 
      8 NZ         31.0810   25.9860   16.8550 N.4       7 LYP4        0.0000 
      9 N          31.1995   25.4030   14.4805 N.am      2 SEC2        0.0000 
     10 N          31.5990   25.4430   13.2130 N.am     10 SEL2        0.0000 
     11 N          30.8000   25.3630   15.7480 N.am      6 SEP2        0.0000 
     12 N          32.5840   24.3805   13.2480 N.am      2 SEC2        0.0000 
     13 N          33.5690   23.3180   13.2830 N.am      6 SEP2        0.0000 
     14 CA         32.0155   23.8890   11.3990 C.3       4 GLC5        0.0000 
     15 CA         32.5640   25.4350   10.2650 C.3      12 GLL5        0.0000 
     16 CA         31.4670   22.3430   12.5330 C.3       8 GLP5        0.0000 
     17 CA         34.2920   24.6105   10.8540 C.3       4 GLC5        0.0000 
     18 CA         36.0200   23.7860   11.4430 C.3       8 GLP5        0.0000 
     19 CA         29.9795   25.1235    7.9810 C.3       4 GLC5        0.0000 
     20 CA         31.7610   25.9980    7.8950 C.3      12 GLL5        0.0000 
     21 CA         28.1980   24.2490    8.0670 C.3       8 GLP5        0.0000 
     22 CA         34.9740   27.3555    8.2095 C.3       4 GLC5        0.0000 
     23 CA         33.8700   26.2280    7.0310 C.3      12 GLL5        0.0000 
     24 CA         36.0780   28.4830    9.3880 C.3       8 GLP5        0.0000 
     25 N          29.4580   30.5350   12.6015 N.am      2 SEC2        0.0000 
     26 N          30.8940   30.0070   12.2650 N.am     10 SEL2        0.0000 
     27 N          28.0220   31.0630   12.9380 N.am      6 SEP2        0.0000 
     28 NZ         31.4765   27.7095   15.5325 N.4       3 LYC4        0.0000 
     29 NZ         31.0570   28.3960   14.2590 N.4      11 LYL4        0.0000 
     30 N          31.4765   27.7095   15.5325 N.am      2 SEC2        0.0000 
     31 N          31.0570   28.3960   14.2590 N.am     10 SEL2        0.0000 
     32 N          31.8960   27.0230   16.8060 N.am      6 SEP2        0.0000 
     33 CA         34.9685   28.8745   11.4635 C.3       4 GLC5        0.0000 
     34 CA         33.8650   30.3110   12.4670 C.3      12 GLL5        0.0000 
     35 CA         36.0720   27.4380   10.4600 C.3       8 GLP5        0.0000 
     36 CA         36.5440   29.6370   12.7995 C.3       4 GLC5        0.0000 
     37 CA         35.3720   30.2750   14.5020 C.3      12 GLL5        0.0000 
     38 CA         37.7160   28.9990   11.0970 C.3       8 GLP5        0.0000 
     39 N          37.3115   31.8390   15.5245 N.am      2 SEC2        0.0000 
     40 N          36.6730   30.7880   14.7430 N.am     10 SEL2        0.0000 
     41 N          37.9500   32.8900   16.3060 N.am      6 SEP2        0.0000 
     42 O          37.5460   29.9005   14.5435 O.2       1 ALC1        0.0000 
     43 O          36.6730   30.7880   14.7430 O.2       9 ALL1        0.0000 
     44 O          38.4190   29.0130   14.3440 O.2       5 ALP1        0.0000 
     45 CA         32.3510   33.0280   15.4900 C.3       4 GLC5        0.0000 
     46 CA         33.8290   31.6310   15.7960 C.3      12 GLL5        0.0000 
     47 CA         30.8730   34.4250   15.1840 C.3       8 GLP5        0.0000 
     48 CA         35.4135   32.8455   15.0930 C.3       4 GLC5        0.0000 
     49 CA         36.9980   34.0600   14.3900 C.3       8 GLP5        0.0000 
     50 NZ         28.9805   23.4020    4.3800 N.4       3 LYC4        0.0000 
     51 NZ         29.8220   24.3260    5.1720 N.4      11 LYL4        0.0000 
     52 NZ         28.5800   22.1750    2.3740 N.4       7 LYP4        0.0000 
     53 N          28.9805   23.4020    4.3800 N.am      2 SEC2        0.0000 
     54 N          29.8220   24.3260    5.1720 N.am     10 SEL2        0.0000 
     55 N          28.1390   22.4780    3.5880 N.am      6 SEP2        0.0000 
     56 N          29.4975   23.9065    6.3225 N.am      2 SEC2        0.0000 
     57 N          29.1730   23.4870    7.4730 N.am      6 SEP2        0.0000 
     58 NZ         32.8995   22.6885    4.2890 N.4       3 LYC4        0.0000 
     59 NZ         31.8370   22.8900    5.2750 N.4      11 LYL4        0.0000 
     60 NZ         34.6240   23.3240    2.5180 N.4       7 LYP4        0.0000 
     61 N          32.8995   22.6885    4.2890 N.am      2 SEC2        0.0000 
     62 N          31.8370   22.8900    5.2750 N.am     10 SEL2        0.0000 
     63 N          33.9620   22.4870    3.3030 N.am      6 SEP2        0.0000 
     64 NZ         32.7625   23.5125    3.3320 N.4       3 LYC4        0.0000 
     65 NZ         31.5630   24.5380    3.3610 N.4      11 LYL4        0.0000 
     66 NZ         30.6630   23.5905    2.6650 N.4       3 LYC4        0.0000 
     67 N          32.7625   23.5125    3.3320 N.am      2 SEC2        0.0000 
     68 N          31.5630   24.5380    3.3610 N.am     10 SEL2        0.0000 
     69 N          32.9450   24.5815    2.9590 N.am      2 SEC2        0.0000 
     70 N          34.3270   24.6250    2.5570 N.am      6 SEP2        0.0000 
     71 N          30.6630   23.5905    2.6650 N.am      2 SEC2        0.0000 
     72 N          29.7630   22.6430    1.9690 N.am      6 SEP2        0.0000 
     73 CA         34.3657   26.6515   10.0505 C.3       4 GLC5        0.0000 
     74 CA         32.7550   26.2950    9.0170 C.3      12 GLL5        0.0000 
     75 CA         30.5860   27.3642    8.8600 C.3       4 GLC5        0.0000 
     76 CA         28.9140   28.5820    9.2640 C.3       8 GLP5        0.0000 
     77 CA         38.7125   26.2538    5.6537 C.3       4 GLC5        0.0000 
     78 CA         36.7840   25.3980    4.9940 C.3      12 GLL5        0.0000 
     79 CA         40.1730   27.5660    6.4880 C.3       8 GLP5        0.0000 
     80 CA         35.7570   25.3316    3.5834 C.3       4 GLC5        0.0000 
     81 CA         34.9760   25.6660    1.7800 C.3       8 GLP5        0.0000 
     82 CA         35.9748   32.3868   14.2178 C.3       4 GLC5        0.0000 
     83 CA         34.5310   31.1520   13.5890 C.3      12 GLL5        0.0000 
     84 CA         36.3180   28.9322   15.6370 C.3       4 GLC5        0.0000 
     85 CA         37.6860   27.5880   16.1340 C.3       8 GLP5        0.0000 
     86 CA         30.2645   31.6845   15.6553 C.3       4 GLC5        0.0000 
     87 CA         31.6160   30.7870   16.6460 C.3      12 GLL5        0.0000 
     88 CA         29.4650   32.5300   14.2490 C.3       8 GLP5        0.0000 
     89 CA         33.2627   33.6947   19.0140 C.3       4 GLC5        0.0000 
     90 CA         31.3590   33.1030   18.2100 C.3      12 GLL5        0.0000 
     91 CA         34.6040   34.4220   20.1960 C.3       8 GLP5        0.0000 
     92 CA         30.5484   32.6334   16.0401 C.3       4 GLC5        0.0000 
     93 CA         32.4840   32.8320   17.4540 C.3      12 GLL5        0.0000 
@<TRIPOS>BOND
@<TRIPOS>SUBSTRUCTURE
     1 ALC1       42 GROUP        1 X    ALC  0     ROOT ALC X 1
     2 SEC2        1 GROUP        1 X    SEC  0     **** SEC X 2
     3 LYC4        6 GROUP        1 X    LYC  0     **** LYC X 4
     4 GLC5       14 GROUP        1 X    GLC  0     **** GLC X 6
     5 ALP1       44 GROUP        1 Y    ALP  0     ROOT ALP Y 8
     6 SEP2        3 GROUP        1 Y    SEP  0     **** SEP Y 9
     7 LYP4        8 GROUP        1 Y    LYP  0     **** LYP Y 11
     8 GLP5       16 GROUP        1 Y    GLP  0     **** GLP Y 13
     9 ALL1       43 GROUP        1 Z    ALL  0     ROOT ALL Z 15
    10 SEL2        2 GROUP        1 Z    SEL  0     **** SEL Z 16
    11 LYL4        7 GROUP        1 Z    LYL  0     **** LYL Z 18
    12 GLL5       15 GROUP        1 Z    GLL  0     **** GLL Z 20
@<TRIPOS>SET

