#    Name: 1z82_NDP_1_ligand
#    Modification time : Mon Apr  7 16:54:20 2014

@<TRIPOS>MOLECULE
1z82_NDP_1_ligand
   74    78     1     0     0
SMALL
NO_CHARGES


@<TRIPOS>ATOM
      1 PA         30.9200   26.2210   12.1700 P.3       1 NDP500      0.0000 
      2 O1A        29.4640   26.4040   12.3920 O.co2     1 NDP500      0.0000 
      3 O2A        31.5990   25.4430   13.2130 O.co2     1 NDP500      0.0000 
      4 O5B        31.2290   25.5260   10.7530 O.3       1 NDP500      0.0000 
      5 C5B        32.5640   25.4350   10.2650 C.3       1 NDP500      0.0000 
      6 C4B        32.7550   26.2950    9.0170 C.3       1 NDP500      0.0000 
      7 O4B        34.0510   26.1080    8.4370 O.3       1 NDP500      0.0000 
      8 C3B        31.7610   25.9980    7.8950 C.3       1 NDP500      0.0000 
      9 O3B        31.2080   27.2100    7.3820 O.3       1 NDP500      0.0000 
     10 C2B        32.6520   25.3380    6.8540 C.3       1 NDP500      0.0000 
     11 O2B        32.1240   25.4240    5.5520 O.3       1 NDP500      0.0000 
     12 C1B        33.8700   26.2280    7.0310 C.3       1 NDP500      0.0000 
     13 N9A        35.0400   26.0970    6.0920 N.pl3     1 NDP500      0.0000 
     14 C8A        35.5470   27.1020    5.2410 C.2       1 NDP500      0.0000 
     15 N7A        36.6230   26.6650    4.5350 N.2       1 NDP500      0.0000 
     16 C5A        36.7840   25.3980    4.9940 C.ar      1 NDP500      0.0000 
     17 C6A        37.7200   24.4850    4.6450 C.ar      1 NDP500      0.0000 
     18 N6A        38.7360   24.8900    3.9200 N.pl3     1 NDP500      0.0000 
     19 N1A        37.6580   23.2440    5.2820 N.ar      1 NDP500      0.0000 
     20 C2A        36.6740   22.9540    6.2340 C.ar      1 NDP500      0.0000 
     21 N3A        35.7340   23.8990    6.5890 N.ar      1 NDP500      0.0000 
     22 C4A        35.8240   25.0530    5.9540 C.ar      1 NDP500      0.0000 
     23 O3         31.7320   27.6060   11.9970 O.3       1 NDP500      0.0000 
     24 PN         31.5820   28.8950   12.9830 P.3       1 NDP500      0.0000 
     25 O1N        30.8940   30.0070   12.2650 O.co2     1 NDP500      0.0000 
     26 O2N        31.0570   28.3960   14.2590 O.co2     1 NDP500      0.0000 
     27 O5D        33.1960   29.1820   13.0040 O.3       1 NDP500      0.0000 
     28 C5D        33.8650   30.3110   12.4670 C.3       1 NDP500      0.0000 
     29 C4D        34.5310   31.1520   13.5890 C.3       1 NDP500      0.0000 
     30 O4D        33.5580   31.7970   14.4190 O.3       1 NDP500      0.0000 
     31 C3D        35.3720   30.2750   14.5020 C.3       1 NDP500      0.0000 
     32 O3D        36.6730   30.7880   14.7430 O.3       1 NDP500      0.0000 
     33 C2D        34.5280   30.2780   15.7780 C.3       1 NDP500      0.0000 
     34 O2D        35.2870   30.0400   16.9360 O.3       1 NDP500      0.0000 
     35 C1D        33.8290   31.6310   15.7960 C.3       1 NDP500      0.0000 
     36 N1N        32.6300   31.7090   16.7000 N.pl3     1 NDP500      0.0000 
     37 C2N        31.6160   30.7870   16.6460 C.2       1 NDP500      0.0000 
     38 C3N        30.5120   30.8910   17.4770 C.2       1 NDP500      0.0000 
     39 C7N        29.4000   29.9180   17.3850 C.2       1 NDP500      0.0000 
     40 O7N        29.2700   28.9570   16.3560 O.2       1 NDP500      0.0000 
     41 N7N        28.5190   29.9410   18.3570 N.am      1 NDP500      0.0000 
     42 C4N        30.2000   32.1800   18.2070 C.3       1 NDP500      0.0000 
     43 C5N        31.3590   33.1030   18.2100 C.2       1 NDP500      0.0000 
     44 C6N        32.4840   32.8320   17.4540 C.2       1 NDP500      0.0000 
     45 P2B        31.3010   24.2250    4.8280 P.3       1 NDP500      0.0000 
     46 O1X        29.8220   24.3260    5.1720 O.co2     1 NDP500      0.0000 
     47 O2X        31.8370   22.8900    5.2750 O.co2     1 NDP500      0.0000 
     48 O3X        31.5630   24.5380    3.3610 O.co2     1 NDP500      0.0000 
     49 H          32.8309   24.3989    9.9988 H         1 NDP500      0.0000 
     50 H          33.2966   25.7725   11.0167 H         1 NDP500      0.0000 
     51 H          32.6279   27.3442    9.2898 H         1 NDP500      0.0000 
     52 H          31.0620   25.3024    8.2375 H         1 NDP500      0.0000 
     53 H          32.8992   24.3791    7.1968 H         1 NDP500      0.0000 
     54 H          33.4207   27.2884    6.8832 H         1 NDP500      0.0000 
     55 H          35.1542   27.9909    5.1865 H         1 NDP500      0.0000 
     56 H          38.7366   25.8568    3.6645 H         1 NDP500      0.0000 
     57 H          39.4168   24.1948    3.6893 H         1 NDP500      0.0000 
     58 H          36.6589   22.0169    6.6717 H         1 NDP500      0.0000 
     59 H          33.1805   30.9834   11.9275 H         1 NDP500      0.0000 
     60 H          34.6633   30.0271   11.7641 H         1 NDP500      0.0000 
     61 H          35.1848   31.8754   13.1273 H         1 NDP500      0.0000 
     62 H          35.3527   29.2827   14.1152 H         1 NDP500      0.0000 
     63 H          33.7458   29.5261   15.6306 H         1 NDP500      0.0000 
     64 H          34.5861   32.3556   16.1045 H         1 NDP500      0.0000 
     65 H          31.6706   29.9963   15.9739 H         1 NDP500      0.0000 
     66 H          27.7540   29.3024   18.2727 H         1 NDP500      0.0000 
     67 H          28.6930   30.5950   19.0932 H         1 NDP500      0.0000 
     68 H          29.9071   31.9398   19.2390 H         1 NDP500      0.0000 
     69 H          29.3373   32.6601   17.7235 H         1 NDP500      0.0000 
     70 H          31.2838   33.9392   18.7926 H         1 NDP500      0.0000 
     71 H          33.2697   33.5424   17.4685 H         1 NDP500      0.0000 
     72 H          31.0609   27.0355    6.4084 H         1 NDP500      0.0000 
     73 H          37.2066   30.0027   15.0571 H         1 NDP500      0.0000 
     74 H          34.6190   29.9979   17.6790 H         1 NDP500      0.0000 
@<TRIPOS>BOND
     1    2    1 ar   
     2    3    1 ar   
     3    4    1 1    
     4   23    1 1    
     5    5    4 1    
     6    6    5 1    
     7   49    5 1    
     8   50    5 1    
     9    7    6 1    
    10    8    6 1    
    11   51    6 1    
    12   12    7 1    
    13    9    8 1    
    14   10    8 1    
    15   52    8 1    
    16   72    9 1    
    17   11   10 1    
    18   12   10 1    
    19   53   10 1    
    20   45   11 1    
    21   13   12 1    
    22   54   12 1    
    23   14   13 1    
    24   22   13 1    
    25   15   14 2    
    26   55   14 1    
    27   16   15 1    
    28   17   16 ar   
    29   22   16 ar   
    30   18   17 1    
    31   19   17 ar   
    32   56   18 1    
    33   57   18 1    
    34   20   19 ar   
    35   21   20 ar   
    36   58   20 1    
    37   22   21 ar   
    38   24   23 1    
    39   25   24 ar   
    40   26   24 ar   
    41   27   24 1    
    42   28   27 1    
    43   29   28 1    
    44   59   28 1    
    45   60   28 1    
    46   30   29 1    
    47   31   29 1    
    48   61   29 1    
    49   35   30 1    
    50   32   31 1    
    51   33   31 1    
    52   62   31 1    
    53   73   32 1    
    54   34   33 1    
    55   35   33 1    
    56   63   33 1    
    57   74   34 1    
    58   36   35 1    
    59   64   35 1    
    60   37   36 1    
    61   44   36 1    
    62   38   37 2    
    63   65   37 1    
    64   39   38 1    
    65   42   38 1    
    66   40   39 2    
    67   41   39 am   
    68   66   41 1    
    69   67   41 1    
    70   43   42 1    
    71   68   42 1    
    72   69   42 1    
    73   44   43 2    
    74   70   43 1    
    75   71   44 1    
    76   46   45 ar   
    77   47   45 ar   
    78   48   45 ar   
@<TRIPOS>SUBSTRUCTURE
     1 NDP500      1 GROUP   
@<TRIPOS>SET

