#    Name: 3RTS_1_CAVITY_N1_6.mol2
#    Modification time : Mon Mar 10 21:35:31 2014

@<TRIPOS>MOLECULE
3RTS_1_CAVITY_N1_6.mol2
   74     0     6     0     0
SMALL
NO_CHARGES


@<TRIPOS>ATOM
      1 N           2.6867   -7.4326    2.2589 N.2       1 ALA2        0.0000 
      2 CA         -0.6331   -6.9606    2.1810 C.3       5 GLY6        0.0000 
      3 N           3.2105   -3.8294    1.7662 N.2       1 ALA2        0.0000 
      4 N           2.2814   -5.4248    2.8109 N.2       1 ALA2        0.0000 
      5 DU          1.7942   -4.2039    2.0885 H         6 CUB7        0.0000 
      6 N           1.8395   -8.2412    4.5781 N.2       1 ALA2        0.0000 
      7 N           1.3523   -7.0203    3.8556 N.2       1 ALA2        0.0000 
      8 CA          0.8651   -5.7993    3.1332 C.3       5 GLY6        0.0000 
      9 CA          0.3779   -4.5784    2.4107 C.3       5 GLY6        0.0000 
     10 N          -0.0640   -7.3948    4.1779 N.2       1 ALA2        0.0000 
     11 CA         -0.5512   -6.1738    3.4554 C.3       5 GLY6        0.0000 
     12 CA         10.9518  -10.4657    7.1311 C.3       5 GLY6        0.0000 
     13 N          10.4646   -9.2448    6.4086 N.2       1 ALA2        0.0000 
     14 N           3.7796   -4.2635    3.7631 N.2       1 ALA2        0.0000 
     15 N           3.2924   -3.0426    3.0407 N.2       1 ALA2        0.0000 
     16 N           3.3378   -7.0799    5.5303 N.2       1 ALA2        0.0000 
     17 N           2.8505   -5.8590    4.8078 N.2       1 ALA2        0.0000 
     18 N           2.3633   -4.6380    4.0854 N.2       1 ALA2        0.0000 
     19 OD1         1.8761   -3.4171    3.3629 O.3       2 ASP3        0.0000 
     20 OD1         1.3889   -2.1962    2.6405 O.3       2 ASP3        0.0000 
     21 CA          1.9214   -7.4544    5.8525 C.3       5 GLY6        0.0000 
     22 O           1.4342   -6.2335    5.1301 O.2       1 ALA2        0.0000 
     23 N           0.9470   -5.0125    4.4076 N.2       1 ALA2        0.0000 
     24 CA          0.4598   -3.7916    3.6852 C.3       5 GLY6        0.0000 
     25 CA         -0.0274   -2.5706    2.9628 C.3       5 GLY6        0.0000 
     26 O          -0.4693   -5.3870    4.7299 O.2       1 ALA2        0.0000 
     27 CA         -0.9565   -4.1661    4.0074 C.3       5 GLY6        0.0000 
     28 N          11.0337   -9.6789    8.4055 N.2       1 ALA2        0.0000 
     29 N          10.5465   -8.4580    7.6831 N.2       1 ALA2        0.0000 
     30 N           9.6174  -10.0534    8.7278 N.2       1 ALA2        0.0000 
     31 N           9.1302   -8.8325    8.0053 N.2       1 ALA2        0.0000 
     32 N           8.6430   -7.6115    7.2829 N.2       1 ALA2        0.0000 
     33 O           7.7139   -9.2070    8.3276 O.2       1 ALA2        0.0000 
     34 N           7.2267   -7.9860    7.6051 N.2       1 ALA2        0.0000 
     35 N           6.7395   -6.7651    6.8827 N.2       1 ALA2        0.0000 
     36 O           5.3232   -7.1396    7.2049 O.2       1 ALA2        0.0000 
     37 N           4.8360   -5.9186    6.4825 N.2       1 ALA2        0.0000 
     38 N           4.3488   -4.6977    5.7600 N.2       1 ALA2        0.0000 
     39 CA          3.9069   -7.5141    7.5272 C.3       5 GLY6        0.0000 
     40 N           3.4197   -6.2931    6.8047 N.2       1 ALA2        0.0000 
     41 N           2.9325   -5.0722    6.0823 N.2       1 ALA2        0.0000 
     42 OD1         2.4453   -3.8512    5.3598 O.3       2 ASP3        0.0000 
     43 OD1         1.9580   -2.6303    4.6374 O.3       2 ASP3        0.0000 
     44 CA          2.0034   -6.6676    7.1270 C.3       5 GLY6        0.0000 
     45 CA          1.5162   -5.4467    6.4045 C.3       5 GLY6        0.0000 
     46 N           1.0290   -4.2257    5.6821 N.2       1 ALA2        0.0000 
     47 O           0.0999   -5.8212    6.7268 O.2       1 ALA2        0.0000 
     48 DU         11.1157   -8.8921    9.6800 H         6 CUB7        0.0000 
     49 CA         10.6285   -7.6712    8.9575 C.3       5 GLY6        0.0000 
     50 N           9.6994   -9.2666   10.0022 N.2       1 ALA2        0.0000 
     51 N           9.2122   -8.0457    9.2798 N.2       1 ALA2        0.0000 
     52 O           7.7959   -8.4202    9.6020 O.2       1 ALA2        0.0000 
     53 N           7.3086   -7.1992    8.8796 N.2       1 ALA2        0.0000 
     54 O           6.8214   -5.9783    8.1571 O.2       1 ALA2        0.0000 
     55 CZ          6.3795   -8.7946    9.9243 C.ar      4 PHE5        0.0000 
     56 CZ          5.8923   -7.5737    9.2018 C.ar      4 PHE5        0.0000 
     57 CA          5.4051   -6.3528    8.4794 C.3       5 GLY6        0.0000 
     58 CA          4.9179   -5.1318    7.7569 C.3       5 GLY6        0.0000 
     59 CA          3.9888   -6.7273    8.8016 C.3       5 GLY6        0.0000 
     60 CA          3.5016   -5.5063    8.0792 C.3       5 GLY6        0.0000 
     61 CA          3.0144   -4.2854    7.3567 C.3       5 GLY6        0.0000 
     62 CA          2.5725   -7.1017    9.1239 C.3       5 GLY6        0.0000 
     63 CA          2.0853   -5.8808    8.4014 C.3       5 GLY6        0.0000 
     64 NZ          1.5981   -4.6599    7.6790 N.2       3 LYS4        0.0000 
     65 CA         11.1976   -8.1053   10.9544 C.3       5 GLY6        0.0000 
     66 CA          9.7813   -8.4798   11.2767 C.3       5 GLY6        0.0000 
     67 CA          9.2941   -7.2589   10.5542 C.3       5 GLY6        0.0000 
     68 CA          8.3650   -8.8543   11.5989 C.3       5 GLY6        0.0000 
     69 N           7.8778   -7.6333   10.8765 N.2       1 ALA2        0.0000 
     70 N           7.3906   -6.4124   10.1540 N.2       1 ALA2        0.0000 
     71 CA          6.4615   -8.0078   11.1987 C.3       5 GLY6        0.0000 
     72 N           5.9743   -6.7869   10.4763 N.2       1 ALA2        0.0000 
     73 CA          4.0708   -5.9404   10.0761 C.3       5 GLY6        0.0000 
     74 CA          3.5835   -4.7195    9.3536 C.3       5 GLY6        0.0000 
@<TRIPOS>BOND
@<TRIPOS>SUBSTRUCTURE
     1 ALA2        1 GROUP   
     2 ASP3       19 GROUP   
     3 LYS4       64 GROUP   
     4 PHE5       55 GROUP   
     5 GLY6        2 GROUP   
     6 CUB7        5 GROUP   
@<TRIPOS>SET

