#    Name: 3rts_KLG_1_INTS_M
#    Modification time : Mon Apr  7 20:35:35 2014

@<TRIPOS>MOLECULE
3rts_KLG_1_INTS_M
   47     0    12     0     0
SMALL
NO_CHARGES


@<TRIPOS>ATOM
      1 Zn          3.4955   -1.9990    4.4275 Zn        3 ZIC7        0.0000 
      2 Zn          2.7750   -2.6060    3.8310 Zn       11 ZIL7        0.0000 
      3 Zn          4.2160   -1.3920    5.0240 Zn        7 ZIP7        0.0000 
      4 O           0.1270   -2.2575    6.0455 O.2       1 ALC1        0.0000 
      5 O           1.2640   -2.0380    5.4060 O.2       9 ALL1        0.0000 
      6 O          -1.0100   -2.4770    6.6850 O.2       5 ALP1        0.0000 
      7 Zn          3.2045   -1.3260    5.5490 Zn        3 ZIC7        0.0000 
      8 Zn          2.1930   -1.2600    6.0740 Zn       11 ZIL7        0.0000 
      9 O           2.0770   -1.6260    7.3535 O.2       1 ALC1        0.0000 
     10 O           2.1930   -1.2600    6.0740 O.2       9 ALL1        0.0000 
     11 O           1.9610   -1.9920    8.6330 O.2       5 ALP1        0.0000 
     12 O           1.7640   -0.5875    7.4700 O.2       1 ALC1        0.0000 
     13 O           1.3350    0.0850    8.8660 O.2       5 ALP1        0.0000 
     14 CA         -0.8780   -4.1200    2.6760 C.3       4 GLC5        0.0000 
     15 CA          0.5750   -3.4740    3.6340 C.3      12 GLL5        0.0000 
     16 CA         -2.3310   -4.7660    1.7180 C.3       8 GLP5        0.0000 
     17 Zn          2.6010   -3.1245    4.2745 Zn        3 ZIC7        0.0000 
     18 Zn          0.9860   -4.8570    3.5250 Zn       11 ZIL7        0.0000 
     19 N          -0.9260   -6.1445    5.9845 N.am      2 SEC2        0.0000 
     20 N           0.4000   -5.4900    5.5550 N.am     10 SEL2        0.0000 
     21 N          -2.2520   -6.7990    6.4140 N.am      6 SEP2        0.0000 
     22 CA          3.8135   -3.9000    6.7425 C.3       4 GLC5        0.0000 
     23 CA          2.5660   -5.3750    5.8380 C.3      12 GLL5        0.0000 
     24 CA          5.0610   -2.4250    7.6470 C.3       8 GLP5        0.0000 
     25 CA          1.7265   -7.8715    7.5170 C.3       4 GLC5        0.0000 
     26 CA          2.7360   -6.3550    7.0060 C.3      12 GLL5        0.0000 
     27 CA          0.7170   -9.3880    8.0280 C.3       8 GLP5        0.0000 
     28 CA          5.7530   -7.6925    5.1425 C.3       4 GLC5        0.0000 
     29 CA          5.2550   -6.3210    6.7680 C.3      12 GLL5        0.0000 
     30 CA          6.2510   -9.0640    3.5170 C.3       8 GLP5        0.0000 
     31 CA          2.8945   -6.0100   10.1510 C.3       4 GLC5        0.0000 
     32 CA          4.2730   -6.6200    8.9670 C.3      12 GLL5        0.0000 
     33 CA          1.5160   -5.4000   11.3350 C.3       8 GLP5        0.0000 
     34 CA          4.5880   -6.1205   11.1155 C.3       4 GLC5        0.0000 
     35 CA          5.5350   -6.7100    9.5430 C.3      12 GLL5        0.0000 
     36 CA          3.6410   -5.5310   12.6880 C.3       8 GLP5        0.0000 
     37 CA          5.6408   -8.2650    7.0633 C.3       4 GLC5        0.0000 
     38 CA          5.3970  -10.1590    7.0750 C.3       8 GLP5        0.0000 
     39 CA          5.8381   -4.6781    7.8086 C.3       4 GLC5        0.0000 
     40 CA          6.5140   -6.4210    7.3350 C.3      12 GLL5        0.0000 
     41 CA          6.0730   -2.9630    8.3610 C.3       8 GLP5        0.0000 
     42 CA          3.9200   -8.3606    7.9129 C.3       4 GLC5        0.0000 
     43 CA          3.9870  -10.2200    7.6940 C.3       8 GLP5        0.0000 
     44 CA          5.7458   -8.4103    8.1030 C.3       4 GLC5        0.0000 
     45 CA          6.0020   -4.9150    9.4100 C.3       4 GLC5        0.0000 
     46 CA          6.6540   -6.6130    8.7190 C.3      12 GLL5        0.0000 
     47 CA          6.2250   -3.1910    9.8330 C.3       8 GLP5        0.0000 
@<TRIPOS>BOND
@<TRIPOS>SUBSTRUCTURE
     1 ALC1        4 GROUP        1 X    ALC  0     ROOT ALC X 1
     2 SEC2       19 GROUP        1 X    SEC  0     **** SEC X 2
     3 ZIC7        1 GROUP        1 X    ZIC  0     **** ZIC X 5
     4 GLC5       14 GROUP        1 X    GLC  0     **** GLC X 6
     5 ALP1        6 GROUP        1 Y    ALP  0     ROOT ALP Y 8
     6 SEP2       21 GROUP        1 Y    SEP  0     **** SEP Y 9
     7 ZIP7        3 GROUP        1 Y    ZIP  0     **** ZIP Y 12
     8 GLP5       16 GROUP        1 Y    GLP  0     **** GLP Y 13
     9 ALL1        5 GROUP        1 Z    ALL  0     ROOT ALL Z 15
    10 SEL2       20 GROUP        1 Z    SEL  0     **** SEL Z 16
    11 ZIL7        2 GROUP        1 Z    ZIL  0     **** ZIL Z 19
    12 GLL5       15 GROUP        1 Z    GLL  0     **** GLL Z 20
@<TRIPOS>SET

