#    Name: 3rts_KLG_1_ligand
#    Modification time : Mon Apr  7 20:35:35 2014

@<TRIPOS>MOLECULE
3rts_KLG_1_ligand
   31    31     1     0     0
SMALL
NO_CHARGES


@<TRIPOS>ATOM
      1 O3          2.7750   -2.6060    3.8310 O.2       1 KLG0        0.0000 
      2 C10         1.6380   -2.6540    4.2900 C.2       1 KLG0        0.0000 
      3 N1          1.2640   -2.0380    5.4060 N.am      1 KLG0        0.0000 
      4 O4          2.1930   -1.2600    6.0740 O.3       1 KLG0        0.0000 
      5 C9          0.5750   -3.4740    3.6340 C.3       1 KLG0        0.0000 
      6 N2          0.9860   -4.8570    3.5250 N.pl3     1 KLG0        0.0000 
      7 S1          1.4700   -5.8850    4.6770 S.o2      1 KLG0        0.0000 
      8 O1          0.8880   -7.1380    4.6440 O.2       1 KLG0        0.0000 
      9 O2          0.4000   -5.4900    5.5550 O.2       1 KLG0        0.0000 
     10 C8          2.5660   -5.3750    5.8380 C.3       1 KLG0        0.0000 
     11 C7          2.7360   -6.3550    7.0060 C.3       1 KLG0        0.0000 
     12 C6          4.1300   -6.4100    7.5870 C.ar      1 KLG0        0.0000 
     13 C3          5.2550   -6.3210    6.7680 C.ar      1 KLG0        0.0000 
     14 C1          6.5140   -6.4210    7.3350 C.ar      1 KLG0        0.0000 
     15 C5          4.2730   -6.6200    8.9670 C.ar      1 KLG0        0.0000 
     16 C4          5.5350   -6.7100    9.5430 C.ar      1 KLG0        0.0000 
     17 C2          6.6540   -6.6130    8.7190 C.ar      1 KLG0        0.0000 
     18 H           0.3105   -2.1213    5.7864 H         1 KLG0        0.0000 
     19 H           0.3652   -3.0513    2.6385 H         1 KLG0        0.0000 
     20 H          -0.3520   -3.3893    4.2233 H         1 KLG0        0.0000 
     21 H           0.9907   -5.3197    2.5715 H         1 KLG0        0.0000 
     22 H           2.1978   -4.4124    6.1842 H         1 KLG0        0.0000 
     23 H           3.5046   -5.2287    5.3091 H         1 KLG0        0.0000 
     24 H           2.4434   -7.3650    6.6603 H         1 KLG0        0.0000 
     25 H           2.0184   -6.0781    7.8020 H         1 KLG0        0.0000 
     26 H           5.1465   -6.1833    5.7597 H         1 KLG0        0.0000 
     27 H           7.3562   -6.3555    6.7474 H         1 KLG0        0.0000 
     28 H           3.4306   -6.7076    9.5545 H         1 KLG0        0.0000 
     29 H           5.6408   -6.8442   10.5472 H         1 KLG0        0.0000 
     30 H           7.5993   -6.6825    9.1258 H         1 KLG0        0.0000 
     31 H           2.0990   -1.5142    7.0366 H         1 KLG0        0.0000 
@<TRIPOS>BOND
     1    2    1 2    
     2    3    2 am   
     3    5    2 1    
     4    4    3 1    
     5   18    3 1    
     6   31    4 1    
     7    6    5 1    
     8   19    5 1    
     9   20    5 1    
    10    7    6 1    
    11   21    6 1    
    12    8    7 2    
    13    9    7 2    
    14   10    7 1    
    15   11   10 1    
    16   22   10 1    
    17   23   10 1    
    18   12   11 1    
    19   24   11 1    
    20   25   11 1    
    21   13   12 ar   
    22   15   12 ar   
    23   14   13 ar   
    24   26   13 1    
    25   17   14 ar   
    26   27   14 1    
    27   16   15 ar   
    28   28   15 1    
    29   17   16 ar   
    30   29   16 1    
    31   30   17 1    
@<TRIPOS>SUBSTRUCTURE
     1 KLG0        1 GROUP   
@<TRIPOS>SET

