#    Name: 1dmp_DMQ_1_INTS_M
#    Modification time : Mon Mar 24 22:06:37 2014

@<TRIPOS>MOLECULE
1dmp_DMQ_1_INTS_M
   96     0     9     0     0
SMALL
NO_CHARGES


@<TRIPOS>ATOM
      1 CA         -8.9765   13.5070   26.5020 C.3       3 GLC5        0.0000 
      2 CA         -8.8900   15.3220   27.7390 C.3       9 GLL5        0.0000 
      3 CA         -9.0630   11.6920   25.2650 C.3       6 GLP5        0.0000 
      4 N          -8.5130   12.7725   27.6695 N.am      2 SEC2        0.0000 
      5 N          -8.4080   14.2130   27.6200 N.am      8 SEL2        0.0000 
      6 N          -8.6180   11.3320   27.7190 N.am      5 SEP2        0.0000 
      7 CA         -8.5480   13.6390   25.3750 C.3       3 GLC5        0.0000 
      8 CA         -8.0330   15.5860   25.4850 C.3       9 GLL5        0.0000 
      9 CA         -6.5390   14.6570   25.6645 C.3       3 GLC5        0.0000 
     10 CA         -5.0450   13.7280   25.8440 C.3       6 GLP5        0.0000 
     11 O          -9.6550   20.3310   28.1345 O.2       1 ALC1        0.0000 
     12 O          -9.7860   19.6250   26.9240 O.2       7 ALL1        0.0000 
     13 O          -9.5240   21.0370   29.3450 O.2       4 ALP1        0.0000 
     14 O         -11.7120   20.0850   28.8985 O.2       1 ALC1        0.0000 
     15 O         -11.8230   18.6470   28.5540 O.2       7 ALL1        0.0000 
     16 O         -11.6010   21.5230   29.2430 O.2       4 ALP1        0.0000 
     17 O         -10.6735   19.8420   28.9495 O.2       1 ALC1        0.0000 
     18 CA         -7.4615   14.1860   30.2765 C.3       3 GLC5        0.0000 
     19 CA         -9.4130   14.8750   30.0960 C.3       9 GLL5        0.0000 
     20 CA         -5.5100   13.4970   30.4570 C.3       6 GLP5        0.0000 
     21 CA        -10.2205   17.2970   19.7350 C.3       3 GLC5        0.0000 
     22 CA        -10.0790   16.8490   21.9070 C.3       9 GLL5        0.0000 
     23 CA        -10.3620   17.7450   17.5630 C.3       6 GLP5        0.0000 
     24 O          -8.0710   17.8540   19.5980 O.2       1 ALC1        0.0000 
     25 O          -7.9810   17.6690   20.9750 O.2       7 ALL1        0.0000 
     26 O          -8.1610   18.0390   18.2210 O.2       4 ALP1        0.0000 
     27 CA         -6.1830   21.0360   26.8080 C.3       3 GLC5        0.0000 
     28 CA         -6.0910   19.0880   25.9470 C.3       9 GLL5        0.0000 
     29 CA         -6.2750   22.9840   27.6690 C.3       6 GLP5        0.0000 
     30 CA        -10.5620   12.0130   27.4035 C.3       3 GLC5        0.0000 
     31 CA        -12.1320   13.3120   28.3390 C.3       9 GLL5        0.0000 
     32 CA         -8.9920   10.7140   26.4680 C.3       6 GLP5        0.0000 
     33 CA        -11.5065   17.4920   33.1730 C.3       3 GLC5        0.0000 
     34 CA        -10.4860   15.6970   33.6690 C.3       9 GLL5        0.0000 
     35 CA        -12.5270   19.2870   32.6770 C.3       6 GLP5        0.0000 
     36 O         -11.3375   15.4195   36.1390 O.2       1 ALC1        0.0000 
     37 O         -11.4110   15.2210   34.6490 O.2       7 ALL1        0.0000 
     38 O         -11.2640   15.6180   37.6290 O.2       4 ALP1        0.0000 
     39 CA         -9.7975   17.1655   35.9245 C.3       3 GLC5        0.0000 
     40 CA         -9.5810   16.7250   34.0020 C.3       9 GLL5        0.0000 
     41 CA        -10.0140   17.6060   37.8470 C.3       6 GLP5        0.0000 
     42 CA         -8.1910   19.1185   32.7625 C.3       3 GLC5        0.0000 
     43 CA         -8.6410   17.2010   33.0480 C.3       9 GLL5        0.0000 
     44 CA         -7.7410   21.0360   32.4770 C.3       6 GLP5        0.0000 
     45 CA         -7.1315   18.0070   31.3095 C.3       3 GLC5        0.0000 
     46 CA         -8.6070   16.6220   31.7630 C.3       9 GLL5        0.0000 
     47 CA         -5.6560   19.3920   30.8560 C.3       6 GLP5        0.0000 
     48 CA         -6.7540   15.6490   31.4720 C.3       3 GLC5        0.0000 
     49 CA         -4.9010   14.6760   31.1810 C.3       6 GLP5        0.0000 
     50 CA         -9.1707   13.3120   30.4110 C.3       3 GLC5        0.0000 
     51 CA         -9.5100   15.5830   31.4300 C.3       9 GLL5        0.0000 
     52 CA         -8.8800   11.3950   30.0590 C.3       6 GLP5        0.0000 
     53 CA        -10.9555   17.9253   23.2377 C.3       3 GLC5        0.0000 
     54 CA        -10.1160   15.9180   24.1240 C.3       9 GLL5        0.0000 
     55 CA        -11.4460   19.7280   22.9260 C.3       6 GLP5        0.0000 
     56 CA        -12.0930   15.4438   24.0637 C.3       3 GLC5        0.0000 
     57 CA        -10.8140   16.3270   22.9750 C.3       9 GLL5        0.0000 
     58 CA        -13.7210   14.7650   24.5780 C.3       6 GLP5        0.0000 
     59 CA        -10.3701   14.2995   23.4899 C.3       3 GLC5        0.0000 
     60 CA        -10.6250   12.4550   23.4060 C.3       6 GLP5        0.0000 
     61 CA        -11.2453   15.4330   21.1230 C.3       3 GLC5        0.0000 
     62 CA        -12.0440   14.2780   19.8050 C.3       6 GLP5        0.0000 
     63 CA        -10.4100   18.3160   22.4387 C.3       3 GLC5        0.0000 
     64 CA         -8.4785   15.2360   21.4124 C.3       3 GLC5        0.0000 
     65 CA         -8.2790   13.7620   20.2760 C.3       6 GLP5        0.0000 
     66 CA         -5.7732   17.0233   28.8515 C.3       3 GLC5        0.0000 
     67 CA         -7.5250   18.1310   27.8140 C.3       9 GLL5        0.0000 
     68 CA         -4.6620   15.9120   30.3000 C.3       6 GLP5        0.0000 
     69 CA         -4.3212   19.0512   27.5510 C.3       3 GLC5        0.0000 
     70 CA         -5.2230   17.1850   27.2320 C.3       9 GLL5        0.0000 
     71 CA         -2.9090   20.4410   27.9900 C.3       6 GLP5        0.0000 
     72 CA         -5.8549   18.5259   29.0868 C.3       3 GLC5        0.0000 
     73 CA         -4.8430   15.4547   26.3435 C.3       3 GLC5        0.0000 
     74 CA         -4.6515   16.5468   28.5715 C.3       3 GLC5        0.0000 
     75 CA         -4.0590   17.1780   26.4540 C.3       9 GLL5        0.0000 
     76 CA         -3.4495   19.0445   26.9635 C.3       3 GLC5        0.0000 
     77 CA         -2.6455   16.8569   26.9068 C.3       3 GLC5        0.0000 
     78 CA         -3.9210   18.1180   25.4200 C.3       9 GLL5        0.0000 
     79 CA         -1.0100   16.0640   27.6820 C.3       6 GLP5        0.0000 
     80 CA         -4.2090   19.7612   26.7697 C.3       3 GLC5        0.0000 
     81 CA         -4.9270   19.0750   25.1520 C.3       9 GLL5        0.0000 
     82 CA        -15.3942   12.4365   29.4823 C.3       3 GLC5        0.0000 
     83 CA        -13.7780   13.5480   30.6210 C.3       9 GLL5        0.0000 
     84 CA        -17.2210   11.9590   28.5680 C.3       6 GLP5        0.0000 
     85 CA        -13.6973   10.5272   28.9320 C.3       3 GLC5        0.0000 
     86 CA        -13.3570   12.2800   30.1720 C.3       9 GLL5        0.0000 
     87 CA        -14.4480    8.8410   28.2640 C.3       6 GLP5        0.0000 
     88 CA        -10.6070   12.0623   29.3712 C.3       3 GLC5        0.0000 
     89 CA        -12.5360   12.1470   29.0280 C.3       9 GLL5        0.0000 
     90 CA        -12.9636   14.5171   26.4856 C.3       3 GLC5        0.0000 
     91 CA         -7.5580   17.2425   34.4500 C.3       3 GLC5        0.0000 
     92 CA         -6.0050   17.5220   35.3750 C.3       6 GLP5        0.0000 
     93 CA         -8.3516   15.4035   34.4754 C.3       3 GLC5        0.0000 
     94 CA         -7.3660   14.1010   35.5090 C.3       6 GLP5        0.0000 
     95 CA         -9.9995   18.3543   32.6925 C.3       3 GLC5        0.0000 
     96 CA        -11.1400   19.9160   32.7410 C.3       6 GLP5        0.0000 
@<TRIPOS>BOND
@<TRIPOS>SUBSTRUCTURE
     1 ALC1       11 GROUP        1 X    ALC  0     ROOT ALC X 1
     2 SEC2        4 GROUP        1 X    SEC  0     **** SEC X 2
     3 GLC5        1 GROUP        1 X    GLC  0     **** GLC X 6
     4 ALP1       13 GROUP        1 Y    ALP  0     ROOT ALP Y 8
     5 SEP2        6 GROUP        1 Y    SEP  0     **** SEP Y 9
     6 GLP5        3 GROUP        1 Y    GLP  0     **** GLP Y 13
     7 ALL1       12 GROUP        1 Z    ALL  0     ROOT ALL Z 15
     8 SEL2        5 GROUP        1 Z    SEL  0     **** SEL Z 16
     9 GLL5        2 GROUP        1 Z    GLL  0     **** GLL Z 20
@<TRIPOS>SET

