#    Name: 1dmp_DMQ_1_ligand
#    Modification time : Mon Mar 24 22:06:37 2014

@<TRIPOS>MOLECULE
1dmp_DMQ_1_ligand
   79    83     1     0     0
SMALL
NO_CHARGES


@<TRIPOS>ATOM
      1 C1         -8.8900   15.3220   27.7390 C.3       1 DMQ450      0.0000 
      2 O1         -8.4080   14.2130   27.6200 O.3       1 DMQ450      0.0000 
      3 N2         -8.6090   16.1690   26.7400 N.4       1 DMQ450      0.0000 
      4 C2         -8.0330   15.5860   25.4850 C.3       1 DMQ450      0.0000 
      5 C3         -8.6780   17.6490   26.9140 C.3       1 DMQ450      0.0000 
      6 C4        -10.0180   18.2720   27.1610 C.3       1 DMQ450      0.0000 
      7 O4         -9.7860   19.6250   26.9240 O.3       1 DMQ450      0.0000 
      8 C5        -10.5910   18.0230   28.5350 C.3       1 DMQ450      0.0000 
      9 O5        -11.8230   18.6470   28.5540 O.3       1 DMQ450      0.0000 
     10 C6        -10.8300   16.5590   28.8550 C.3       1 DMQ450      0.0000 
     11 C7         -9.4130   14.8750   30.0960 C.3       1 DMQ450      0.0000 
     12 N7         -9.6360   15.6470   28.8450 N.3       1 DMQ450      0.0000 
     13 C20        -8.7170   16.0040   24.2210 C.ar      1 DMQ450      0.0000 
     14 C21       -10.1160   15.9180   24.1240 C.ar      1 DMQ450      0.0000 
     15 C22       -10.8140   16.3270   22.9750 C.ar      1 DMQ450      0.0000 
     16 C23       -10.0790   16.8490   21.9070 C.ar      1 DMQ450      0.0000 
     17 C28        -8.6690   16.9590   21.9960 C.ar      1 DMQ450      0.0000 
     18 N29        -7.9810   17.6690   20.9750 N.pl3     1 DMQ450      0.0000 
     19 C29        -7.9820   16.5160   23.1460 C.ar      1 DMQ450      0.0000 
     20 C31        -7.5250   18.1310   27.8140 C.3       1 DMQ450      0.0000 
     21 C32        -6.2440   18.1380   26.9920 C.ar      1 DMQ450      0.0000 
     22 C33        -5.2230   17.1850   27.2320 C.ar      1 DMQ450      0.0000 
     23 C34        -4.0590   17.1780   26.4540 C.ar      1 DMQ450      0.0000 
     24 C35        -3.9210   18.1180   25.4200 C.ar      1 DMQ450      0.0000 
     25 C36        -4.9270   19.0750   25.1520 C.ar      1 DMQ450      0.0000 
     26 C37        -6.0910   19.0880   25.9470 C.ar      1 DMQ450      0.0000 
     27 C61       -12.0200   15.8570   28.1040 C.3       1 DMQ450      0.0000 
     28 C62       -12.5410   14.5960   28.7910 C.ar      1 DMQ450      0.0000 
     29 C63       -13.3710   14.7000   29.9260 C.ar      1 DMQ450      0.0000 
     30 C64       -13.7780   13.5480   30.6210 C.ar      1 DMQ450      0.0000 
     31 C65       -13.3570   12.2800   30.1720 C.ar      1 DMQ450      0.0000 
     32 C66       -12.5360   12.1470   29.0280 C.ar      1 DMQ450      0.0000 
     33 C67       -12.1320   13.3120   28.3390 C.ar      1 DMQ450      0.0000 
     34 C70        -9.5100   15.5830   31.4300 C.ar      1 DMQ450      0.0000 
     35 C71       -10.4550   15.1340   32.3800 C.ar      1 DMQ450      0.0000 
     36 C72       -10.4860   15.6970   33.6690 C.ar      1 DMQ450      0.0000 
     37 N79       -11.4110   15.2210   34.6490 N.pl3     1 DMQ450      0.0000 
     38 C77        -9.5810   16.7250   34.0020 C.ar      1 DMQ450      0.0000 
     39 C78        -8.6410   17.2010   33.0480 C.ar      1 DMQ450      0.0000 
     40 C79        -8.6070   16.6220   31.7630 C.ar      1 DMQ450      0.0000 
     41 H         -10.0801   14.9009   27.0470 H         1 DMQ450      0.0000 
     42 H          -9.9038   16.1176   26.2077 H         1 DMQ450      0.0000 
     43 H          -8.0546   14.4752   25.5593 H         1 DMQ450      0.0000 
     44 H          -6.9551   15.8579   25.4216 H         1 DMQ450      0.0000 
     45 H          -8.3448   18.0642   25.8528 H         1 DMQ450      0.0000 
     46 H         -10.7033   17.8768   26.4078 H         1 DMQ450      0.0000 
     47 H          -9.9312   18.4401   29.2717 H         1 DMQ450      0.0000 
     48 H         -11.1937   16.5363   29.9674 H         1 DMQ450      0.0000 
     49 H          -8.3983   14.3748   30.0416 H         1 DMQ450      0.0000 
     50 H         -10.1278   13.9967   30.1166 H         1 DMQ450      0.0000 
     51 H         -10.6529   15.5391   24.9292 H         1 DMQ450      0.0000 
     52 H         -11.8213   16.2444   22.9257 H         1 DMQ450      0.0000 
     53 H         -10.5537   17.1559   21.0523 H         1 DMQ450      0.0000 
     54 H          -7.1170   18.0961   21.2417 H         1 DMQ450      0.0000 
     55 H          -8.4190   17.6815   20.0761 H         1 DMQ450      0.0000 
     56 H          -6.9677   16.5702   23.1878 H         1 DMQ450      0.0000 
     57 H          -7.4212   17.4545   28.6468 H         1 DMQ450      0.0000 
     58 H          -7.7419   19.1282   28.1613 H         1 DMQ450      0.0000 
     59 H          -5.3449   16.4975   27.9840 H         1 DMQ450      0.0000 
     60 H          -3.3203   16.5002   26.6343 H         1 DMQ450      0.0000 
     61 H          -3.0667   18.1138   24.8395 H         1 DMQ450      0.0000 
     62 H          -4.8106   19.7429   24.3967 H         1 DMQ450      0.0000 
     63 H          -6.8237   19.7753   25.7763 H         1 DMQ450      0.0000 
     64 H         -11.6783   15.6096   27.0888 H         1 DMQ450      0.0000 
     65 H         -12.8353   16.5881   28.0075 H         1 DMQ450      0.0000 
     66 H         -13.6795   15.6251   30.2458 H         1 DMQ450      0.0000 
     67 H         -14.3737   13.6272   31.4445 H         1 DMQ450      0.0000 
     68 H         -13.6503   11.4368   30.6829 H         1 DMQ450      0.0000 
     69 H         -12.2432   11.2316   28.7089 H         1 DMQ450      0.0000 
     70 H         -11.5404   13.2351   27.5078 H         1 DMQ450      0.0000 
     71 H         -11.1180   14.3966   32.1268 H         1 DMQ450      0.0000 
     72 H         -12.0437   14.5079   34.3471 H         1 DMQ450      0.0000 
     73 H         -11.3478   15.6410   35.5543 H         1 DMQ450      0.0000 
     74 H          -9.5968   17.1369   34.9403 H         1 DMQ450      0.0000 
     75 H          -8.0025   17.9509   33.2946 H         1 DMQ450      0.0000 
     76 H          -7.9324   16.9498   31.0704 H         1 DMQ450      0.0000 
     77 H          -7.7822   14.9108   27.2713 H         1 DMQ450      0.0000 
     78 H          -9.7429   20.0429   27.8315 H         1 DMQ450      0.0000 
     79 H         -11.6235   19.6076   28.7475 H         1 DMQ450      0.0000 
@<TRIPOS>BOND
     1    2    1 1    
     2    3    1 1    
     3   12    1 1    
     4   41    1 1    
     5   77    2 1    
     6    4    3 1    
     7    5    3 1    
     8   42    3 1    
     9   13    4 1    
    10   43    4 1    
    11   44    4 1    
    12    6    5 1    
    13   20    5 1    
    14   45    5 1    
    15    7    6 1    
    16    8    6 1    
    17   46    6 1    
    18   78    7 1    
    19    9    8 1    
    20   10    8 1    
    21   47    8 1    
    22   79    9 1    
    23   12   10 1    
    24   27   10 1    
    25   48   10 1    
    26   12   11 1    
    27   34   11 1    
    28   49   11 1    
    29   50   11 1    
    30   14   13 ar   
    31   19   13 ar   
    32   15   14 ar   
    33   51   14 1    
    34   16   15 ar   
    35   52   15 1    
    36   17   16 ar   
    37   53   16 1    
    38   18   17 1    
    39   19   17 ar   
    40   54   18 1    
    41   55   18 1    
    42   56   19 1    
    43   21   20 1    
    44   57   20 1    
    45   58   20 1    
    46   22   21 ar   
    47   26   21 ar   
    48   23   22 ar   
    49   59   22 1    
    50   24   23 ar   
    51   60   23 1    
    52   25   24 ar   
    53   61   24 1    
    54   26   25 ar   
    55   62   25 1    
    56   63   26 1    
    57   28   27 1    
    58   64   27 1    
    59   65   27 1    
    60   29   28 ar   
    61   33   28 ar   
    62   30   29 ar   
    63   66   29 1    
    64   31   30 ar   
    65   67   30 1    
    66   32   31 ar   
    67   68   31 1    
    68   33   32 ar   
    69   69   32 1    
    70   70   33 1    
    71   35   34 ar   
    72   40   34 ar   
    73   36   35 ar   
    74   71   35 1    
    75   37   36 1    
    76   38   36 ar   
    77   72   37 1    
    78   73   37 1    
    79   39   38 ar   
    80   74   38 1    
    81   40   39 ar   
    82   75   39 1    
    83   76   40 1    
@<TRIPOS>SUBSTRUCTURE
     1 DMQ450      1 GROUP   
@<TRIPOS>SET

