#    Name: 3pnd_FAD_3_INTS_M
#    Modification time : Tue Mar 25 08:13:33 2014

@<TRIPOS>MOLECULE
3pnd_FAD_3_INTS_M
   91     0     9     0     0
SMALL
NO_CHARGES


@<TRIPOS>ATOM
      1 CA         -2.4550  118.9690   97.7665 C.3       3 GLC5        0.0000 
      2 CA         -2.3940  121.0540   97.3750 C.3       9 GLL5        0.0000 
      3 CA         -2.5160  116.8840   98.1580 C.3       6 GLP5        0.0000 
      4 CA         -3.9715  123.3670   95.4165 C.3       3 GLC5        0.0000 
      5 CA         -3.5580  121.8880   96.8590 C.3       9 GLL5        0.0000 
      6 CA         -4.3850  124.8460   93.9740 C.3       6 GLP5        0.0000 
      7 CA         -3.8645  121.5255   99.9420 C.3       3 GLC5        0.0000 
      8 CA         -4.6020  122.1580   97.9270 C.3       9 GLL5        0.0000 
      9 CA         -3.1270  120.8930  101.9570 C.3       6 GLP5        0.0000 
     10 CA         -7.7310  122.2170   97.6375 C.3       3 GLC5        0.0000 
     11 CA         -5.8960  122.2170   97.1430 C.3       9 GLL5        0.0000 
     12 CA         -9.5660  122.2170   98.1320 C.3       6 GLP5        0.0000 
     13 O          -7.1960  124.0200   96.0805 O.2       1 ALC1        0.0000 
     14 O          -6.1740  123.5440   96.7650 O.2       7 ALL1        0.0000 
     15 O          -8.2180  124.4960   95.3960 O.2       4 ALP1        0.0000 
     16 N          -7.0180  117.3395   98.0405 N.am      2 SEC2        0.0000 
     17 N          -6.9910  118.1270   96.7710 N.am      8 SEL2        0.0000 
     18 N          -7.0450  116.5520   99.3100 N.am      5 SEP2        0.0000 
     19 O          -8.2565  114.7215   94.1535 O.2       1 ALC1        0.0000 
     20 O          -7.9600  115.9460   95.0240 O.2       7 ALL1        0.0000 
     21 O          -8.5530  113.4970   93.2830 O.2       4 ALP1        0.0000 
     22 O          -8.3305  115.4310   96.3355 O.2       1 ALC1        0.0000 
     23 O          -8.7010  114.9160   97.6470 O.2       4 ALP1        0.0000 
     24 N          -8.6990  116.7910   92.2460 N.am      2 SEC2        0.0000 
     25 N          -7.9140  117.4850   93.2580 N.am      8 SEL2        0.0000 
     26 N          -9.4840  116.0970   91.2340 N.am      5 SEP2        0.0000 
     27 CA         -6.9665  118.0415   91.1060 C.3       3 GLC5        0.0000 
     28 CA         -7.4530  118.6880   92.7580 C.3       9 GLL5        0.0000 
     29 CA         -6.4800  117.3950   89.4540 C.3       6 GLP5        0.0000 
     30 CA         -9.1165  117.6990   91.8815 C.3       3 GLC5        0.0000 
     31 CA        -10.7800  116.7100   91.0050 C.3       6 GLP5        0.0000 
     32 CA         -9.0300  119.5660   91.5100 C.3       3 GLC5        0.0000 
     33 CA        -10.6070  120.4440   90.2620 C.3       6 GLP5        0.0000 
     34 CA         -8.9975  119.1365   94.0760 C.3       3 GLC5        0.0000 
     35 CA        -10.5420  119.5850   95.3940 C.3       6 GLP5        0.0000 
     36 CA         -5.9635  119.2775   91.9325 C.3       3 GLC5        0.0000 
     37 CA         -4.4740  119.8670   91.1070 C.3       6 GLP5        0.0000 
     38 CA         -5.7375  117.4540   93.4250 C.3       3 GLC5        0.0000 
     39 CA         -4.0220  116.2200   94.0920 C.3       6 GLP5        0.0000 
     40 CA         -5.6170  119.6040   93.0180 C.3       3 GLC5        0.0000 
     41 CA         -6.7600  119.3410   94.9290 C.3       9 GLL5        0.0000 
     42 N          -1.7250  134.4195   95.2310 N.am      2 SEC2        0.0000 
     43 N          -1.2050  134.2230   96.6320 N.am      8 SEL2        0.0000 
     44 N          -2.2450  134.6160   93.8300 N.am      5 SEP2        0.0000 
     45 N          -1.8045  133.3900   94.3590 N.am      2 SEC2        0.0000 
     46 N          -1.3640  132.1640   94.8880 N.am      8 SEL2        0.0000 
     47 CA          0.1845  131.7390   93.5020 C.3       3 GLC5        0.0000 
     48 CA         -1.4340  131.0810   94.0430 C.3       9 GLL5        0.0000 
     49 CA          1.8030  132.3970   92.9610 C.3       6 GLP5        0.0000 
     50 CA         -3.1860  132.3955   92.2670 C.3       3 GLC5        0.0000 
     51 CA         -1.7870  131.2970   92.7150 C.3       9 GLL5        0.0000 
     52 CA         -4.5850  133.4940   91.8190 C.3       6 GLP5        0.0000 
     53 CA         -0.4815  130.3790   89.9105 C.3       3 GLC5        0.0000 
     54 CA         -2.2460  130.5000   90.3940 C.3       9 GLL5        0.0000 
     55 CA          1.2830  130.2580   89.4270 C.3       6 GLP5        0.0000 
     56 CA         -1.7515  132.4015   89.4370 C.3       3 GLC5        0.0000 
     57 CA         -1.2570  134.3030   88.4800 C.3       6 GLP5        0.0000 
     58 CA         -3.4020  130.2930   88.8955 C.3       3 GLC5        0.0000 
     59 CA         -4.5580  130.0860   87.3970 C.3       6 GLP5        0.0000 
     60 CA         -0.1910  129.0095   90.3845 C.3       3 GLC5        0.0000 
     61 CA         -1.6650  127.7610   91.3420 C.3       9 GLL5        0.0000 
     62 CA         -2.8670  126.3640   91.9095 C.3       3 GLC5        0.0000 
     63 CA         -4.0690  124.9670   92.4770 C.3       6 GLP5        0.0000 
     64 CA         -1.5400  126.9800   89.6090 C.3       3 GLC5        0.0000 
     65 CA         -1.4150  126.1990   87.8760 C.3       6 GLP5        0.0000 
     66 CA         -2.1305  129.1070   96.8485 C.3       3 GLC5        0.0000 
     67 CA         -0.2380  128.2710   96.3300 C.3       9 GLL5        0.0000 
     68 CA         -4.0230  129.9430   97.3670 C.3       6 GLP5        0.0000 
     69 CA          2.0565  130.2130   96.3625 C.3       3 GLC5        0.0000 
     70 CA          1.2770  128.1950   96.0800 C.3       9 GLL5        0.0000 
     71 CA          2.8360  132.2310   96.6450 C.3       6 GLP5        0.0000 
     72 O           1.6355  129.3700   94.6515 O.2       1 ALC1        0.0000 
     73 O           1.5100  128.0740   94.6910 O.2       7 ALL1        0.0000 
     74 O           1.7610  130.6660   94.6120 O.2       4 ALP1        0.0000 
     75 O           2.3545  126.2955   94.4345 O.2       1 ALC1        0.0000 
     76 O           2.9860  126.4910   95.8900 O.2       7 ALL1        0.0000 
     77 O           1.7230  126.1000   92.9790 O.2       4 ALP1        0.0000 
     78 CA         -5.0735  123.3272   95.2452 C.3       3 GLC5        0.0000 
     79 CA         -5.6280  121.4000   95.8900 C.3       9 GLL5        0.0000 
     80 CA         -8.8396  119.0444   95.1852 C.3       3 GLC5        0.0000 
     81 CA         -7.2240  118.1350   95.4450 C.3       9 GLL5        0.0000 
     82 CA         -5.5796  117.3619   94.5343 C.3       3 GLC5        0.0000 
     83 CA         -0.0625  131.0030   92.1132 C.3       3 GLC5        0.0000 
     84 CA         -1.8650  130.2310   91.8240 C.3       9 GLL5        0.0000 
     85 CA          1.7010  131.2420   91.9570 C.3       6 GLP5        0.0000 
     86 CA         -3.7123  131.3168   91.2350 C.3       3 GLC5        0.0000 
     87 CA         -5.3690  132.2680   91.3610 C.3       6 GLP5        0.0000 
     88 CA          0.2075  130.2771   92.8427 C.3       3 GLC5        0.0000 
     89 CA         -1.5880  128.9380   92.2750 C.3       9 GLL5        0.0000 
     90 CA          3.5593  128.1993   95.7177 C.3       3 GLC5        0.0000 
     91 CA          5.4320  128.7470   94.9920 C.3       6 GLP5        0.0000 
@<TRIPOS>BOND
@<TRIPOS>SUBSTRUCTURE
     1 ALC1       13 GROUP        1 X    ALC  0     ROOT ALC X 1
     2 SEC2       16 GROUP        1 X    SEC  0     **** SEC X 2
     3 GLC5        1 GROUP        1 X    GLC  0     **** GLC X 6
     4 ALP1       15 GROUP        1 Y    ALP  0     ROOT ALP Y 8
     5 SEP2       18 GROUP        1 Y    SEP  0     **** SEP Y 9
     6 GLP5        3 GROUP        1 Y    GLP  0     **** GLP Y 13
     7 ALL1       14 GROUP        1 Z    ALL  0     ROOT ALL Z 15
     8 SEL2       17 GROUP        1 Z    SEL  0     **** SEL Z 16
     9 GLL5        2 GROUP        1 Z    GLL  0     **** GLL Z 20
@<TRIPOS>SET

