#    Name: 3pnd_FAD_3_ligand
#    Modification time : Tue Mar 25 08:13:33 2014

@<TRIPOS>MOLECULE
3pnd_FAD_3_ligand
   84    89     1     0     0
SMALL
NO_CHARGES


@<TRIPOS>ATOM
      1 PA         -0.2040  121.8850   96.1340 P.3       1 FAD500      0.0000 
      2 O1A        -0.6530  123.3290   96.1340 O.co2     1 FAD500      0.0000 
      3 O2A         0.5160  121.5540   94.8470 O.co2     1 FAD500      0.0000 
      4 O5B        -1.4660  120.8980   96.3250 O.3       1 FAD500      0.0000 
      5 C5B        -2.3940  121.0540   97.3750 C.3       1 FAD500      0.0000 
      6 C4B        -3.5580  121.8880   96.8590 C.3       1 FAD500      0.0000 
      7 O4B        -4.2240  121.2320   95.7930 O.3       1 FAD500      0.0000 
      8 C3B        -4.6020  122.1580   97.9270 C.3       1 FAD500      0.0000 
      9 O3B        -4.3380  123.3710   98.5860 O.3       1 FAD500      0.0000 
     10 C2B        -5.8960  122.2170   97.1430 C.3       1 FAD500      0.0000 
     11 O2B        -6.1740  123.5440   96.7650 O.3       1 FAD500      0.0000 
     12 C1B        -5.6280  121.4000   95.8900 C.3       1 FAD500      0.0000 
     13 N9A        -6.2450  120.0610   95.9780 N.pl3     1 FAD500      0.0000 
     14 C8A        -6.3920  119.2910   97.1040 C.2       1 FAD500      0.0000 
     15 N7A        -6.9910  118.1270   96.7710 N.2       1 FAD500      0.0000 
     16 C5A        -7.2240  118.1350   95.4450 C.ar      1 FAD500      0.0000 
     17 C6A        -7.8050  117.1980   94.6030 C.ar      1 FAD500      0.0000 
     18 N6A        -7.9600  115.9460   95.0240 N.pl3     1 FAD500      0.0000 
     19 N1A        -7.9140  117.4850   93.2580 N.ar      1 FAD500      0.0000 
     20 C2A        -7.4530  118.6880   92.7580 C.ar      1 FAD500      0.0000 
     21 N3A        -6.8750  119.6110   93.6030 N.ar      1 FAD500      0.0000 
     22 C4A        -6.7600  119.3410   94.9290 C.ar      1 FAD500      0.0000 
     23 N1         -0.3960  130.5640   98.0360 N.2       1 FAD500      0.0000 
     24 C2         -0.3330  131.6690   98.8720 C.2       1 FAD500      0.0000 
     25 O2         -0.0290  131.5400  100.0540 O.2       1 FAD500      0.0000 
     26 N3         -0.6130  132.9300   98.3860 N.am      1 FAD500      0.0000 
     27 C4         -0.9560  133.0950   97.0580 C.2       1 FAD500      0.0000 
     28 O4         -1.2050  134.2230   96.6320 O.2       1 FAD500      0.0000 
     29 C4X        -1.0170  131.9870   96.2110 C.2       1 FAD500      0.0000 
     30 N5         -1.3640  132.1640   94.8880 N.2       1 FAD500      0.0000 
     31 C5X        -1.4340  131.0810   94.0430 C.ar      1 FAD500      0.0000 
     32 C6         -1.7870  131.2970   92.7150 C.ar      1 FAD500      0.0000 
     33 C7         -1.8650  130.2310   91.8240 C.ar      1 FAD500      0.0000 
     34 C7M        -2.2460  130.5000   90.3940 C.3       1 FAD500      0.0000 
     35 C8         -1.5880  128.9380   92.2750 C.ar      1 FAD500      0.0000 
     36 C8M        -1.6650  127.7610   91.3420 C.3       1 FAD500      0.0000 
     37 C9         -1.2420  128.7270   93.6110 C.ar      1 FAD500      0.0000 
     38 C9A        -1.1570  129.7920   94.5140 C.ar      1 FAD500      0.0000 
     39 N10        -0.7980  129.5970   95.8560 N.pl3     1 FAD500      0.0000 
     40 C10        -0.7360  130.7050   96.7000 C.2       1 FAD500      0.0000 
     41 C1'        -0.2380  128.2710   96.3300 C.3       1 FAD500      0.0000 
     42 C2'         1.2770  128.1950   96.0800 C.3       1 FAD500      0.0000 
     43 O2'         1.5100  128.0740   94.6910 O.3       1 FAD500      0.0000 
     44 C3'         2.0960  127.1080   96.8070 C.3       1 FAD500      0.0000 
     45 O3'         2.9860  126.4910   95.8900 O.3       1 FAD500      0.0000 
     46 C4'         1.3190  126.0140   97.5300 C.3       1 FAD500      0.0000 
     47 O4'         0.5630  126.5630   98.5820 O.3       1 FAD500      0.0000 
     48 C5'         2.3040  125.0150   98.1210 C.3       1 FAD500      0.0000 
     49 O5'         2.0380  123.7370   97.5940 O.3       1 FAD500      0.0000 
     50 P           1.2330  122.6580   98.4750 P.3       1 FAD500      0.0000 
     51 O1P         2.1890  122.0220   99.4540 O.co2     1 FAD500      0.0000 
     52 O2P         0.0610  123.2910   99.1940 O.co2     1 FAD500      0.0000 
     53 O3P         0.7330  121.5510   97.4110 O.3       1 FAD500      0.0000 
     54 H          -1.9649  121.5760   98.2335 H         1 FAD500      0.0000 
     55 H          -2.7958  120.0979   97.7188 H         1 FAD500      0.0000 
     56 H          -3.1730  122.8505   96.5264 H         1 FAD500      0.0000 
     57 H          -4.6395  121.3111   98.5701 H         1 FAD500      0.0000 
     58 H          -6.6604  121.7536   97.6941 H         1 FAD500      0.0000 
     59 H          -6.0118  121.9312   95.0464 H         1 FAD500      0.0000 
     60 H          -6.1079  119.5512   97.9899 H         1 FAD500      0.0000 
     61 H          -8.1287  115.8286   96.0026 H         1 FAD500      0.0000 
     62 H          -7.8939  115.2350   94.3239 H         1 FAD500      0.0000 
     63 H          -7.5423  118.8941   91.7505 H         1 FAD500      0.0000 
     64 H          -0.5665  133.7474   99.0121 H         1 FAD500      0.0000 
     65 H          -1.9923  132.2532   92.3884 H         1 FAD500      0.0000 
     66 H          -1.0448  127.7665   93.9402 H         1 FAD500      0.0000 
     67 H          -0.7238  127.4552   95.7961 H         1 FAD500      0.0000 
     68 H          -0.4246  128.1537   97.3968 H         1 FAD500      0.0000 
     69 H           1.7050  129.1814   96.4072 H         1 FAD500      0.0000 
     70 H           2.7092  127.6333   97.5788 H         1 FAD500      0.0000 
     71 H           0.7088  125.4983   96.8158 H         1 FAD500      0.0000 
     72 H           2.1936  125.0456   99.2119 H         1 FAD500      0.0000 
     73 H           3.3155  125.3624   97.8774 H         1 FAD500      0.0000 
     74 H          -1.5992  131.1181   89.9473 H         1 FAD500      0.0000 
     75 H          -2.2708  129.6600   89.8520 H         1 FAD500      0.0000 
     76 H          -3.1503  130.9211   90.3235 H         1 FAD500      0.0000 
     77 H          -1.0319  127.8542   90.5736 H         1 FAD500      0.0000 
     78 H          -1.4392  126.9042   91.8056 H         1 FAD500      0.0000 
     79 H          -2.5810  127.6526   90.9556 H         1 FAD500      0.0000 
     80 H          -5.1449  123.9374   98.4183 H         1 FAD500      0.0000 
     81 H          -7.0504  123.4982   96.2856 H         1 FAD500      0.0000 
     82 H           1.6478  129.0107   94.3692 H         1 FAD500      0.0000 
     83 H           2.7489  126.8782   94.9990 H         1 FAD500      0.0000 
     84 H           0.1964  125.7746   99.0760 H         1 FAD500      0.0000 
@<TRIPOS>BOND
     1    2    1 ar   
     2    3    1 ar   
     3    4    1 1    
     4   53    1 1    
     5    5    4 1    
     6    6    5 1    
     7   54    5 1    
     8   55    5 1    
     9    7    6 1    
    10    8    6 1    
    11   56    6 1    
    12   12    7 1    
    13    9    8 1    
    14   10    8 1    
    15   57    8 1    
    16   80    9 1    
    17   11   10 1    
    18   12   10 1    
    19   58   10 1    
    20   81   11 1    
    21   13   12 1    
    22   59   12 1    
    23   14   13 1    
    24   22   13 1    
    25   15   14 2    
    26   60   14 1    
    27   16   15 1    
    28   17   16 ar   
    29   22   16 ar   
    30   18   17 1    
    31   19   17 ar   
    32   61   18 1    
    33   62   18 1    
    34   20   19 ar   
    35   21   20 ar   
    36   63   20 1    
    37   22   21 ar   
    38   24   23 1    
    39   40   23 2    
    40   25   24 2    
    41   26   24 am   
    42   27   26 am   
    43   64   26 1    
    44   28   27 2    
    45   29   27 1    
    46   30   29 2    
    47   40   29 1    
    48   31   30 1    
    49   32   31 ar   
    50   38   31 ar   
    51   33   32 ar   
    52   65   32 1    
    53   34   33 1    
    54   35   33 ar   
    55   74   34 1    
    56   75   34 1    
    57   76   34 1    
    58   36   35 1    
    59   37   35 ar   
    60   77   36 1    
    61   78   36 1    
    62   79   36 1    
    63   38   37 ar   
    64   66   37 1    
    65   39   38 1    
    66   40   39 1    
    67   41   39 1    
    68   42   41 1    
    69   67   41 1    
    70   68   41 1    
    71   43   42 1    
    72   44   42 1    
    73   69   42 1    
    74   82   43 1    
    75   45   44 1    
    76   46   44 1    
    77   70   44 1    
    78   83   45 1    
    79   47   46 1    
    80   48   46 1    
    81   71   46 1    
    82   84   47 1    
    83   49   48 1    
    84   72   48 1    
    85   73   48 1    
    86   50   49 1    
    87   51   50 ar   
    88   52   50 ar   
    89   53   50 1    
@<TRIPOS>SUBSTRUCTURE
     1 FAD500      1 GROUP   
@<TRIPOS>SET

