#    Name: 3zet_AMP_1_INTS_M
#    Modification time : Tue Mar 25 02:51:20 2014

@<TRIPOS>MOLECULE
3zet_AMP_1_INTS_M
   48     0     9     0     0
SMALL
NO_CHARGES


@<TRIPOS>ATOM
      1 N          28.5895   -1.1130   54.6605 N.am      2 SEC2        0.0000 
      2 N          27.9420    0.0400   54.3900 N.am      8 SEL2        0.0000 
      3 N          29.2370   -2.2660   54.9310 N.am      5 SEP2        0.0000 
      4 N          28.0365    0.8805   55.4625 N.am      2 SEC2        0.0000 
      5 N          28.1310    1.7210   56.5350 N.am      5 SEP2        0.0000 
      6 CA         25.0810    3.5285   54.3210 C.3       3 GLC5        0.0000 
      7 CA         24.3490    1.4250   54.0930 C.3       9 GLL5        0.0000 
      8 CA         25.8130    5.6320   54.5490 C.3       6 GLP5        0.0000 
      9 CA         23.8355   -1.4345   54.9970 C.3       3 GLC5        0.0000 
     10 CA         23.6960    0.7110   55.2540 C.3       9 GLL5        0.0000 
     11 CA         23.9750   -3.5800   54.7400 C.3       6 GLP5        0.0000 
     12 O          20.4330   -1.0935   55.1785 O.2       1 ALC1        0.0000 
     13 O          21.8220   -0.7650   55.6180 O.2       7 ALL1        0.0000 
     14 O          19.0440   -1.4220   54.7390 O.2       4 ALP1        0.0000 
     15 CA         20.3850    3.3710   56.5790 C.3       3 GLC5        0.0000 
     16 CA         21.6450    1.6920   55.9980 C.3       9 GLL5        0.0000 
     17 CA         19.1250    5.0500   57.1600 C.3       6 GLP5        0.0000 
     18 O          19.2325    0.8565   56.2100 O.2       1 ALC1        0.0000 
     19 O          20.3400    1.4950   56.5340 O.2       7 ALL1        0.0000 
     20 O          18.1250    0.2180   55.8860 O.2       4 ALP1        0.0000 
     21 CA         24.8370    2.1780   56.8970 C.3       3 GLC5        0.0000 
     22 CA         22.6990    1.7470   57.1060 C.3       9 GLL5        0.0000 
     23 CA         26.9750    2.6090   56.6880 C.3       6 GLP5        0.0000 
     24 CA         23.6230    0.6615   58.4870 C.3       3 GLC5        0.0000 
     25 CA         24.5470   -0.4240   59.8680 C.3       6 GLP5        0.0000 
     26 CA         21.3960    5.4550   58.1615 C.3       3 GLC5        0.0000 
     27 CA         22.7520    4.6510   59.2860 C.3       9 GLL5        0.0000 
     28 CA         20.0400    6.2590   57.0370 C.3       6 GLP5        0.0000 
     29 CA         20.7025    5.8200   59.8600 C.3       3 GLC5        0.0000 
     30 CA         22.5200    5.1700   60.5780 C.3       9 GLL5        0.0000 
     31 CA         18.8850    6.4700   59.1420 C.3       6 GLP5        0.0000 
     32 CA         23.6960    5.4710   62.1560 C.3       3 GLC5        0.0000 
     33 CA         24.8720    5.7720   63.7340 C.3       6 GLP5        0.0000 
     34 N          22.1055    4.2545   63.1430 N.am      2 SEC2        0.0000 
     35 N          22.0480    4.3170   61.5220 N.am      8 SEL2        0.0000 
     36 N          22.1630    4.1920   64.7640 N.am      5 SEP2        0.0000 
     37 CA         23.8550    2.3580   60.7115 C.3       3 GLC5        0.0000 
     38 CA         21.7990    3.0470   61.1820 C.3       9 GLL5        0.0000 
     39 CA         25.9110    1.6690   60.2410 C.3       6 GLP5        0.0000 
     40 CA         23.1290    3.7060   62.6615 C.3       3 GLC5        0.0000 
     41 CA         24.4590    4.3650   64.1410 C.3       6 GLP5        0.0000 
     42 CA         20.7925    4.1795   58.1235 C.3       3 GLC5        0.0000 
     43 CA         22.4600    3.3090   59.0870 C.3       9 GLL5        0.0000 
     44 N          25.6425   -2.0760   54.1085 N.am      2 SEC2        0.0000 
     45 N          25.9860   -1.0910   53.1500 N.am      8 SEL2        0.0000 
     46 N          25.2990   -3.0610   55.0670 N.am      5 SEP2        0.0000 
     47 CA         25.4988    1.8385   55.6808 C.3       3 GLC5        0.0000 
     48 CA         24.2585    2.8245   59.7138 C.3       3 GLC5        0.0000 
@<TRIPOS>BOND
@<TRIPOS>SUBSTRUCTURE
     1 ALC1       12 GROUP        1 X    ALC  0     ROOT ALC X 1
     2 SEC2        1 GROUP        1 X    SEC  0     **** SEC X 2
     3 GLC5        6 GROUP        1 X    GLC  0     **** GLC X 6
     4 ALP1       14 GROUP        1 Y    ALP  0     ROOT ALP Y 8
     5 SEP2        3 GROUP        1 Y    SEP  0     **** SEP Y 9
     6 GLP5        8 GROUP        1 Y    GLP  0     **** GLP Y 13
     7 ALL1       13 GROUP        1 Z    ALL  0     ROOT ALL Z 15
     8 SEL2        2 GROUP        1 Z    SEL  0     **** SEL Z 16
     9 GLL5        7 GROUP        1 Z    GLL  0     **** GLL Z 20
@<TRIPOS>SET

