#    Name: 3zet_AMP_1_ligand
#    Modification time : Tue Mar 25 02:51:20 2014

@<TRIPOS>MOLECULE
3zet_AMP_1_ligand
   35    37     1     0     0
SMALL
NO_CHARGES


@<TRIPOS>ATOM
      1 O1P        27.9420    0.0400   54.3900 O.co2     1 AMP400      0.0000 
      2 P          26.7330    0.2280   53.4630 P.3       1 AMP400      0.0000 
      3 O5'        25.7770    1.2700   54.2190 O.3       1 AMP400      0.0000 
      4 C5'        24.3490    1.4250   54.0930 C.3       1 AMP400      0.0000 
      5 C4'        23.6960    0.7110   55.2540 C.3       1 AMP400      0.0000 
      6 O4'        23.9350    1.4320   56.4900 O.3       1 AMP400      0.0000 
      7 C3'        22.1810    0.5310   55.1470 C.3       1 AMP400      0.0000 
      8 O3'        21.8220   -0.7650   55.6180 O.3       1 AMP400      0.0000 
      9 C2'        21.6450    1.6920   55.9980 C.3       1 AMP400      0.0000 
     10 O2'        20.3400    1.4950   56.5340 O.3       1 AMP400      0.0000 
     11 C1'        22.6990    1.7470   57.1060 C.3       1 AMP400      0.0000 
     12 N9         22.8110    3.0390   57.7850 N.pl3     1 AMP400      0.0000 
     13 C8         23.2740    4.2260   57.2710 C.2       1 AMP400      0.0000 
     14 N7         23.2620    5.2180   58.1250 N.2       1 AMP400      0.0000 
     15 C5         22.7520    4.6510   59.2860 C.ar      1 AMP400      0.0000 
     16 C6         22.5200    5.1700   60.5780 C.ar      1 AMP400      0.0000 
     17 N6         22.7050    6.4450   60.9110 N.pl3     1 AMP400      0.0000 
     18 N1         22.0480    4.3170   61.5220 N.ar      1 AMP400      0.0000 
     19 C2         21.7990    3.0470   61.1820 C.ar      1 AMP400      0.0000 
     20 N3         21.9610    2.4530   59.9930 N.ar      1 AMP400      0.0000 
     21 C4         22.4600    3.3090   59.0870 C.ar      1 AMP400      0.0000 
     22 O2P        25.9860   -1.0910   53.1500 O.co2     1 AMP400      0.0000 
     23 O3P        27.2090    0.9610   52.2520 O.co2     1 AMP400      0.0000 
     24 H          23.9825    0.9861   53.1660 H         1 AMP400      0.0000 
     25 H          24.0595    2.4745   54.1246 H         1 AMP400      0.0000 
     26 H          24.1364   -0.2891   55.3488 H         1 AMP400      0.0000 
     27 H          21.9152    0.7133   54.1310 H         1 AMP400      0.0000 
     28 H          21.7559    2.5884   55.4237 H         1 AMP400      0.0000 
     29 H          22.4484    0.9660   57.8265 H         1 AMP400      0.0000 
     30 H          23.5872    4.2924   56.3178 H         1 AMP400      0.0000 
     31 H          22.5177    6.6825   61.8642 H         1 AMP400      0.0000 
     32 H          23.0146    7.0507   60.1781 H         1 AMP400      0.0000 
     33 H          21.4076    2.4024   61.9897 H         1 AMP400      0.0000 
     34 H          20.8914   -0.9132   55.2834 H         1 AMP400      0.0000 
     35 H          19.8234    1.0524   55.8011 H         1 AMP400      0.0000 
@<TRIPOS>BOND
     1    2    1 ar   
     2    3    2 1    
     3   22    2 ar   
     4   23    2 ar   
     5    4    3 1    
     6    5    4 1    
     7   24    4 1    
     8   25    4 1    
     9    6    5 1    
    10    7    5 1    
    11   26    5 1    
    12   11    6 1    
    13    8    7 1    
    14    9    7 1    
    15   27    7 1    
    16   34    8 1    
    17   10    9 1    
    18   11    9 1    
    19   28    9 1    
    20   35   10 1    
    21   12   11 1    
    22   29   11 1    
    23   13   12 1    
    24   21   12 1    
    25   14   13 2    
    26   30   13 1    
    27   15   14 1    
    28   16   15 ar   
    29   21   15 ar   
    30   17   16 1    
    31   18   16 ar   
    32   31   17 1    
    33   32   17 1    
    34   19   18 ar   
    35   20   19 ar   
    36   33   19 1    
    37   21   20 ar   
@<TRIPOS>SUBSTRUCTURE
     1 AMP400      1 GROUP   
@<TRIPOS>SET

