#    Name: 3w8w_FAD_2_INTS_M
#    Modification time : Tue Mar 25 02:26:04 2014

@<TRIPOS>MOLECULE
3w8w_FAD_2_INTS_M
  122     0     9     0     0
SMALL
NO_CHARGES


@<TRIPOS>ATOM
      1 N          18.1120   -5.7760   10.6250 N.am      2 SEC2        0.0000 
      2 N          19.3800   -5.4280   11.0980 N.am      8 SEL2        0.0000 
      3 N          16.8440   -6.1240   10.1520 N.am      5 SEP2        0.0000 
      4 N          20.0545   -6.4970   11.6610 N.am      2 SEC2        0.0000 
      5 N          20.7290   -7.5660   12.2240 N.am      5 SEP2        0.0000 
      6 N          21.3980   -2.8030   13.1945 N.am      2 SEC2        0.0000 
      7 N          20.5120   -3.6380   12.5270 N.am      8 SEL2        0.0000 
      8 N          22.2840   -1.9680   13.8620 N.am      5 SEP2        0.0000 
      9 N          19.5535   -3.8435   13.5280 N.am      2 SEC2        0.0000 
     10 N          18.5950   -4.0490   14.5290 N.am      5 SEP2        0.0000 
     11 CA         19.3655   -5.3565    8.6645 C.3       3 GLC5        0.0000 
     12 CA         20.1580   -3.4950    8.6730 C.3       9 GLL5        0.0000 
     13 CA         18.5730   -7.2180    8.6560 C.3       6 GLP5        0.0000 
     14 CA         22.4045   -6.1465    7.4755 C.3       3 GLC5        0.0000 
     15 CA         22.4900   -4.2250    7.9980 C.3       9 GLL5        0.0000 
     16 CA         22.3190   -8.0680    6.9530 C.3       6 GLP5        0.0000 
     17 O          24.0995   -5.4475    6.4480 O.2       1 ALC1        0.0000 
     18 O          22.9500   -4.4510    6.6390 O.2       7 ALL1        0.0000 
     19 O          25.2490   -6.4440    6.2570 O.2       4 ALP1        0.0000 
     20 CA         25.4150   -3.1915    9.8855 C.3       3 GLC5        0.0000 
     21 CA         23.4810   -3.4270    8.7900 C.3       9 GLL5        0.0000 
     22 CA         27.3490   -2.9560   10.9810 C.3       6 GLP5        0.0000 
     23 O          25.2690   -5.1615    8.7450 O.2       1 ALC1        0.0000 
     24 O          24.8540   -3.8150    8.5940 O.2       7 ALL1        0.0000 
     25 O          25.6840   -6.5080    8.8960 O.2       4 ALP1        0.0000 
     26 CA         21.4510   -0.7635    8.3700 C.3       3 GLC5        0.0000 
     27 CA         23.2970   -2.0000    8.2830 C.3       9 GLL5        0.0000 
     28 CA         19.6050    0.4730    8.4570 C.3       6 GLP5        0.0000 
     29 CA         25.5800    3.9620    9.9485 C.3       3 GLC5        0.0000 
     30 CA         24.8990    2.0060   10.6060 C.3       9 GLL5        0.0000 
     31 CA         26.2610    5.9180    9.2910 C.3       6 GLP5        0.0000 
     32 O          23.6995    3.0660   12.9015 O.2       1 ALC1        0.0000 
     33 O          24.6910    2.8860   11.6580 O.2       7 ALL1        0.0000 
     34 O          22.7080    3.2460   14.1450 O.2       4 ALP1        0.0000 
     35 O          25.5985    3.8970   11.9270 O.2       1 ALC1        0.0000 
     36 O          26.5060    4.9080   12.1960 O.2       4 ALP1        0.0000 
     37 N          26.9365    3.1225    9.7610 N.am      2 SEC2        0.0000 
     38 N          25.9260    2.1550    9.7510 N.am      8 SEL2        0.0000 
     39 N          27.9470    4.0900    9.7710 N.am      5 SEP2        0.0000 
     40 CA         26.5440   -0.1885   10.2100 C.3       3 GLC5        0.0000 
     41 CA         26.1760    1.3010    8.7300 C.3       9 GLL5        0.0000 
     42 CA         26.9120   -1.6780   11.6900 C.3       6 GLP5        0.0000 
     43 CA         24.9185    2.0850    7.9175 C.3       3 GLC5        0.0000 
     44 CA         23.6610    2.8690    7.1050 C.3       6 GLP5        0.0000 
     45 CA         26.0925    0.4970    6.9055 C.3       3 GLC5        0.0000 
     46 CA         26.0090   -0.3070    5.0810 C.3       6 GLP5        0.0000 
     47 CA         27.8930    1.8095    9.2095 C.3       3 GLC5        0.0000 
     48 CA         29.6100    2.3180    9.6890 C.3       6 GLP5        0.0000 
     49 N          11.3505    3.6885    4.7510 N.am      2 SEC2        0.0000 
     50 N          11.5930    2.2770    5.1320 N.am      8 SEL2        0.0000 
     51 N          11.1080    5.1000    4.3700 N.am      5 SEP2        0.0000 
     52 N          12.4675    2.1290    4.2130 N.am      2 SEC2        0.0000 
     53 N          13.3420    1.9810    3.2940 N.am      5 SEP2        0.0000 
     54 O           9.3010    3.2195    6.1470 O.2       1 ALC1        0.0000 
     55 O           9.7750    1.9590    6.3020 O.2       7 ALL1        0.0000 
     56 O           8.8270    4.4800    5.9920 O.2       4 ALP1        0.0000 
     57 N           7.6110    2.4955    8.8840 N.am      2 SEC2        0.0000 
     58 N           7.9090    1.6470    7.5850 N.am      8 SEL2        0.0000 
     59 N           7.3130    3.3440   10.1830 N.am      5 SEP2        0.0000 
     60 CA          7.5390   -1.8505   11.4120 C.3       3 GLC5        0.0000 
     61 CA          8.8610   -2.4940   10.2340 C.3       9 GLL5        0.0000 
     62 CA          6.2170   -1.2070   12.5900 C.3       6 GLP5        0.0000 
     63 CA          8.4705   -2.1105   12.0560 C.3       3 GLC5        0.0000 
     64 CA          9.4740   -3.5970   10.8190 C.3       9 GLL5        0.0000 
     65 CA          7.4670   -0.6240   13.2930 C.3       6 GLP5        0.0000 
     66 CA          9.1105   -6.2615   11.7955 C.3       3 GLC5        0.0000 
     67 CA          8.7050   -4.3800   11.8740 C.3       9 GLL5        0.0000 
     68 CA          9.5160   -8.1430   11.7170 C.3       6 GLP5        0.0000 
     69 CA          7.4610   -2.7935   12.2320 C.3       3 GLC5        0.0000 
     70 CA         11.5315   -6.7850   10.7200 C.3       3 GLC5        0.0000 
     71 CA         11.4840   -5.2320   10.9810 C.3       9 GLL5        0.0000 
     72 CA         11.5790   -8.3380   10.4590 C.3       6 GLP5        0.0000 
     73 CA         10.8890   -5.4365    9.0045 C.3       3 GLC5        0.0000 
     74 CA         10.2940   -5.6410    7.0280 C.3       6 GLP5        0.0000 
     75 CA         12.9495   -3.6270   10.6470 C.3       3 GLC5        0.0000 
     76 CA         11.4100   -3.2210    9.4380 C.3       9 GLL5        0.0000 
     77 CA         14.4890   -4.0330   11.8560 C.3       6 GLP5        0.0000 
     78 CA         11.4170   -3.8855    7.0780 C.3       3 GLC5        0.0000 
     79 CA         12.5400   -2.1300    7.1280 C.3       9 GLL5        0.0000 
     80 CA         11.2315   -2.2975    5.7320 C.3       3 GLC5        0.0000 
     81 CA          9.9230   -2.4650    4.3360 C.3       6 GLP5        0.0000 
     82 CA         13.5465   -0.7250    9.6015 C.3       3 GLC5        0.0000 
     83 CA         13.8240   -1.5020    7.7140 C.3       9 GLL5        0.0000 
     84 CA         13.2690    0.0520   11.4890 C.3       6 GLP5        0.0000 
     85 CA         14.5230    0.5475    8.1410 C.3       3 GLC5        0.0000 
     86 CA         15.2220    2.5970    8.5680 C.3       6 GLP5        0.0000 
     87 CA         16.2915    0.2385    7.8655 C.3       3 GLC5        0.0000 
     88 CA         16.2520   -1.7010    8.1120 C.3       9 GLL5        0.0000 
     89 CA         16.3310    2.1780    7.6190 C.3       6 GLP5        0.0000 
     90 CA         15.3870   -2.9805   10.7305 C.3       3 GLC5        0.0000 
     91 CA         16.2850   -1.9280    9.6050 C.3       9 GLL5        0.0000 
     92 CA         14.7770   -0.9380   10.5470 C.3       3 GLC5        0.0000 
     93 N          19.5875    0.1550   10.7960 N.am      2 SEC2        0.0000 
     94 N          19.3100   -0.9000   11.9390 N.am      8 SEL2        0.0000 
     95 N          19.8650    1.2100    9.6530 N.am      5 SEP2        0.0000 
     96 N          19.3545   -1.1380   13.3410 N.am      2 SEC2        0.0000 
     97 N          19.3990   -1.3760   14.7430 N.am      5 SEP2        0.0000 
     98 N          16.7735   -3.4070   12.6940 N.am      2 SEC2        0.0000 
     99 N          17.0010   -1.9000   12.5830 N.am      8 SEL2        0.0000 
    100 N          16.5460   -4.9140   12.8050 N.am      5 SEP2        0.0000 
    101 N          16.2400   -0.8140   13.1785 N.am      2 SEC2        0.0000 
    102 N          15.4790    0.2720   13.7740 N.am      5 SEP2        0.0000 
    103 CA         20.1808   -1.4455    8.3415 C.3       3 GLC5        0.0000 
    104 CA         25.3148    1.3013   12.2945 C.3       3 GLC5        0.0000 
    105 CA         24.0800    0.8990   10.4120 C.3       9 GLL5        0.0000 
    106 CA         26.1400    1.1500   14.0800 C.3       6 GLP5        0.0000 
    107 CA         22.5627    2.3003   10.6980 C.3       3 GLC5        0.0000 
    108 CA         20.6360    3.1480   10.8870 C.3       6 GLP5        0.0000 
    109 CA         25.6601   -0.4649   10.7977 C.3       3 GLC5        0.0000 
    110 CA         24.0346    1.8086    8.5053 C.3       3 GLC5        0.0000 
    111 CA         24.3270    0.0440    9.3020 C.3       9 GLL5        0.0000 
    112 CA         10.2103   -4.7100    8.8255 C.3       3 GLC5        0.0000 
    113 CA         10.7790   -3.9610   10.4270 C.3       9 GLL5        0.0000 
    114 CA         12.3087   -4.3208   11.8115 C.3       3 GLC5        0.0000 
    115 CA         13.4860   -4.0450   12.9190 C.3       6 GLP5        0.0000 
    116 CA         10.7045   -4.1485    8.0925 C.3       3 GLC5        0.0000 
    117 CA         12.1920   -1.3020   10.3230 C.3       3 GLC5        0.0000 
    118 CA         14.0290   -1.6570    5.6450 C.3       3 GLC5        0.0000 
    119 CA         14.8760   -1.4980    3.8690 C.3       6 GLP5        0.0000 
    120 CA         15.2542   -1.7690    5.8298 C.3       3 GLC5        0.0000 
    121 CA         15.0130   -2.3790    7.4690 C.3       9 GLL5        0.0000 
    122 CA         17.9367   -0.6708    8.6578 C.3       3 GLC5        0.0000 
@<TRIPOS>BOND
@<TRIPOS>SUBSTRUCTURE
     1 ALC1       17 GROUP        1 X    ALC  0     ROOT ALC X 1
     2 SEC2        1 GROUP        1 X    SEC  0     **** SEC X 2
     3 GLC5       11 GROUP        1 X    GLC  0     **** GLC X 6
     4 ALP1       19 GROUP        1 Y    ALP  0     ROOT ALP Y 8
     5 SEP2        3 GROUP        1 Y    SEP  0     **** SEP Y 9
     6 GLP5       13 GROUP        1 Y    GLP  0     **** GLP Y 13
     7 ALL1       18 GROUP        1 Z    ALL  0     ROOT ALL Z 15
     8 SEL2        2 GROUP        1 Z    SEL  0     **** SEL Z 16
     9 GLL5       12 GROUP        1 Z    GLL  0     **** GLL Z 20
@<TRIPOS>SET

