#    Name: 3w8w_FAD_2_ligand
#    Modification time : Tue Mar 25 02:26:04 2014

@<TRIPOS>MOLECULE
3w8w_FAD_2_ligand
   84    89     1     0     0
SMALL
NO_CHARGES


@<TRIPOS>ATOM
      1 PA         19.8660   -4.0030   11.2610 P.3       1 FAD600      0.0000 
      2 O1A        19.3800   -5.4280   11.0980 O.co2     1 FAD600      0.0000 
      3 O2A        20.5120   -3.6380   12.5270 O.co2     1 FAD600      0.0000 
      4 O5B        20.6940   -3.3690   10.0230 O.3       1 FAD600      0.0000 
      5 C5B        20.1580   -3.4950    8.6730 C.3       1 FAD600      0.0000 
      6 C4B        21.3550   -3.2330    7.7790 C.3       1 FAD600      0.0000 
      7 O4B        21.9250   -1.9170    7.8920 O.3       1 FAD600      0.0000 
      8 C3B        22.4900   -4.2250    7.9980 C.3       1 FAD600      0.0000 
      9 O3B        22.9500   -4.4510    6.6390 O.3       1 FAD600      0.0000 
     10 C2B        23.4810   -3.4270    8.7900 C.3       1 FAD600      0.0000 
     11 O2B        24.8540   -3.8150    8.5940 O.3       1 FAD600      0.0000 
     12 C1B        23.2970   -2.0000    8.2830 C.3       1 FAD600      0.0000 
     13 N9A        23.4070   -0.9590    9.3110 N.pl3     1 FAD600      0.0000 
     14 C8A        22.5770   -0.6770   10.3770 C.2       1 FAD600      0.0000 
     15 N7A        22.9840    0.4510   11.0780 N.2       1 FAD600      0.0000 
     16 C5A        24.0800    0.8990   10.4120 C.ar      1 FAD600      0.0000 
     17 C6A        24.8990    2.0060   10.6060 C.ar      1 FAD600      0.0000 
     18 N6A        24.6910    2.8860   11.6580 N.pl3     1 FAD600      0.0000 
     19 N1A        25.9260    2.1550    9.7510 N.ar      1 FAD600      0.0000 
     20 C2A        26.1760    1.3010    8.7300 C.ar      1 FAD600      0.0000 
     21 N3A        25.3760    0.2240    8.4770 N.ar      1 FAD600      0.0000 
     22 C4A        24.3270    0.0440    9.3020 C.ar      1 FAD600      0.0000 
     23 N1         11.5860    0.4870    6.3810 N.2       1 FAD600      0.0000 
     24 C2         10.9790    1.5660    5.9160 C.2       1 FAD600      0.0000 
     25 O2         11.5930    2.2770    5.1320 O.2       1 FAD600      0.0000 
     26 N3          9.7750    1.9590    6.3020 N.am      1 FAD600      0.0000 
     27 C4          9.0280    1.2650    7.2020 C.2       1 FAD600      0.0000 
     28 O4          7.9090    1.6470    7.5850 O.2       1 FAD600      0.0000 
     29 C4X         9.5460    0.0970    7.7290 C.2       1 FAD600      0.0000 
     30 N5          8.8730   -0.6670    8.6720 N.2       1 FAD600      0.0000 
     31 C5X         9.4950   -1.7480    9.2440 C.ar      1 FAD600      0.0000 
     32 C6          8.8610   -2.4940   10.2340 C.ar      1 FAD600      0.0000 
     33 C7          9.4740   -3.5970   10.8190 C.ar      1 FAD600      0.0000 
     34 C7M         8.7050   -4.3800   11.8740 C.3       1 FAD600      0.0000 
     35 C8         10.7790   -3.9610   10.4270 C.ar      1 FAD600      0.0000 
     36 C8M        11.4840   -5.2320   10.9810 C.3       1 FAD600      0.0000 
     37 C9         11.4100   -3.2210    9.4380 C.ar      1 FAD600      0.0000 
     38 C9A        10.8200   -2.0910    8.8760 C.ar      1 FAD600      0.0000 
     39 N10        11.3880   -1.4500    7.7870 N.pl3     1 FAD600      0.0000 
     40 C10        10.9520   -0.2150    7.3380 C.2       1 FAD600      0.0000 
     41 C1'        12.5400   -2.1300    7.1280 C.3       1 FAD600      0.0000 
     42 C2'        13.8240   -1.5020    7.7140 C.3       1 FAD600      0.0000 
     43 O2'        14.1090   -0.2430    7.0930 O.3       1 FAD600      0.0000 
     44 C3'        15.0130   -2.3790    7.4690 C.3       1 FAD600      0.0000 
     45 O3'        14.7230   -3.6150    8.1110 O.3       1 FAD600      0.0000 
     46 C4'        16.2520   -1.7010    8.1120 C.3       1 FAD600      0.0000 
     47 O4'        17.3460   -2.3240    7.4550 O.3       1 FAD600      0.0000 
     48 C5'        16.2850   -1.9280    9.6050 C.3       1 FAD600      0.0000 
     49 O5'        17.3750   -1.1620   10.1850 O.3       1 FAD600      0.0000 
     50 P          18.0120   -1.6070   11.5880 P.3       1 FAD600      0.0000 
     51 O1P        19.3100   -0.9000   11.9390 O.co2     1 FAD600      0.0000 
     52 O2P        17.0010   -1.9000   12.5830 O.co2     1 FAD600      0.0000 
     53 O3P        18.4240   -3.1610   11.1440 O.3       1 FAD600      0.0000 
     54 H          19.4096   -2.7549    8.4790 H         1 FAD600      0.0000 
     55 H          19.7946   -4.4845    8.4876 H         1 FAD600      0.0000 
     56 H          21.0283   -3.3850    6.7224 H         1 FAD600      0.0000 
     57 H          22.1479   -5.0410    8.4781 H         1 FAD600      0.0000 
     58 H          23.1943   -3.4313    9.8215 H         1 FAD600      0.0000 
     59 H          23.9251   -1.8143    7.4654 H         1 FAD600      0.0000 
     60 H          21.7912   -1.2076   10.6154 H         1 FAD600      0.0000 
     61 H          25.3158    3.6650   11.7101 H         1 FAD600      0.0000 
     62 H          23.9342    2.6652   12.2733 H         1 FAD600      0.0000 
     63 H          27.0099    1.4684    8.1111 H         1 FAD600      0.0000 
     64 H           9.3614    2.8524    5.9004 H         1 FAD600      0.0000 
     65 H           7.9077   -2.2199   10.5426 H         1 FAD600      0.0000 
     66 H          12.3514   -3.5163    9.1044 H         1 FAD600      0.0000 
     67 H          12.5278   -1.9590    6.0672 H         1 FAD600      0.0000 
     68 H          12.5402   -3.1813    7.3501 H         1 FAD600      0.0000 
     69 H          13.6923   -1.3849    8.7751 H         1 FAD600      0.0000 
     70 H          15.1716   -2.4799    6.4332 H         1 FAD600      0.0000 
     71 H          16.1967   -0.6630    7.8865 H         1 FAD600      0.0000 
     72 H          16.4156   -2.9970    9.7927 H         1 FAD600      0.0000 
     73 H          15.3241   -1.6207   10.0261 H         1 FAD600      0.0000 
     74 H           9.2386   -5.1475   12.2293 H         1 FAD600      0.0000 
     75 H           8.4591   -3.8071   12.6559 H         1 FAD600      0.0000 
     76 H           7.8544   -4.7585   11.5090 H         1 FAD600      0.0000 
     77 H          12.4009   -5.3449   10.5981 H         1 FAD600      0.0000 
     78 H          11.5839   -5.1977   11.9754 H         1 FAD600      0.0000 
     79 H          10.9723   -6.0639   10.7664 H         1 FAD600      0.0000 
     80 H          23.7152   -5.0887    6.7276 H         1 FAD600      0.0000 
     81 H          24.8620   -4.8077    8.7146 H         1 FAD600      0.0000 
     82 H          13.2483    0.0361    6.6672 H         1 FAD600      0.0000 
     83 H          15.0385   -4.3179    7.4735 H         1 FAD600      0.0000 
     84 H          17.2591   -2.0547    6.4959 H         1 FAD600      0.0000 
@<TRIPOS>BOND
     1    2    1 ar   
     2    3    1 ar   
     3    4    1 1    
     4   53    1 1    
     5    5    4 1    
     6    6    5 1    
     7   54    5 1    
     8   55    5 1    
     9    7    6 1    
    10    8    6 1    
    11   56    6 1    
    12   12    7 1    
    13    9    8 1    
    14   10    8 1    
    15   57    8 1    
    16   80    9 1    
    17   11   10 1    
    18   12   10 1    
    19   58   10 1    
    20   81   11 1    
    21   13   12 1    
    22   59   12 1    
    23   14   13 1    
    24   22   13 1    
    25   15   14 2    
    26   60   14 1    
    27   16   15 1    
    28   17   16 ar   
    29   22   16 ar   
    30   18   17 1    
    31   19   17 ar   
    32   61   18 1    
    33   62   18 1    
    34   20   19 ar   
    35   21   20 ar   
    36   63   20 1    
    37   22   21 ar   
    38   24   23 1    
    39   40   23 2    
    40   25   24 2    
    41   26   24 am   
    42   27   26 am   
    43   64   26 1    
    44   28   27 2    
    45   29   27 1    
    46   30   29 2    
    47   40   29 1    
    48   31   30 1    
    49   32   31 ar   
    50   38   31 ar   
    51   33   32 ar   
    52   65   32 1    
    53   34   33 1    
    54   35   33 ar   
    55   74   34 1    
    56   75   34 1    
    57   76   34 1    
    58   36   35 1    
    59   37   35 ar   
    60   77   36 1    
    61   78   36 1    
    62   79   36 1    
    63   38   37 ar   
    64   66   37 1    
    65   39   38 1    
    66   40   39 1    
    67   41   39 1    
    68   42   41 1    
    69   67   41 1    
    70   68   41 1    
    71   43   42 1    
    72   44   42 1    
    73   69   42 1    
    74   82   43 1    
    75   45   44 1    
    76   46   44 1    
    77   70   44 1    
    78   83   45 1    
    79   47   46 1    
    80   48   46 1    
    81   71   46 1    
    82   84   47 1    
    83   49   48 1    
    84   72   48 1    
    85   73   48 1    
    86   50   49 1    
    87   51   50 ar   
    88   52   50 ar   
    89   53   50 1    
@<TRIPOS>SUBSTRUCTURE
     1 FAD600      1 GROUP   
@<TRIPOS>SET

