#    Name: 2e48_FAD_3_INTS_M
#    Modification time : Tue Mar 25 10:36:14 2014

@<TRIPOS>MOLECULE
2e48_FAD_3_INTS_M
  115     0     9     0     0
SMALL
NO_CHARGES


@<TRIPOS>ATOM
      1 N         -56.9715  -74.9920   15.4780 N.am      2 SEC2        0.0000 
      2 N         -57.9710  -75.6190   16.5130 N.am      8 SEL2        0.0000 
      3 N         -55.9720  -74.3650   14.4430 N.am      5 SEP2        0.0000 
      4 N         -57.9945  -74.1150   15.8895 N.am      2 SEC2        0.0000 
      5 N         -58.0180  -72.6110   15.2660 N.am      5 SEP2        0.0000 
      6 CA        -56.5715  -79.0845   15.8785 C.3       3 GLC5        0.0000 
      7 CA        -56.7010  -78.6860   17.8060 C.3       9 GLL5        0.0000 
      8 CA        -56.4420  -79.4830   13.9510 C.3       6 GLP5        0.0000 
      9 CA        -55.9090  -79.6090   20.4385 C.3       3 GLC5        0.0000 
     10 CA        -55.5000  -79.0150   18.6740 C.3       9 GLL5        0.0000 
     11 CA        -56.3180  -80.2030   22.2030 C.3       6 GLP5        0.0000 
     12 CA        -52.4425  -78.1950   17.2795 C.3       3 GLC5        0.0000 
     13 CA        -54.2580  -78.9450   17.7960 C.3       9 GLL5        0.0000 
     14 CA        -50.6270  -77.4450   16.7630 C.3       6 GLP5        0.0000 
     15 CA        -55.3500  -79.2140   15.8735 C.3       3 GLC5        0.0000 
     16 N         -51.6830  -78.7825   18.5280 N.am      2 SEC2        0.0000 
     17 N         -53.1480  -78.4650   18.5460 N.am      8 SEL2        0.0000 
     18 N         -50.2180  -79.1000   18.5100 N.am      5 SEP2        0.0000 
     19 CA        -52.0990  -81.3475   17.5820 C.3       3 GLC5        0.0000 
     20 CA        -53.9960  -80.3840   17.4310 C.3       9 GLL5        0.0000 
     21 CA        -50.2020  -82.3110   17.7330 C.3       6 GLP5        0.0000 
     22 CA        -55.3395  -80.6160   15.7880 C.3       3 GLC5        0.0000 
     23 CA        -56.6830  -80.8480   14.1450 C.3       6 GLP5        0.0000 
     24 CA        -55.4125  -80.6620   20.4410 C.3       3 GLC5        0.0000 
     25 CA        -54.5070  -81.1210   18.6790 C.3       9 GLL5        0.0000 
     26 CA        -52.2555  -86.3125   17.8590 C.3       3 GLC5        0.0000 
     27 CA        -54.1760  -85.9470   18.6440 C.3       9 GLL5        0.0000 
     28 CA        -50.3350  -86.6780   17.0740 C.3       6 GLP5        0.0000 
     29 CA        -53.6385  -87.0900   20.5040 C.3       3 GLC5        0.0000 
     30 CA        -53.1010  -88.2330   22.3640 C.3       6 GLP5        0.0000 
     31 CA        -55.8595  -87.1045   19.2450 C.3       3 GLC5        0.0000 
     32 CA        -57.5430  -88.2620   19.8460 C.3       6 GLP5        0.0000 
     33 O         -53.7855  -88.1735   18.8035 O.2       1 ALC1        0.0000 
     34 O         -54.6280  -87.0910   18.0780 O.2       7 ALL1        0.0000 
     35 O         -52.9430  -89.2560   19.5290 O.2       4 ALP1        0.0000 
     36 CA        -54.2050  -84.7425   21.4095 C.3       3 GLC5        0.0000 
     37 CA        -52.7800  -84.8680   20.1890 C.3       9 GLL5        0.0000 
     38 CA        -55.6300  -84.6170   22.6300 C.3       6 GLP5        0.0000 
     39 CA        -52.2380  -82.9590   21.1940 C.3       3 GLC5        0.0000 
     40 CA        -51.6960  -81.0500   22.1990 C.3       6 GLP5        0.0000 
     41 CA        -51.4910  -83.5895   18.9610 C.3       3 GLC5        0.0000 
     42 CA        -51.2060  -85.5755   19.8505 C.3       3 GLC5        0.0000 
     43 CA        -49.6320  -86.2830   19.5120 C.3       6 GLP5        0.0000 
     44 CA        -52.9405  -86.5505   21.2765 C.3       3 GLC5        0.0000 
     45 N         -52.0155  -82.5400   19.8990 N.am      2 SEC2        0.0000 
     46 N         -53.2440  -83.6610   19.8260 N.am      8 SEL2        0.0000 
     47 N         -50.7870  -81.4190   19.9720 N.am      5 SEP2        0.0000 
     48 CA        -52.1925  -82.9365   18.2930 C.3       3 GLC5        0.0000 
     49 CA        -54.1830  -83.5620   18.8530 C.3       9 GLL5        0.0000 
     50 N         -67.3495  -68.7640   16.7060 N.am      2 SEC2        0.0000 
     51 N         -66.8200  -68.7360   15.3830 N.am      8 SEL2        0.0000 
     52 N         -67.8790  -68.7920   18.0290 N.am      5 SEP2        0.0000 
     53 N         -68.1010  -68.0330   15.7005 N.am      2 SEC2        0.0000 
     54 N         -69.3820  -67.3300   16.0180 N.am      5 SEP2        0.0000 
     55 O         -66.9670  -66.2625   14.1885 O.2       1 ALC1        0.0000 
     56 O         -66.0450  -67.2900   13.8520 O.2       7 ALL1        0.0000 
     57 O         -67.8890  -65.2350   14.5250 O.2       4 ALP1        0.0000 
     58 N         -64.0980  -65.2490   13.2095 N.am      2 SEC2        0.0000 
     59 N         -65.2520  -65.8660   12.2580 N.am      8 SEL2        0.0000 
     60 N         -62.9440  -64.6320   14.1610 N.am      5 SEP2        0.0000 
     61 CA        -61.3360  -68.2305   11.0350 C.3       3 GLC5        0.0000 
     62 CA        -62.3210  -68.7890    9.3990 C.3       9 GLL5        0.0000 
     63 CA        -60.3510  -67.6720   12.6710 C.3       6 GLP5        0.0000 
     64 CA        -58.8660  -69.4085    8.3305 C.3       3 GLC5        0.0000 
     65 CA        -60.7920  -69.5960    7.6000 C.3       9 GLL5        0.0000 
     66 CA        -56.9400  -69.2210    9.0610 C.3       6 GLP5        0.0000 
     67 CA        -60.7160  -71.0330    5.9800 C.3       3 GLC5        0.0000 
     68 CA        -60.6400  -72.4700    4.3600 C.3       6 GLP5        0.0000 
     69 CA        -60.1960  -68.0820    6.8990 C.3       3 GLC5        0.0000 
     70 CA        -59.6000  -66.5680    6.1980 C.3       6 GLP5        0.0000 
     71 CA        -59.9790  -73.4170   10.4465 C.3       3 GLC5        0.0000 
     72 CA        -60.9670  -72.2700    8.7920 C.3       9 GLL5        0.0000 
     73 CA        -58.9910  -74.5640   12.1010 C.3       6 GLP5        0.0000 
     74 CA        -60.8035  -72.3700    6.5760 C.3       3 GLC5        0.0000 
     75 CA        -59.2110  -72.9725    8.4130 C.3       3 GLC5        0.0000 
     76 CA        -57.4550  -73.6750    8.0340 C.3       6 GLP5        0.0000 
     77 CA        -65.5945  -72.3550   11.9260 C.3       3 GLC5        0.0000 
     78 CA        -64.0750  -71.8200   12.7970 C.3       9 GLL5        0.0000 
     79 CA        -67.1140  -72.8900   11.0550 C.3       6 GLP5        0.0000 
     80 CA        -62.9980  -70.2685   15.5130 C.3       3 GLC5        0.0000 
     81 CA        -63.3900  -71.9660   14.1540 C.3       9 GLL5        0.0000 
     82 CA        -62.6060  -68.5710   16.8720 C.3       6 GLP5        0.0000 
     83 CA        -63.3490  -75.3655   13.6120 C.3       3 GLC5        0.0000 
     84 CA        -63.2610  -73.4420   14.5890 C.3       9 GLL5        0.0000 
     85 CA        -63.4370  -77.2890   12.6350 C.3       6 GLP5        0.0000 
     86 N         -65.7300  -73.2445   15.1445 N.am      2 SEC2        0.0000 
     87 N         -64.5310  -74.0970   14.4780 N.am      8 SEL2        0.0000 
     88 N         -66.9290  -72.3920   15.8110 N.am      5 SEP2        0.0000 
     89 O         -65.0870  -74.4830   13.3860 O.2       1 ALC1        0.0000 
     90 O         -64.5310  -74.0970   14.4780 O.2       7 ALL1        0.0000 
     91 O         -65.6430  -74.8690   12.2940 O.2       4 ALP1        0.0000 
     92 N         -60.3045  -73.0890   16.9385 N.am      2 SEC2        0.0000 
     93 N         -61.3740  -73.2070   16.0820 N.am      8 SEL2        0.0000 
     94 N         -59.2350  -72.9710   17.7950 N.am      5 SEP2        0.0000 
     95 CA        -63.4335  -75.6035   18.4665 C.3       3 GLC5        0.0000 
     96 CA        -62.8610  -74.9980   16.5450 C.3       9 GLL5        0.0000 
     97 CA        -64.0060  -76.2090   20.3880 C.3       6 GLP5        0.0000 
     98 CA        -63.4250  -76.5700   15.1495 C.3       3 GLC5        0.0000 
     99 CA        -63.9890  -78.1420   13.7540 C.3       6 GLP5        0.0000 
    100 CA        -54.9669  -84.5304   20.6388 C.3       3 GLC5        0.0000 
    101 CA        -54.6730  -84.7040   18.2400 C.3       9 GLL5        0.0000 
    102 CA        -56.1239  -84.5769   19.2858 C.3       3 GLC5        0.0000 
    103 CA        -57.9440  -84.7100   19.9240 C.3       6 GLP5        0.0000 
    104 CA        -61.9971  -69.4990   12.1526 C.3       3 GLC5        0.0000 
    105 CA        -62.4960  -71.3210   10.5280 C.3       9 GLL5        0.0000 
    106 CA        -61.1660  -68.5210   13.6330 C.3       6 GLP5        0.0000 
    107 CA        -62.9890  -72.7839    9.2725 C.3       3 GLC5        0.0000 
    108 CA        -64.0590  -74.0620    8.7360 C.3       6 GLP5        0.0000 
    109 CA        -62.4492  -70.2070   13.5542 C.3       3 GLC5        0.0000 
    110 CA        -64.7697  -72.6820   15.7222 C.3       3 GLC5        0.0000 
    111 CA        -66.2140  -72.6600   17.0730 C.3       6 GLP5        0.0000 
    112 CA        -62.6063  -73.3972   18.1172 C.3       3 GLC5        0.0000 
    113 CA        -62.7460  -73.5830   16.0200 C.3       9 GLL5        0.0000 
    114 CA        -62.4090  -72.5040   19.9520 C.3       6 GLP5        0.0000 
    115 CA        -64.5087  -73.4753   16.6778 C.3       3 GLC5        0.0000 
@<TRIPOS>BOND
@<TRIPOS>SUBSTRUCTURE
     1 ALC1       33 GROUP        1 X    ALC  0     ROOT ALC X 1
     2 SEC2        1 GROUP        1 X    SEC  0     **** SEC X 2
     3 GLC5        6 GROUP        1 X    GLC  0     **** GLC X 6
     4 ALP1       35 GROUP        1 Y    ALP  0     ROOT ALP Y 8
     5 SEP2        3 GROUP        1 Y    SEP  0     **** SEP Y 9
     6 GLP5        8 GROUP        1 Y    GLP  0     **** GLP Y 13
     7 ALL1       34 GROUP        1 Z    ALL  0     ROOT ALL Z 15
     8 SEL2        2 GROUP        1 Z    SEL  0     **** SEL Z 16
     9 GLL5        7 GROUP        1 Z    GLL  0     **** GLL Z 20
@<TRIPOS>SET

