#    Name: 2e48_FAD_3_ligand
#    Modification time : Tue Mar 25 10:36:14 2014

@<TRIPOS>MOLECULE
2e48_FAD_3_ligand
   84    89     1     0     0
SMALL
NO_CHARGES


@<TRIPOS>ATOM
      1 PA        -58.4720  -76.8220   17.2790 P.3       1 FAD2351     0.0000 
      2 O1A       -57.9710  -75.6190   16.5130 O.co2     1 FAD2351     0.0000 
      3 O2A       -58.9630  -77.9360   16.3810 O.co2     1 FAD2351     0.0000 
      4 O5B       -57.3500  -77.4690   18.2550 O.3       1 FAD2351     0.0000 
      5 C5B       -56.7010  -78.6860   17.8060 C.3       1 FAD2351     0.0000 
      6 C4B       -55.5000  -79.0150   18.6740 C.3       1 FAD2351     0.0000 
      7 O4B       -55.6450  -80.3730   19.1070 O.3       1 FAD2351     0.0000 
      8 C3B       -54.2580  -78.9450   17.7960 C.3       1 FAD2351     0.0000 
      9 O3B       -53.1480  -78.4650   18.5460 O.3       1 FAD2351     0.0000 
     10 C2B       -53.9960  -80.3840   17.4310 C.3       1 FAD2351     0.0000 
     11 O2B       -52.6180  -80.5840   17.0770 O.3       1 FAD2351     0.0000 
     12 C1B       -54.5070  -81.1210   18.6790 C.3       1 FAD2351     0.0000 
     13 N9A       -54.8010  -82.5200   18.3100 N.pl3     1 FAD2351     0.0000 
     14 C8A       -55.6540  -82.9510   17.3710 C.2       1 FAD2351     0.0000 
     15 N7A       -55.5900  -84.3000   17.3230 N.2       1 FAD2351     0.0000 
     16 C5A       -54.6730  -84.7040   18.2400 C.ar      1 FAD2351     0.0000 
     17 C6A       -54.1760  -85.9470   18.6440 C.ar      1 FAD2351     0.0000 
     18 N6A       -54.6280  -87.0910   18.0780 N.pl3     1 FAD2351     0.0000 
     19 N1A       -53.2280  -85.9970   19.6110 N.ar      1 FAD2351     0.0000 
     20 C2A       -52.7800  -84.8680   20.1890 C.ar      1 FAD2351     0.0000 
     21 N3A       -53.2440  -83.6610   19.8260 N.ar      1 FAD2351     0.0000 
     22 C4A       -54.1830  -83.5620   18.8530 C.ar      1 FAD2351     0.0000 
     23 N1        -65.4230  -69.5990   13.8390 N.2       1 FAD2351     0.0000 
     24 C2        -66.1070  -68.5450   14.3720 C.2       1 FAD2351     0.0000 
     25 O2        -66.8200  -68.7360   15.3830 O.2       1 FAD2351     0.0000 
     26 N3        -66.0450  -67.2900   13.8520 N.am      1 FAD2351     0.0000 
     27 C4        -65.3080  -67.0160   12.7490 C.2       1 FAD2351     0.0000 
     28 O4        -65.2520  -65.8660   12.2580 O.2       1 FAD2351     0.0000 
     29 C4X       -64.5520  -68.1250   12.1250 C.2       1 FAD2351     0.0000 
     30 N5        -63.7830  -67.9450   11.0390 N.2       1 FAD2351     0.0000 
     31 C5X       -63.1110  -68.9980   10.5240 C.ar      1 FAD2351     0.0000 
     32 C6        -62.3210  -68.7890    9.3990 C.ar      1 FAD2351     0.0000 
     33 C7        -61.6280  -69.8430    8.8280 C.ar      1 FAD2351     0.0000 
     34 C7M       -60.7920  -69.5960    7.6000 C.3       1 FAD2351     0.0000 
     35 C8        -61.7170  -71.1110    9.3880 C.ar      1 FAD2351     0.0000 
     36 C8M       -60.9670  -72.2700    8.7920 C.3       1 FAD2351     0.0000 
     37 C9        -62.4960  -71.3210   10.5280 C.ar      1 FAD2351     0.0000 
     38 C9A       -63.2100  -70.2680   11.1090 C.ar      1 FAD2351     0.0000 
     39 N10       -63.9620  -70.4730   12.2080 N.pl3     1 FAD2351     0.0000 
     40 C10       -64.6480  -69.4600   12.7420 C.2       1 FAD2351     0.0000 
     41 C1'       -64.0750  -71.8200   12.7970 C.3       1 FAD2351     0.0000 
     42 C2'       -63.3900  -71.9660   14.1540 C.3       1 FAD2351     0.0000 
     43 O2'       -62.0900  -71.3760   13.9940 O.3       1 FAD2351     0.0000 
     44 C3'       -63.2610  -73.4420   14.5890 C.3       1 FAD2351     0.0000 
     45 O3'       -64.5310  -74.0970   14.4780 O.3       1 FAD2351     0.0000 
     46 C4'       -62.7460  -73.5830   16.0200 C.3       1 FAD2351     0.0000 
     47 O4'       -61.3740  -73.2070   16.0820 O.3       1 FAD2351     0.0000 
     48 C5'       -62.8610  -74.9980   16.5450 C.3       1 FAD2351     0.0000 
     49 O5'       -62.0150  -75.1830   17.6830 O.3       1 FAD2351     0.0000 
     50 P         -61.0030  -76.3820   17.4610 P.3       1 FAD2351     0.0000 
     51 O1P       -61.6260  -77.6960   17.8480 O.co2     1 FAD2351     0.0000 
     52 O2P       -60.5230  -76.1600   16.0300 O.co2     1 FAD2351     0.0000 
     53 O3P       -59.6510  -76.3320   18.3050 O.3       1 FAD2351     0.0000 
     54 H         -56.3571  -78.5872   16.7662 H         1 FAD2351     0.0000 
     55 H         -57.3954  -79.5379   17.8424 H         1 FAD2351     0.0000 
     56 H         -55.4244  -78.3381   19.4600 H         1 FAD2351     0.0000 
     57 H         -54.4684  -78.3983   16.9341 H         1 FAD2351     0.0000 
     58 H         -54.6788  -80.6228   16.6216 H         1 FAD2351     0.0000 
     59 H         -53.7138  -81.0765   19.4036 H         1 FAD2351     0.0000 
     60 H         -56.2218  -82.3966   16.8181 H         1 FAD2351     0.0000 
     61 H         -55.2815  -86.9830   17.3288 H         1 FAD2351     0.0000 
     62 H         -54.2683  -87.9426   18.4594 H         1 FAD2351     0.0000 
     63 H         -52.0476  -84.9330   20.9445 H         1 FAD2351     0.0000 
     64 H         -66.5816  -66.5172   14.3179 H         1 FAD2351     0.0000 
     65 H         -62.2527  -67.8449    8.9905 H         1 FAD2351     0.0000 
     66 H         -62.5459  -72.2619   10.9464 H         1 FAD2351     0.0000 
     67 H         -63.6410  -72.5746   12.1100 H         1 FAD2351     0.0000 
     68 H         -65.1424  -72.0946   12.9196 H         1 FAD2351     0.0000 
     69 H         -63.9635  -71.4322   14.8828 H         1 FAD2351     0.0000 
     70 H         -62.5364  -73.9166   13.9257 H         1 FAD2351     0.0000 
     71 H         -63.3405  -72.9364   16.6603 H         1 FAD2351     0.0000 
     72 H         -62.5934  -75.6871   15.7293 H         1 FAD2351     0.0000 
     73 H         -63.9168  -75.1842   16.7949 H         1 FAD2351     0.0000 
     74 H         -60.0708  -68.9246    7.7706 H         1 FAD2351     0.0000 
     75 H         -60.3450  -70.4316    7.2808 H         1 FAD2351     0.0000 
     76 H         -61.3417  -69.2491    6.8401 H         1 FAD2351     0.0000 
     77 H         -59.9796  -72.1115    8.7892 H         1 FAD2351     0.0000 
     78 H         -61.1266  -73.1164    9.3001 H         1 FAD2351     0.0000 
     79 H         -61.2391  -72.4409    7.8450 H         1 FAD2351     0.0000 
     80 H         -52.7846  -77.7024   18.0109 H         1 FAD2351     0.0000 
     81 H         -52.1065  -79.9559   17.6634 H         1 FAD2351     0.0000 
     82 H         -61.5100  -71.8431   14.6614 H         1 FAD2351     0.0000 
     83 H         -64.6713  -74.2247   13.4962 H         1 FAD2351     0.0000 
     84 H         -60.8664  -74.0510   15.9087 H         1 FAD2351     0.0000 
@<TRIPOS>BOND
     1    2    1 ar   
     2    3    1 ar   
     3    4    1 1    
     4   53    1 1    
     5    5    4 1    
     6    6    5 1    
     7   54    5 1    
     8   55    5 1    
     9    7    6 1    
    10    8    6 1    
    11   56    6 1    
    12   12    7 1    
    13    9    8 1    
    14   10    8 1    
    15   57    8 1    
    16   80    9 1    
    17   11   10 1    
    18   12   10 1    
    19   58   10 1    
    20   81   11 1    
    21   13   12 1    
    22   59   12 1    
    23   14   13 1    
    24   22   13 1    
    25   15   14 2    
    26   60   14 1    
    27   16   15 1    
    28   17   16 ar   
    29   22   16 ar   
    30   18   17 1    
    31   19   17 ar   
    32   61   18 1    
    33   62   18 1    
    34   20   19 ar   
    35   21   20 ar   
    36   63   20 1    
    37   22   21 ar   
    38   24   23 1    
    39   40   23 2    
    40   25   24 2    
    41   26   24 am   
    42   27   26 am   
    43   64   26 1    
    44   28   27 2    
    45   29   27 1    
    46   30   29 2    
    47   40   29 1    
    48   31   30 1    
    49   32   31 ar   
    50   38   31 ar   
    51   33   32 ar   
    52   65   32 1    
    53   34   33 1    
    54   35   33 ar   
    55   74   34 1    
    56   75   34 1    
    57   76   34 1    
    58   36   35 1    
    59   37   35 ar   
    60   77   36 1    
    61   78   36 1    
    62   79   36 1    
    63   38   37 ar   
    64   66   37 1    
    65   39   38 1    
    66   40   39 1    
    67   41   39 1    
    68   42   41 1    
    69   67   41 1    
    70   68   41 1    
    71   43   42 1    
    72   44   42 1    
    73   69   42 1    
    74   82   43 1    
    75   45   44 1    
    76   46   44 1    
    77   70   44 1    
    78   83   45 1    
    79   47   46 1    
    80   48   46 1    
    81   71   46 1    
    82   84   47 1    
    83   49   48 1    
    84   72   48 1    
    85   73   48 1    
    86   50   49 1    
    87   51   50 ar   
    88   52   50 ar   
    89   53   50 1    
@<TRIPOS>SUBSTRUCTURE
     1 FAD2351     1 GROUP   
@<TRIPOS>SET

