#    Name: 3ttf_AMP_1_INTS_M
#    Modification time : Mon Mar 24 20:55:31 2014

@<TRIPOS>MOLECULE
3ttf_AMP_1_INTS_M
   45     0    12     0     0
SMALL
NO_CHARGES


@<TRIPOS>ATOM
      1 Zn         22.6870   12.8995   24.1020 Zn        3 ZIC7        0.0000 
      2 Zn         22.8290   13.7580   24.9330 Zn       11 ZIL7        0.0000 
      3 Zn         22.5450   12.0410   23.2710 Zn        7 ZIP7        0.0000 
      4 N          23.7475   13.9700   25.9790 N.am      2 SEC2        0.0000 
      5 N          22.8290   13.7580   24.9330 N.am     10 SEL2        0.0000 
      6 N          24.6660   14.1820   27.0250 N.am      6 SEP2        0.0000 
      7 N          22.3695   16.3345   23.6885 N.am      2 SEC2        0.0000 
      8 N          21.5450   15.9790   24.8540 N.am     10 SEL2        0.0000 
      9 N          23.1940   16.6900   22.5230 N.am      6 SEP2        0.0000 
     10 CA         22.2070   15.2055   27.5980 C.3       4 GLC5        0.0000 
     11 CA         20.2750   15.0390   27.4880 C.3      12 GLL5        0.0000 
     12 CA         24.1390   15.3720   27.7080 C.3       8 GLP5        0.0000 
     13 CA         19.3740   12.0560   28.4915 C.3       4 GLC5        0.0000 
     14 CA         19.8180   14.1740   28.6490 C.3      12 GLL5        0.0000 
     15 CA         18.9300    9.9380   28.3340 C.3       8 GLP5        0.0000 
     16 N          16.8800   12.0280   31.2445 N.am      2 SEC2        0.0000 
     17 N          18.2240   12.9170   30.9190 N.am     10 SEL2        0.0000 
     18 N          15.5360   11.1390   31.5700 N.am      6 SEP2        0.0000 
     19 CA         21.6755   13.2150   31.2950 C.3       4 GLC5        0.0000 
     20 CA         20.3460   14.1740   30.9720 C.3      12 GLL5        0.0000 
     21 CA         23.0050   12.2560   31.6180 C.3       8 GLP5        0.0000 
     22 CA         23.2830   15.3925   32.2575 C.3       4 GLC5        0.0000 
     23 CA         21.8550   16.7420   33.2730 C.3      12 GLL5        0.0000 
     24 CA         24.7110   14.0430   31.2420 C.3       8 GLP5        0.0000 
     25 CA         24.4295   16.7090   35.0675 C.3       4 GLC5        0.0000 
     26 CA         22.5570   16.9690   34.5740 C.3      12 GLL5        0.0000 
     27 CA         26.3020   16.4490   35.5610 C.3       8 GLP5        0.0000 
     28 O          23.5390   18.8670   35.8620 O.2       1 ALC1        0.0000 
     29 O          22.9170   18.1990   35.0160 O.2       9 ALL1        0.0000 
     30 O          24.1610   19.5350   36.7080 O.2       5 ALP1        0.0000 
     31 N          23.8765   15.9440   36.4025 N.am      2 SEC2        0.0000 
     32 N          22.8400   15.8920   35.3320 N.am     10 SEL2        0.0000 
     33 N          24.9130   15.9960   37.4730 N.am      6 SEP2        0.0000 
     34 CA         20.7730   14.8695   35.2760 C.3       4 GLC5        0.0000 
     35 CA         22.5130   14.6410   34.9470 C.3      12 GLL5        0.0000 
     36 CA         19.0330   15.0980   35.6050 C.3       8 GLP5        0.0000 
     37 CA         23.7390   13.5150   34.0690 C.3       4 GLC5        0.0000 
     38 CA         24.9650   12.3890   33.1910 C.3       8 GLP5        0.0000 
     39 CA         24.4075   15.5450   35.2540 C.3       4 GLC5        0.0000 
     40 CA         22.2555   13.8020   32.2700 C.3       4 GLC5        0.0000 
     41 CA         21.5060   15.3480   32.9220 C.3      12 GLL5        0.0000 
     42 CA         17.3798   15.5792   31.2737 C.3       4 GLC5        0.0000 
     43 CA         18.8230   14.2300   30.8420 C.3      12 GLL5        0.0000 
     44 CA         16.0260   16.6590   32.4120 C.3       8 GLP5        0.0000 
     45 CA         20.4445   15.5999   34.5139 C.3       4 GLC5        0.0000 
@<TRIPOS>BOND
@<TRIPOS>SUBSTRUCTURE
     1 ALC1       28 GROUP        1 X    ALC  0     ROOT ALC X 1
     2 SEC2        4 GROUP        1 X    SEC  0     **** SEC X 2
     3 ZIC7        1 GROUP        1 X    ZIC  0     **** ZIC X 5
     4 GLC5       10 GROUP        1 X    GLC  0     **** GLC X 6
     5 ALP1       30 GROUP        1 Y    ALP  0     ROOT ALP Y 8
     6 SEP2        6 GROUP        1 Y    SEP  0     **** SEP Y 9
     7 ZIP7        3 GROUP        1 Y    ZIP  0     **** ZIP Y 12
     8 GLP5       12 GROUP        1 Y    GLP  0     **** GLP Y 13
     9 ALL1       29 GROUP        1 Z    ALL  0     ROOT ALL Z 15
    10 SEL2        5 GROUP        1 Z    SEL  0     **** SEL Z 16
    11 ZIL7        2 GROUP        1 Z    ZIL  0     **** ZIL Z 19
    12 GLL5       11 GROUP        1 Z    GLL  0     **** GLL Z 20
@<TRIPOS>SET

