#    Name: 3ttf_AMP_1_ligand
#    Modification time : Mon Mar 24 20:55:31 2014

@<TRIPOS>MOLECULE
3ttf_AMP_1_ligand
   35    37     1     0     0
SMALL
NO_CHARGES


@<TRIPOS>ATOM
      1 P          21.5360   14.4760   25.1450 P.3       1 AMP747      0.0000 
      2 O1P        22.8290   13.7580   24.9330 O.co2     1 AMP747      0.0000 
      3 O2P        21.5450   15.9790   24.8540 O.co2     1 AMP747      0.0000 
      4 O3P        20.3090   13.7630   24.5550 O.co2     1 AMP747      0.0000 
      5 O5'        21.2810   14.3240   26.7680 O.3       1 AMP747      0.0000 
      6 C5'        20.2750   15.0390   27.4880 C.3       1 AMP747      0.0000 
      7 C4'        19.8180   14.1740   28.6490 C.3       1 AMP747      0.0000 
      8 O4'        20.8710   14.0440   29.6140 O.3       1 AMP747      0.0000 
      9 C3'        18.6440   14.7690   29.4290 C.3       1 AMP747      0.0000 
     10 O3'        17.3760   14.3560   28.9160 O.3       1 AMP747      0.0000 
     11 C2'        18.8230   14.2300   30.8420 C.3       1 AMP747      0.0000 
     12 O2'        18.2240   12.9170   30.9190 O.3       1 AMP747      0.0000 
     13 C1'        20.3460   14.1740   30.9720 C.3       1 AMP747      0.0000 
     14 N9         20.8760   15.3710   31.7170 N.pl3     1 AMP747      0.0000 
     15 C8         20.8100   16.6720   31.3350 C.2       1 AMP747      0.0000 
     16 N7         21.3860   17.5000   32.2580 N.2       1 AMP747      0.0000 
     17 C5         21.8550   16.7420   33.2730 C.ar      1 AMP747      0.0000 
     18 C6         22.5570   16.9690   34.5740 C.ar      1 AMP747      0.0000 
     19 N6         22.9170   18.1990   35.0160 N.pl3     1 AMP747      0.0000 
     20 N1         22.8400   15.8920   35.3320 N.ar      1 AMP747      0.0000 
     21 C2         22.5130   14.6410   34.9470 C.ar      1 AMP747      0.0000 
     22 N3         21.8670   14.3700   33.7910 N.ar      1 AMP747      0.0000 
     23 C4         21.5060   15.3480   32.9220 C.ar      1 AMP747      0.0000 
     24 H          19.4074   15.2557   26.8637 H         1 AMP747      0.0000 
     25 H          20.6567   15.9770   27.8928 H         1 AMP747      0.0000 
     26 H          19.5228   13.2054   28.2897 H         1 AMP747      0.0000 
     27 H          18.7639   15.8253   29.4646 H         1 AMP747      0.0000 
     28 H          18.4402   14.9230   31.5190 H         1 AMP747      0.0000 
     29 H          20.5772   13.2678   31.5359 H         1 AMP747      0.0000 
     30 H          20.4000   16.9853   30.4994 H         1 AMP747      0.0000 
     31 H          23.3375   18.2351   35.9225 H         1 AMP747      0.0000 
     32 H          22.7302   18.9613   34.3963 H         1 AMP747      0.0000 
     33 H          22.7751   13.8298   35.5816 H         1 AMP747      0.0000 
     34 H          17.1284   13.5511   29.4554 H         1 AMP747      0.0000 
     35 H          17.8921   12.8388   31.8591 H         1 AMP747      0.0000 
@<TRIPOS>BOND
     1    2    1 ar   
     2    3    1 ar   
     3    4    1 ar   
     4    5    1 1    
     5    6    5 1    
     6    7    6 1    
     7   24    6 1    
     8   25    6 1    
     9    8    7 1    
    10    9    7 1    
    11   26    7 1    
    12   13    8 1    
    13   10    9 1    
    14   11    9 1    
    15   27    9 1    
    16   34   10 1    
    17   12   11 1    
    18   13   11 1    
    19   28   11 1    
    20   35   12 1    
    21   14   13 1    
    22   29   13 1    
    23   15   14 1    
    24   23   14 1    
    25   16   15 2    
    26   30   15 1    
    27   17   16 1    
    28   18   17 ar   
    29   23   17 ar   
    30   19   18 1    
    31   20   18 ar   
    32   31   19 1    
    33   32   19 1    
    34   21   20 ar   
    35   22   21 ar   
    36   33   21 1    
    37   23   22 ar   
@<TRIPOS>SUBSTRUCTURE
     1 AMP747      1 GROUP   
@<TRIPOS>SET

