#    Name: 3FCE_1_CAVITY_N1_6.mol2
#    Modification time : Mon Mar 10 15:57:18 2014

@<TRIPOS>MOLECULE
3FCE_1_CAVITY_N1_6.mol2
  208     0     7     0     0
SMALL
NO_CHARGES


@<TRIPOS>ATOM
      1 N          26.4764   -3.0677   13.2166 N.2       2 ALA2        0.0000 
      2 N          25.3737   -3.8532   12.5709 N.2       2 ALA2        0.0000 
      3 O          24.6420   -2.5787   12.2702 O.2       2 ALA2        0.0000 
      4 O          23.9104   -1.3043   11.9695 O.2       2 ALA2        0.0000 
      5 N          26.0798   -3.7593   11.2508 N.2       2 ALA2        0.0000 
      6 O          25.3481   -2.4848   10.9501 O.2       2 ALA2        0.0000 
      7 N          27.5175   -4.9399   10.2315 N.2       2 ALA2        0.0000 
      8 DU         26.7859   -3.6654    9.9308 H         7 CUB7        0.0000 
      9 DU         28.2236   -4.8460    8.9114 H         7 CUB7        0.0000 
     10 DU         27.4920   -3.5716    8.6107 H         7 CUB7        0.0000 
     11 O          23.5648   -4.7325   13.2453 O.2       2 ALA2        0.0000 
     12 N          25.0025   -5.9131   12.2259 N.2       2 ALA2        0.0000 
     13 O          24.2709   -4.6386   11.9252 O.2       2 ALA2        0.0000 
     14 CZ         21.3443    0.4592   10.7223 C.ar      5 PHE5        0.0000 
     15 N          25.7086   -5.8192   10.9058 N.2       2 ALA2        0.0000 
     16 O          24.9770   -4.5448   10.6051 O.2       2 ALA2        0.0000 
     17 O          24.2453   -3.2703   10.3044 O.2       2 ALA2        0.0000 
     18 OG         26.4148   -5.7253    9.5858 O.2       1 SER1        0.0000 
     19 DU         25.6831   -4.4509    9.2850 H         7 CUB7        0.0000 
     20 DU         24.9515   -3.1764    8.9843 H         7 CUB7        0.0000 
     21 OG         27.1209   -5.6315    8.2657 O.2       1 SER1        0.0000 
     22 OD1        26.3892   -4.3570    7.9650 O.3       3 ASP3        0.0000 
     23 OD1        27.8270   -5.5376    6.9456 O.3       3 ASP3        0.0000 
     24 CA         16.7365   -2.1640   18.2977 C.3       6 GLY6        0.0000 
     25 OG         18.1743   -3.3446   17.2784 O.2       1 SER1        0.0000 
     26 CA         17.4426   -2.0701   16.9776 C.3       6 GLY6        0.0000 
     27 O          18.1487   -1.9762   15.6576 O.2       2 ALA2        0.0000 
     28 NZ         21.7559   -5.6118   13.9196 N.2       4 LYS4        0.0000 
     29 O          18.8293   -0.5140   12.7167 O.2       2 ALA2        0.0000 
     30 NZ         23.9253   -8.0669   13.2010 N.2       4 LYS4        0.0000 
     31 NZ         23.1937   -6.7924   12.9002 N.2       4 LYS4        0.0000 
     32 O          22.4620   -5.5180   12.5995 O.2       2 ALA2        0.0000 
     33 CZ         19.5354   -0.4201   11.3966 C.ar      5 PHE5        0.0000 
     34 CA         24.6314   -7.9730   11.8809 C.3       6 GLY6        0.0000 
     35 N          23.8998   -6.6986   11.5802 N.2       2 ALA2        0.0000 
     36 O          23.1681   -5.4241   11.2794 O.2       2 ALA2        0.0000 
     37 O          20.2415   -0.3262   10.0766 O.2       2 ALA2        0.0000 
     38 CZ         19.5099    0.9482    9.7758 C.ar      5 PHE5        0.0000 
     39 OG         25.3375   -7.8791   10.5608 O.2       1 SER1        0.0000 
     40 OG         24.6059   -6.6047   10.2601 O.2       1 SER1        0.0000 
     41 O          23.8742   -5.3302    9.9594 O.2       2 ALA2        0.0000 
     42 O          23.1426   -4.0557    9.6586 O.2       2 ALA2        0.0000 
     43 OG         25.3120   -6.5108    8.9400 O.2       1 SER1        0.0000 
     44 DU         24.5803   -5.2363    8.6393 H         7 CUB7        0.0000 
     45 DU         23.8487   -3.9619    8.3386 H         7 CUB7        0.0000 
     46 NZ         26.0181   -6.4169    7.6199 N.2       4 LYS4        0.0000 
     47 OG         25.2864   -5.1424    7.3192 O.2       1 SER1        0.0000 
     48 CZ         18.5603   -8.0473   18.8549 C.ar      5 PHE5        0.0000 
     49 CZ         17.8287   -6.7728   18.5542 C.ar      5 PHE5        0.0000 
     50 CA         15.6337   -2.9494   17.6520 C.3       6 GLY6        0.0000 
     51 CZ         19.2664   -7.9534   17.5348 C.ar      5 PHE5        0.0000 
     52 CZ         18.5348   -6.6789   17.2341 C.ar      5 PHE5        0.0000 
     53 OG         17.8031   -5.4045   16.9334 O.2       1 SER1        0.0000 
     54 CA         17.0715   -4.1300   16.6326 C.3       6 GLY6        0.0000 
     55 O          16.3399   -2.8555   16.3319 O.2       2 ALA2        0.0000 
     56 CZ         19.9726   -7.8595   16.2147 C.ar      5 PHE5        0.0000 
     57 OG         19.2409   -6.5851   15.9140 O.2       1 SER1        0.0000 
     58 OG         18.5093   -5.3106   15.6133 O.2       1 SER1        0.0000 
     59 O          17.7776   -4.0361   15.3126 O.2       2 ALA2        0.0000 
     60 O          17.0460   -2.7617   15.0118 O.2       2 ALA2        0.0000 
     61 NZ         20.6787   -7.7656   14.8947 N.2       4 LYS4        0.0000 
     62 O          19.9470   -6.4912   14.5939 O.2       2 ALA2        0.0000 
     63 O          17.0204   -1.3933   13.3910 O.2       2 ALA2        0.0000 
     64 NZ         22.1164   -8.9462   13.8753 N.2       4 LYS4        0.0000 
     65 NZ         21.3848   -7.6718   13.5746 N.2       4 LYS4        0.0000 
     66 O          20.6531   -6.3973   13.2739 O.2       2 ALA2        0.0000 
     67 O          17.7265   -1.2994   12.0710 O.2       2 ALA2        0.0000 
     68 O          16.9949   -0.0250   11.7702 O.2       2 ALA2        0.0000 
     69 CA         22.8225   -8.8523   12.5552 C.3       6 GLY6        0.0000 
     70 CA         22.0909   -7.5779   12.2545 C.3       6 GLY6        0.0000 
     71 O          21.3592   -6.3034   11.9538 O.2       2 ALA2        0.0000 
     72 O          18.4326   -1.2056   10.7509 O.2       2 ALA2        0.0000 
     73 DU         17.7010    0.0689   10.4502 H         7 CUB7        0.0000 
     74 CA         22.7970   -7.4840   10.9344 C.3       6 GLY6        0.0000 
     75 O          22.0653   -6.2095   10.6337 O.2       2 ALA2        0.0000 
     76 O          19.8704   -2.3861    9.7315 O.2       2 ALA2        0.0000 
     77 DU         19.1388   -1.1117    9.4308 H         7 CUB7        0.0000 
     78 DU         18.4071    0.1628    9.1301 H         7 CUB7        0.0000 
     79 NZ         23.5031   -7.3901    9.6144 N.2       4 LYS4        0.0000 
     80 DU         22.7715   -6.1157    9.3136 H         7 CUB7        0.0000 
     81 O          22.0398   -4.8412    9.0129 O.2       2 ALA2        0.0000 
     82 NZ         24.2092   -7.2962    8.2943 N.2       4 LYS4        0.0000 
     83 OG         23.4776   -6.0218    7.9936 O.2       1 SER1        0.0000 
     84 CA         16.7515   -8.9266   19.5292 C.3       6 GLY6        0.0000 
     85 CA         18.1892  -10.1072   18.5099 C.3       6 GLY6        0.0000 
     86 N          17.4576   -8.8327   18.2091 N.2       2 ALA2        0.0000 
     87 N          16.7259   -7.5583   17.9084 N.2       2 ALA2        0.0000 
     88 CZ         18.1637   -8.7388   16.8891 C.ar      5 PHE5        0.0000 
     89 CA         17.4320   -7.4644   16.5884 C.3       6 GLY6        0.0000 
     90 CZ         18.8698   -8.6450   15.5690 C.ar      5 PHE5        0.0000 
     91 N          18.1381   -7.3705   15.2683 N.2       2 ALA2        0.0000 
     92 CA         15.9432   -3.5471   14.3661 C.3       6 GLY6        0.0000 
     93 N          20.3075   -9.8255   14.5496 N.2       2 ALA2        0.0000 
     94 N          19.5759   -8.5511   14.2489 N.2       2 ALA2        0.0000 
     95 N          18.8442   -7.2766   13.9482 N.2       2 ALA2        0.0000 
     96 O          16.6493   -3.4532   13.0460 O.2       2 ALA2        0.0000 
     97 NZ         15.9177   -2.1788   12.7453 N.2       4 LYS4        0.0000 
     98 N          20.2820   -8.4572   12.9289 N.2       2 ALA2        0.0000 
     99 O          19.5504   -7.1827   12.6281 O.2       2 ALA2        0.0000 
    100 O          16.6238   -2.0849   11.4252 O.2       2 ALA2        0.0000 
    101 N          15.8921   -0.8104   11.1245 N.2       2 ALA2        0.0000 
    102 CA         20.9881   -8.3633   11.6088 C.3       6 GLY6        0.0000 
    103 O          20.2565   -7.0889   11.3081 O.2       2 ALA2        0.0000 
    104 O          18.0615   -3.2655   10.4059 O.2       2 ALA2        0.0000 
    105 OD1        17.3299   -1.9910   10.1052 O.3       3 ASP3        0.0000 
    106 DU         16.5982   -0.7165    9.8044 H         7 CUB7        0.0000 
    107 CA         21.6942   -8.2694   10.2887 C.3       6 GLY6        0.0000 
    108 DU         20.9626   -6.9950    9.9880 H         7 CUB7        0.0000 
    109 O          20.2309   -5.7205    9.6873 O.2       2 ALA2        0.0000 
    110 OD1        19.4993   -4.4461    9.3865 O.3       3 ASP3        0.0000 
    111 OD1        18.7676   -3.1716    9.0858 O.3       3 ASP3        0.0000 
    112 OD1        18.0360   -1.8971    8.7851 O.3       3 ASP3        0.0000 
    113 DU         17.3043   -0.6227    8.4844 H         7 CUB7        0.0000 
    114 NZ         22.4003   -8.1756    8.9686 N.2       4 LYS4        0.0000 
    115 OG         21.6687   -6.9011    8.6679 O.2       1 SER1        0.0000 
    116 OG         20.9370   -5.6266    8.3672 O.2       1 SER1        0.0000 
    117 OD1        20.2054   -4.3522    8.0665 O.3       3 ASP3        0.0000 
    118 OG         19.4737   -3.0777    7.7657 O.2       1 SER1        0.0000 
    119 OG         18.7421   -1.8032    7.4650 O.2       1 SER1        0.0000 
    120 OD1        18.0104   -0.5288    7.1643 O.3       3 ASP3        0.0000 
    121 NZ         23.1064   -8.0817    7.6486 N.2       4 LYS4        0.0000 
    122 OG         20.9115   -4.2583    6.7464 O.2       1 SER1        0.0000 
    123 N          16.3548   -9.6182   17.5634 N.2       2 ALA2        0.0000 
    124 CA         17.7925  -10.7988   16.5441 C.3       6 GLY6        0.0000 
    125 O          17.0609   -9.5243   16.2433 O.2       2 ALA2        0.0000 
    126 O          17.7670   -9.4304   14.9233 O.2       2 ALA2        0.0000 
    127 N          18.4731   -9.3365   13.6032 N.2       2 ALA2        0.0000 
    128 NZ         14.8149   -2.9642   12.0996 N.2       4 LYS4        0.0000 
    129 N          19.1792   -9.2427   12.2831 N.2       2 ALA2        0.0000 
    130 N          18.4476   -7.9682   11.9824 N.2       2 ALA2        0.0000 
    131 CA         15.5210   -2.8703   10.7795 C.3       6 GLY6        0.0000 
    132 N          14.7893   -1.5959   10.4788 N.2       2 ALA2        0.0000 
    133 N          19.8853   -9.1488   10.9630 N.2       2 ALA2        0.0000 
    134 OD1        19.1537   -7.8743   10.6623 O.3       3 ASP3        0.0000 
    135 CA         15.4955   -1.5020    9.1587 C.3       6 GLY6        0.0000 
    136 O          20.5915   -9.0549    9.6430 O.2       2 ALA2        0.0000 
    137 DU         19.8598   -7.7804    9.3422 H         7 CUB7        0.0000 
    138 OD1        19.1282   -6.5060    9.0415 O.3       3 ASP3        0.0000 
    139 OD1        16.9332   -2.6826    8.1394 O.3       3 ASP3        0.0000 
    140 CA         16.2016   -1.4081    7.8386 C.3       6 GLY6        0.0000 
    141 OG         21.2976   -8.9610    8.3229 O.2       1 SER1        0.0000 
    142 OG         20.5659   -7.6866    8.0222 O.2       1 SER1        0.0000 
    143 OD1        19.8343   -6.4121    7.7215 O.3       3 ASP3        0.0000 
    144 OD1        19.1026   -5.1376    7.4207 O.3       3 ASP3        0.0000 
    145 OD1        18.3710   -3.8632    7.1200 O.3       3 ASP3        0.0000 
    146 OG         17.6393   -2.5887    6.8193 O.2       1 SER1        0.0000 
    147 DU         16.9077   -1.3142    6.5186 H         7 CUB7        0.0000 
    148 OD1        16.1760   -0.0398    6.2178 O.3       3 ASP3        0.0000 
    149 OG         22.0037   -8.8671    7.0028 O.2       1 SER1        0.0000 
    150 OG         21.2720   -7.5927    6.7021 O.2       1 SER1        0.0000 
    151 OG         20.5404   -6.3182    6.4014 O.2       1 SER1        0.0000 
    152 OG         19.8087   -5.0437    6.1007 O.2       1 SER1        0.0000 
    153 OG         17.6138   -1.2204    5.1985 O.2       1 SER1        0.0000 
    154 OD1        16.8821    0.0541    4.8978 O.3       3 ASP3        0.0000 
    155 N          18.0765  -10.0281   11.6374 N.2       2 ALA2        0.0000 
    156 CA         17.3448   -8.7536   11.3367 C.3       6 GLY6        0.0000 
    157 N          19.5142  -11.2087   10.6180 N.2       2 ALA2        0.0000 
    158 N          18.7826   -9.9342   10.3173 N.2       2 ALA2        0.0000 
    159 CZ         18.0509   -8.6598   10.0166 C.ar      5 PHE5        0.0000 
    160 CA         14.3927   -2.2874    8.5130 C.3       6 GLY6        0.0000 
    161 OG         19.4887   -9.8403    8.9972 O.2       1 SER1        0.0000 
    162 OG         18.7570   -8.5659    8.6965 O.2       1 SER1        0.0000 
    163 OD1        18.0254   -7.2914    8.3958 O.3       3 ASP3        0.0000 
    164 CA         15.0988   -2.1936    7.1929 C.3       6 GLY6        0.0000 
    165 OG         19.4631   -8.4720    7.3764 O.2       1 SER1        0.0000 
    166 OD1        18.7315   -7.1975    7.0757 O.3       3 ASP3        0.0000 
    167 OD1        17.9999   -5.9231    6.7750 O.3       3 ASP3        0.0000 
    168 OD1        17.2682   -4.6486    6.4743 O.3       3 ASP3        0.0000 
    169 CA         16.5366   -3.3741    6.1735 C.3       6 GLY6        0.0000 
    170 DU         15.8049   -2.0997    5.8728 H         7 CUB7        0.0000 
    171 OG         20.1693   -8.3781    6.0564 O.2       1 SER1        0.0000 
    172 OG         19.4376   -7.1037    5.7556 O.2       1 SER1        0.0000 
    173 OG         18.7060   -5.8292    5.4549 O.2       1 SER1        0.0000 
    174 OG         17.9743   -4.5547    5.1542 O.2       1 SER1        0.0000 
    175 OG         17.2427   -3.2803    4.8535 O.2       1 SER1        0.0000 
    176 OG         16.5110   -2.0058    4.5528 O.2       1 SER1        0.0000 
    177 CA         20.8754   -8.2842    4.7363 C.3       6 GLY6        0.0000 
    178 O          19.4121   -5.7353    4.1348 O.2       2 ALA2        0.0000 
    179 CA         17.2171   -1.9119    3.2327 C.3       6 GLY6        0.0000 
    180 N          17.7053  -12.0880   11.2924 N.2       2 ALA2        0.0000 
    181 CA         16.9737  -10.8135   10.9917 C.3       6 GLY6        0.0000 
    182 CA         16.2420   -9.5391   10.6909 C.3       6 GLY6        0.0000 
    183 NZ         18.4114  -11.9941    9.9723 N.2       4 LYS4        0.0000 
    184 NZ         17.6798  -10.7197    9.6716 N.2       4 LYS4        0.0000 
    185 OG         18.3604   -9.2574    6.7307 O.2       1 SER1        0.0000 
    186 CZ         17.6287   -7.9830    6.4300 C.ar      5 PHE5        0.0000 
    187 O          16.8971   -6.7085    6.1293 O.2       2 ALA2        0.0000 
    188 O          15.4338   -4.1596    5.5278 O.2       2 ALA2        0.0000 
    189 OG         19.0665   -9.1636    5.4106 O.2       1 SER1        0.0000 
    190 DU         18.3348   -7.8891    5.1099 H         7 CUB7        0.0000 
    191 O          17.6032   -6.6146    4.8092 O.2       2 ALA2        0.0000 
    192 O          16.8715   -5.3402    4.5085 O.2       2 ALA2        0.0000 
    193 O          16.1399   -4.0657    4.2077 O.2       2 ALA2        0.0000 
    194 N          19.7726   -9.0697    4.0906 N.2       2 ALA2        0.0000 
    195 N          19.0409   -7.7952    3.7898 N.2       2 ALA2        0.0000 
    196 O          18.3093   -6.5208    3.4891 O.2       2 ALA2        0.0000 
    197 CA         17.5777   -5.2463    3.1884 C.3       6 GLY6        0.0000 
    198 CA         16.8460   -3.9718    2.8877 C.3       6 GLY6        0.0000 
    199 CA         18.2838   -5.1524    1.8683 C.3       6 GLY6        0.0000 
    200 O          15.1648  -11.6929   11.6660 O.2       2 ALA2        0.0000 
    201 NZ         15.8709  -11.5990   10.3459 N.2       4 LYS4        0.0000 
    202 O          17.9637   -9.9490    4.7649 O.2       2 ALA2        0.0000 
    203 CZ         17.2321   -8.6746    4.4642 C.ar      5 PHE5        0.0000 
    204 N          17.9382   -8.5807    3.1441 N.2       2 ALA2        0.0000 
    205 N          17.2065   -7.3062    2.8434 N.2       2 ALA2        0.0000 
    206 O          16.4749   -6.0317    2.5427 O.2       2 ALA2        0.0000 
    207 N          17.9126   -7.2123    1.5233 N.2       2 ALA2        0.0000 
    208 O          17.1810   -5.9379    1.2226 O.2       2 ALA2        0.0000 
@<TRIPOS>BOND
@<TRIPOS>SUBSTRUCTURE
     1 SER1       18 GROUP   
     2 ALA2        1 GROUP   
     3 ASP3       22 GROUP   
     4 LYS4       28 GROUP   
     5 PHE5       14 GROUP   
     6 GLY6       24 GROUP   
     7 CUB7        8 GROUP   
@<TRIPOS>SET

