#    Name: 3fce_ATP_1_INTS_M
#    Modification time : Tue Mar 25 03:33:29 2014

@<TRIPOS>MOLECULE
3fce_ATP_1_INTS_M
   67     0    12     0     0
SMALL
NO_CHARGES


@<TRIPOS>ATOM
      1 N          21.8820   -5.7275    5.3660 N.am      2 SEC2        0.0000 
      2 N          20.8900   -4.9720    5.6370 N.am     10 SEL2        0.0000 
      3 N          22.8740   -6.4830    5.0950 N.am      6 SEP2        0.0000 
      4 N          20.4890   -3.9255    4.8130 N.am      2 SEC2        0.0000 
      5 N          20.0880   -2.8790    3.9890 N.am      6 SEP2        0.0000 
      6 NZ         19.2770   -4.5020   11.1910 N.4       3 LYC4        0.0000 
      7 NZ         19.0950   -5.1160    9.9350 N.4      11 LYL4        0.0000 
      8 NZ         20.5080   -3.1300   12.7500 N.4       7 LYP4        0.0000 
      9 NZ         17.8250   -5.2305    9.6190 N.4       3 LYC4        0.0000 
     10 NZ         16.5550   -5.3450    9.3030 N.4       7 LYP4        0.0000 
     11 N          19.2770   -4.5020   11.1910 N.am      2 SEC2        0.0000 
     12 N          19.0950   -5.1160    9.9350 N.am     10 SEL2        0.0000 
     13 N          19.4590   -3.8880   12.4470 N.am      6 SEP2        0.0000 
     14 NZ         21.5425   -4.2430   10.8690 N.4       3 LYC4        0.0000 
     15 NZ         21.4780   -5.2890    9.7320 N.4      11 LYL4        0.0000 
     16 N          21.5425   -4.2430   10.8690 N.am      2 SEC2        0.0000 
     17 N          21.4780   -5.2890    9.7320 N.am     10 SEL2        0.0000 
     18 N          21.6070   -3.1970   12.0060 N.am      6 SEP2        0.0000 
     19 NZ         17.4890   -7.0465    8.8990 N.4       3 LYC4        0.0000 
     20 NZ         18.4230   -8.7480    8.4950 N.4      11 LYL4        0.0000 
     21 N          21.4100  -10.5145    9.0385 N.am      2 SEC2        0.0000 
     22 N          20.8020   -9.1210    8.9600 N.am     10 SEL2        0.0000 
     23 N          22.0180  -11.9080    9.1170 N.am      6 SEP2        0.0000 
     24 N          20.5855  -10.0920    7.9305 N.am      2 SEC2        0.0000 
     25 N          20.3690  -11.0630    6.9010 N.am      6 SEP2        0.0000 
     26 CA         21.4345   -9.9150   11.6335 C.3       4 GLC5        0.0000 
     27 CA         20.4000   -8.3050   11.7940 C.3      12 GLL5        0.0000 
     28 CA         22.4690  -11.5250   11.4730 C.3       8 GLP5        0.0000 
     29 O          23.3225   -7.6170   14.7590 O.2       1 ALC1        0.0000 
     30 O          22.7240   -7.5350   13.6340 O.2       9 ALL1        0.0000 
     31 O          23.9210   -7.6990   15.8840 O.2       5 ALP1        0.0000 
     32 N          20.9115   -4.9405   16.3980 N.am      2 SEC2        0.0000 
     33 N          21.2330   -5.7550   15.3210 N.am     10 SEL2        0.0000 
     34 N          20.5900   -4.1260   17.4750 N.am      6 SEP2        0.0000 
     35 O          22.5770   -6.7270   15.6025 O.2       1 ALC1        0.0000 
     36 O          21.2330   -5.7550   15.3210 O.2       9 ALL1        0.0000 
     37 O          22.6115   -5.6325   15.6200 O.2       1 ALC1        0.0000 
     38 O          23.9900   -5.5100   15.9190 O.2       5 ALP1        0.0000 
     39 N          16.2990  -10.1890   15.0445 N.am      2 SEC2        0.0000 
     40 N          17.5990  -10.0890   15.9590 N.am     10 SEL2        0.0000 
     41 N          14.9990  -10.2890   14.1300 N.am      6 SEP2        0.0000 
     42 CA         16.2975   -9.1730   15.1810 C.3       4 GLC5        0.0000 
     43 CA         17.4170   -9.2690   17.0190 C.3      12 GLL5        0.0000 
     44 CA         15.1780   -9.0770   13.3430 C.3       8 GLP5        0.0000 
     45 CA         17.4860  -10.0065   20.0215 C.3       4 GLC5        0.0000 
     46 CA         16.7870   -9.3990   18.2610 C.3      12 GLL5        0.0000 
     47 CA         18.1850  -10.6140   21.7820 C.3       8 GLP5        0.0000 
     48 O          14.7775  -11.2145   19.4235 O.2       1 ALC1        0.0000 
     49 O          16.1750  -10.5520   18.6230 O.2       9 ALL1        0.0000 
     50 O          13.3800  -11.8770   20.2240 O.2       5 ALP1        0.0000 
     51 O          16.0495  -11.8045   18.1625 O.2       1 ALC1        0.0000 
     52 O          15.9240  -13.0570   17.7020 O.2       5 ALP1        0.0000 
     53 CA         16.0035   -6.7220   17.3700 C.3       4 GLC5        0.0000 
     54 CA         17.4240   -7.0900   18.7960 C.3      12 GLL5        0.0000 
     55 CA         14.5830   -6.3540   15.9440 C.3       8 GLP5        0.0000 
     56 CA         15.7940   -6.4270   19.2280 C.3       4 GLC5        0.0000 
     57 CA         14.1640   -5.7640   19.6600 C.3       8 GLP5        0.0000 
     58 CA         18.9290   -7.3815   20.3605 C.3       4 GLC5        0.0000 
     59 CA         20.4340   -7.6730   21.9250 C.3       8 GLP5        0.0000 
     60 CA         21.5293   -8.7718   15.9322 C.3       4 GLC5        0.0000 
     61 CA         20.7270   -7.2050   15.1870 C.3      12 GLL5        0.0000 
     62 CA         21.9910  -10.0200   17.3090 C.3       8 GLP5        0.0000 
     63 CA         20.7035   -6.6307   16.8038 C.3       4 GLC5        0.0000 
     64 CA         21.4210   -6.0760   18.5960 C.3       8 GLP5        0.0000 
     65 CA         18.2665  -10.9535   18.1140 C.3       4 GLC5        0.0000 
     66 CA         19.4310  -12.5730   18.5880 C.3       8 GLP5        0.0000 
     67 CA         16.0715   -7.5225   16.5652 C.3       4 GLC5        0.0000 
@<TRIPOS>BOND
@<TRIPOS>SUBSTRUCTURE
     1 ALC1       29 GROUP        1 X    ALC  0     ROOT ALC X 1
     2 SEC2        1 GROUP        1 X    SEC  0     **** SEC X 2
     3 LYC4        6 GROUP        1 X    LYC  0     **** LYC X 4
     4 GLC5       26 GROUP        1 X    GLC  0     **** GLC X 6
     5 ALP1       31 GROUP        1 Y    ALP  0     ROOT ALP Y 8
     6 SEP2        3 GROUP        1 Y    SEP  0     **** SEP Y 9
     7 LYP4        8 GROUP        1 Y    LYP  0     **** LYP Y 11
     8 GLP5       28 GROUP        1 Y    GLP  0     **** GLP Y 13
     9 ALL1       30 GROUP        1 Z    ALL  0     ROOT ALL Z 15
    10 SEL2        2 GROUP        1 Z    SEL  0     **** SEL Z 16
    11 LYL4        7 GROUP        1 Z    LYL  0     **** LYL Z 18
    12 GLL5       27 GROUP        1 Z    GLL  0     **** GLL Z 20
@<TRIPOS>SET

