#    Name: 3fce_ATP_1_ligand
#    Modification time : Tue Mar 25 03:33:29 2014

@<TRIPOS>MOLECULE
3fce_ATP_1_ligand
   43    45     1     0     0
SMALL
NO_CHARGES


@<TRIPOS>ATOM
      1 PG         21.3230   -4.1200    6.7250 P.3       1 ATP711      0.0000 
      2 O1G        22.5960   -4.5680    7.2250 O.co2     1 ATP711      0.0000 
      3 O2G        21.4590   -2.7100    6.2240 O.co2     1 ATP711      0.0000 
      4 O3G        20.8900   -4.9720    5.6370 O.co2     1 ATP711      0.0000 
      5 PB         20.2250   -5.3360    9.0000 P.3       1 ATP711      0.0000 
      6 O1B        19.0950   -5.1160    9.9350 O.co2     1 ATP711      0.0000 
      7 O2B        21.4780   -5.2890    9.7320 O.co2     1 ATP711      0.0000 
      8 O3B        20.2130   -4.1730    7.9040 O.3       1 ATP711      0.0000 
      9 PA         19.6960   -8.1470    9.0980 P.3       1 ATP711      0.0000 
     10 O1A        18.4230   -8.7480    8.4950 O.co2     1 ATP711      0.0000 
     11 O2A        20.8020   -9.1210    8.9600 O.co2     1 ATP711      0.0000 
     12 O3A        20.0700   -6.7790    8.2760 O.3       1 ATP711      0.0000 
     13 O5'        19.4240   -7.8350   10.7120 O.3       1 ATP711      0.0000 
     14 C5'        20.4000   -8.3050   11.7940 C.3       1 ATP711      0.0000 
     15 C4'        20.4370   -7.3970   12.7690 C.3       1 ATP711      0.0000 
     16 O4'        19.1040   -7.2720   13.4030 O.3       1 ATP711      0.0000 
     17 C3'        21.4080   -7.8420   13.9240 C.3       1 ATP711      0.0000 
     18 O3'        22.7240   -7.5350   13.6340 O.3       1 ATP711      0.0000 
     19 C2'        20.7270   -7.2050   15.1870 C.3       1 ATP711      0.0000 
     20 O2'        21.2330   -5.7550   15.3210 O.3       1 ATP711      0.0000 
     21 C1'        19.2450   -7.1660   14.8360 C.3       1 ATP711      0.0000 
     22 N9         18.5600   -8.1470   15.4950 N.pl3     1 ATP711      0.0000 
     23 C8         18.2710   -9.4510   15.0450 C.2       1 ATP711      0.0000 
     24 N7         17.5990  -10.0890   15.9590 N.2       1 ATP711      0.0000 
     25 C5         17.4170   -9.2690   17.0190 C.ar      1 ATP711      0.0000 
     26 C6         16.7870   -9.3990   18.2610 C.ar      1 ATP711      0.0000 
     27 N6         16.1750  -10.5520   18.6230 N.pl3     1 ATP711      0.0000 
     28 N1         16.7930   -8.3090   19.1470 N.ar      1 ATP711      0.0000 
     29 C2         17.4240   -7.0900   18.7960 C.ar      1 ATP711      0.0000 
     30 N3         18.0450   -6.9200   17.6030 N.ar      1 ATP711      0.0000 
     31 C4         18.0180   -8.0480   16.7330 C.ar      1 ATP711      0.0000 
     32 H          21.3694   -8.4652   11.2861 H         1 ATP711      0.0000 
     33 H          20.0463   -9.3023   12.1159 H         1 ATP711      0.0000 
     34 H          20.7649   -6.4163   12.4714 H         1 ATP711      0.0000 
     35 H          21.2117   -8.9306   14.0123 H         1 ATP711      0.0000 
     36 H          20.9125   -7.7646   16.0120 H         1 ATP711      0.0000 
     37 H          18.8957   -6.1595   15.1421 H         1 ATP711      0.0000 
     38 H          18.5578   -9.7685   14.1720 H         1 ATP711      0.0000 
     39 H          16.1744  -11.2829   17.9405 H         1 ATP711      0.0000 
     40 H          15.7780  -10.5701   19.5406 H         1 ATP711      0.0000 
     41 H          17.3956   -6.3149   19.4950 H         1 ATP711      0.0000 
     42 H          23.2623   -8.0417   14.3075 H         1 ATP711      0.0000 
     43 H          22.1971   -5.8397   15.5727 H         1 ATP711      0.0000 
@<TRIPOS>BOND
     1    2    1 ar   
     2    3    1 ar   
     3    4    1 ar   
     4    8    1 1    
     5    6    5 ar   
     6    7    5 ar   
     7    8    5 1    
     8   12    5 1    
     9   10    9 ar   
    10   11    9 ar   
    11   12    9 1    
    12   13    9 1    
    13   14   13 1    
    14   15   14 1    
    15   32   14 1    
    16   33   14 1    
    17   16   15 1    
    18   17   15 1    
    19   34   15 1    
    20   21   16 1    
    21   18   17 1    
    22   19   17 1    
    23   35   17 1    
    24   42   18 1    
    25   20   19 1    
    26   21   19 1    
    27   36   19 1    
    28   43   20 1    
    29   22   21 1    
    30   37   21 1    
    31   23   22 1    
    32   31   22 1    
    33   24   23 2    
    34   38   23 1    
    35   25   24 1    
    36   26   25 ar   
    37   31   25 ar   
    38   27   26 1    
    39   28   26 ar   
    40   39   27 1    
    41   40   27 1    
    42   29   28 ar   
    43   30   29 ar   
    44   41   29 1    
    45   31   30 ar   
@<TRIPOS>SUBSTRUCTURE
     1 ATP711      1 GROUP   
@<TRIPOS>SET

