#    Name: 2NT7_1_CAVITY_N1_ALL.mol2
#    Modification time : Tue Mar 11 00:36:57 2014

@<TRIPOS>MOLECULE
2NT7_1_CAVITY_N1_ALL.mol2
   58     0     5     0     0
SMALL
NO_CHARGES


@<TRIPOS>ATOM
      1 OD1        53.0205    7.2381    2.5073 O.3       2 ASP3        0.0000 
      2 O          52.0500    8.0776    1.7306 O.2       1 ALA2        0.0000 
      3 CA         53.8928    4.5306    4.2845 C.3       4 GLY6        0.0000 
      4 CA         52.9223    5.3701    3.5078 C.3       4 GLY6        0.0000 
      5 DU         51.9518    6.2096    2.7310 H         5 CUB7        0.0000 
      6 DU         50.9813    7.0491    1.9542 H         5 CUB7        0.0000 
      7 N          50.0108    7.8886    1.1774 N.2       1 ALA2        0.0000 
      8 N          53.7946    2.6626    5.2850 N.2       1 ALA2        0.0000 
      9 DU         52.8241    3.5021    4.5082 H         5 CUB7        0.0000 
     10 DU         49.9126    6.0206    2.1779 H         5 CUB7        0.0000 
     11 N          53.6964    0.7946    6.2854 N.2       1 ALA2        0.0000 
     12 DU         52.7259    1.6341    5.5086 H         5 CUB7        0.0000 
     13 DU         49.8144    4.1525    3.1783 H         5 CUB7        0.0000 
     14 CA         52.6277   -0.2340    6.5090 C.3       4 GLY6        0.0000 
     15 NZ         51.6572    0.6055    5.7323 N.2       3 LYS4        0.0000 
     16 DU         50.6867    1.4450    4.9555 H         5 CUB7        0.0000 
     17 DU         49.7162    2.2845    4.1787 H         5 CUB7        0.0000 
     18 CA         48.7457    3.1240    3.4019 C.3       4 GLY6        0.0000 
     19 NZ         49.6180    0.4165    5.1791 N.2       3 LYS4        0.0000 
     20 NZ         48.5493   -0.6120    5.4028 N.2       3 LYS4        0.0000 
     21 O          53.5835    7.0967    4.5477 O.2       1 ALA2        0.0000 
     22 O          52.6130    7.9362    3.7709 O.2       1 ALA2        0.0000 
     23 N          51.6425    8.7757    2.9941 N.2       1 ALA2        0.0000 
     24 O          53.4853    5.2287    5.5481 O.2       1 ALA2        0.0000 
     25 O          52.5148    6.0682    4.7713 O.2       1 ALA2        0.0000 
     26 CA         51.5443    6.9077    3.9946 C.3       4 GLY6        0.0000 
     27 N          50.5738    7.7472    3.2178 N.2       1 ALA2        0.0000 
     28 CA         53.3871    3.3607    6.5485 C.3       4 GLY6        0.0000 
     29 O          52.4166    4.2002    5.7718 O.2       1 ALA2        0.0000 
     30 O          51.4461    5.0397    4.9950 O.2       1 ALA2        0.0000 
     31 CA         50.4756    5.8792    4.2182 C.3       4 GLY6        0.0000 
     32 DU         49.5051    6.7187    3.4414 H         5 CUB7        0.0000 
     33 N          48.5346    7.5582    2.6647 N.2       1 ALA2        0.0000 
     34 CA         47.5641    8.3977    1.8879 C.3       4 GLY6        0.0000 
     35 N          53.2889    1.4927    7.5490 N.2       1 ALA2        0.0000 
     36 N          52.3184    2.3322    6.7722 N.2       1 ALA2        0.0000 
     37 DU         51.3479    3.1717    5.9954 H         5 CUB7        0.0000 
     38 CA         50.3774    4.0112    5.2186 C.3       4 GLY6        0.0000 
     39 CA         49.4069    4.8507    4.4419 C.3       4 GLY6        0.0000 
     40 N          48.4364    5.6902    3.6651 N.2       1 ALA2        0.0000 
     41 N          51.2497    1.3037    6.9958 N.2       1 ALA2        0.0000 
     42 CA         50.2792    2.1432    6.2191 C.3       4 GLY6        0.0000 
     43 CA         49.3087    2.9826    5.4423 C.3       4 GLY6        0.0000 
     44 NZ         50.1810    0.2751    7.2195 N.2       3 LYS4        0.0000 
     45 CA         49.2105    1.1146    6.4427 C.3       4 GLY6        0.0000 
     46 N          50.1664    8.4453    4.4813 N.2       1 ALA2        0.0000 
     47 CA         52.9797    4.0588    7.8121 C.3       4 GLY6        0.0000 
     48 O          52.0092    4.8983    7.0353 O.2       1 ALA2        0.0000 
     49 CA         50.0682    6.5773    5.4818 C.3       4 GLY6        0.0000 
     50 CA         49.0977    7.4168    4.7050 C.3       4 GLY6        0.0000 
     51 CA         48.1272    8.2563    3.9282 C.3       4 GLY6        0.0000 
     52 N          51.9110    3.0303    8.0357 N.2       1 ALA2        0.0000 
     53 CA         50.9405    3.8698    7.2590 C.3       4 GLY6        0.0000 
     54 CA         49.9700    4.7093    6.4822 C.3       4 GLY6        0.0000 
     55 CA         48.9995    5.5488    5.7054 C.3       4 GLY6        0.0000 
     56 CA         48.0290    6.3883    4.9286 C.3       4 GLY6        0.0000 
     57 N          47.0585    7.2278    4.1519 N.2       1 ALA2        0.0000 
     58 N          50.8423    2.0018    8.2594 N.2       1 ALA2        0.0000 
@<TRIPOS>BOND
@<TRIPOS>SUBSTRUCTURE
     1 ALA2        2 GROUP   
     2 ASP3        1 GROUP   
     3 LYS4       15 GROUP   
     4 GLY6        3 GROUP   
     5 CUB7        5 GROUP   
@<TRIPOS>SET

