#    Name: 2nt7_902_1_INTS_M
#    Modification time : Tue Mar 25 21:34:24 2014

@<TRIPOS>MOLECULE
2nt7_902_1_INTS_M
   60     0     9     0     0
SMALL
NO_CHARGES


@<TRIPOS>ATOM
      1 CA         45.0960   18.3450    1.3560 C.3       3 GLC5        0.0000 
      2 CA         44.1870   16.3180    1.1490 C.3       9 GLL5        0.0000 
      3 CA         46.0050   20.3720    1.5630 C.3       6 GLP5        0.0000 
      4 CA         42.7685   16.5855    2.5520 C.3       3 GLC5        0.0000 
      5 CA         41.3500   16.8530    3.9550 C.3       6 GLP5        0.0000 
      6 CA         45.5940   12.7300    4.3440 C.3       3 GLC5        0.0000 
      7 CA         47.5540   12.9350    3.8880 C.3       9 GLL5        0.0000 
      8 CA         43.6340   12.5250    4.8000 C.3       6 GLP5        0.0000 
      9 CA         47.3075   12.0995    5.3150 C.3       3 GLC5        0.0000 
     10 CA         47.0610   11.2640    6.7420 C.3       6 GLP5        0.0000 
     11 CA         48.2810   13.9435    5.6800 C.3       3 GLC5        0.0000 
     12 CA         49.0080   14.9520    7.4720 C.3       6 GLP5        0.0000 
     13 CA         48.7380   16.3635    2.0045 C.3       3 GLC5        0.0000 
     14 CA         47.3170   16.4660    3.4630 C.3       9 GLL5        0.0000 
     15 CA         50.1590   16.2610    0.5460 C.3       6 GLP5        0.0000 
     16 NZ         46.3890   18.6895    5.8675 N.4       2 LYC4        0.0000 
     17 NZ         46.9340   17.2730    5.7050 N.4       8 LYL4        0.0000 
     18 NZ         44.8650   20.6150    5.2830 N.4       5 LYP4        0.0000 
     19 N          47.6380   17.1970    6.9980 N.am      1 SEC2        0.0000 
     20 N          46.9340   17.2730    5.7050 N.am      7 SEL2        0.0000 
     21 N          48.3420   17.1210    8.2910 N.am      4 SEP2        0.0000 
     22 N          46.3890   18.6895    5.8675 N.am      1 SEC2        0.0000 
     23 N          45.8440   20.1060    6.0300 N.am      4 SEP2        0.0000 
     24 N          48.9500   18.6500    3.6625 N.am      1 SEC2        0.0000 
     25 N          48.7950   17.7890    4.7820 N.am      7 SEL2        0.0000 
     26 N          49.1050   19.5110    2.5430 N.am      4 SEP2        0.0000 
     27 N          50.0295   18.1185    5.3590 N.am      1 SEC2        0.0000 
     28 N          51.2640   18.4480    5.9360 N.am      4 SEP2        0.0000 
     29 CA         48.1840    8.9440    4.3850 C.3       3 GLC5        0.0000 
     30 CA         48.9940    7.8160    2.9230 C.3       9 GLL5        0.0000 
     31 CA         47.3740   10.0720    5.8470 C.3       6 GLP5        0.0000 
     32 CA         49.5675    3.1895    7.1425 C.3       3 GLC5        0.0000 
     33 CA         51.0210    1.9750    6.1270 C.3       9 GLL5        0.0000 
     34 CA         48.1140    4.4040    8.1580 C.3       6 GLP5        0.0000 
     35 CA         51.4000   -0.4965    8.2125 C.3       3 GLC5        0.0000 
     36 CA         51.4940    1.1140    7.1660 C.3       9 GLL5        0.0000 
     37 CA         51.3060   -2.1070    9.2590 C.3       6 GLP5        0.0000 
     38 CA         52.4415   -0.9905    7.6325 C.3       3 GLC5        0.0000 
     39 CA         52.8890    0.7720    7.2140 C.3       9 GLL5        0.0000 
     40 CA         51.9940   -2.7530    8.0510 C.3       6 GLP5        0.0000 
     41 N          42.1980   18.0615   -1.1475 N.am      1 SEC2        0.0000 
     42 N          43.0700   17.7980   -0.0310 N.am      7 SEL2        0.0000 
     43 N          41.3260   18.3250   -2.2640 N.am      4 SEP2        0.0000 
     44 CA         48.7263   13.0700    3.5885 C.3       3 GLC5        0.0000 
     45 CA         46.3610   13.5470    2.5380 C.3       9 GLL5        0.0000 
     46 CA         50.4950   12.8990    3.9640 C.3       6 GLP5        0.0000 
     47 CA         45.0730    9.7455    2.1058 C.3       3 GLC5        0.0000 
     48 CA         46.2610   11.3970    0.9810 C.3       9 GLL5        0.0000 
     49 CA         44.4200    8.5100    3.4710 C.3       6 GLP5        0.0000 
     50 CA         45.5990    7.1012   -0.0170 C.3       3 GLC5        0.0000 
     51 CA         45.4430    9.2220    0.0780 C.3       9 GLL5        0.0000 
     52 CA         45.0880    5.2360   -0.1520 C.3       6 GLP5        0.0000 
     53 CA         45.2650    8.7383    1.7945 C.3       3 GLC5        0.0000 
     54 CA         46.7770    8.7110    0.1580 C.3       9 GLL5        0.0000 
     55 CA         43.2860    9.6197    0.7920 C.3       3 GLC5        0.0000 
     56 CA         41.2550    9.3460    1.2950 C.3       6 GLP5        0.0000 
     57 CA         54.2020    2.1688    8.0120 C.3       3 GLC5        0.0000 
     58 CA         53.8190    1.2770    6.2420 C.3       9 GLL5        0.0000 
     59 CA         55.0500    3.3130    9.2960 C.3       6 GLP5        0.0000 
     60 CA         44.6935   13.2930    3.3911 C.3       3 GLC5        0.0000 
@<TRIPOS>BOND
@<TRIPOS>SUBSTRUCTURE
     1 SEC2       19 GROUP        1 X    SEC  0     ROOT SEC X 2
     2 LYC4       16 GROUP        1 X    LYC  0     **** LYC X 4
     3 GLC5        1 GROUP        1 X    GLC  0     **** GLC X 6
     4 SEP2       21 GROUP        1 Y    SEP  0     ROOT SEP Y 9
     5 LYP4       18 GROUP        1 Y    LYP  0     **** LYP Y 11
     6 GLP5        3 GROUP        1 Y    GLP  0     **** GLP Y 13
     7 SEL2       20 GROUP        1 Z    SEL  0     ROOT SEL Z 16
     8 LYL4       17 GROUP        1 Z    LYL  0     **** LYL Z 18
     9 GLL5        2 GROUP        1 Z    GLL  0     **** GLL Z 20
@<TRIPOS>SET

