#    Name: 2nt7_902_1_ligand
#    Modification time : Tue Mar 25 21:34:24 2014

@<TRIPOS>MOLECULE
2nt7_902_1_ligand
   62    66     1     0     0
SMALL
NO_CHARGES


@<TRIPOS>ATOM
      1 S1         44.8920   13.7100    0.4730 S.3       1 902800      0.0000 
      2 C2         44.9350   15.0810    1.4460 C.2       1 902800      0.0000 
      3 C3         45.7820   14.8400    2.5380 C.2       1 902800      0.0000 
      4 C4         46.3610   13.5470    2.5380 C.2       1 902800      0.0000 
      5 C5         45.9340   12.7760    1.4070 C.2       1 902800      0.0000 
      6 C6         44.1870   16.3180    1.1490 C.ar      1 902800      0.0000 
      7 N7         43.7040   16.5980   -0.0870 N.ar      1 902800      0.0000 
      8 N8         43.8520   17.3430    1.9750 N.ar      1 902800      0.0000 
      9 C9         46.2610   11.3970    0.9810 C.ar      1 902800      0.0000 
     10 C10        47.5870   10.8860    1.0620 C.ar      1 902800      0.0000 
     11 C11        47.8480    9.5490    0.6440 C.ar      1 902800      0.0000 
     12 C12        46.7770    8.7110    0.1580 C.ar      1 902800      0.0000 
     13 C13        45.4430    9.2220    0.0780 C.ar      1 902800      0.0000 
     14 C14        45.1910   10.5650    0.5000 C.ar      1 902800      0.0000 
     15 BR19       47.5540   12.9350    3.8880 Br        1 902800      0.0000 
     16 O20        46.0390   15.8070    3.5740 O.3       1 902800      0.0000 
     17 C21        47.3170   16.4660    3.4630 C.3       1 902800      0.0000 
     18 C22        47.7040   17.2290    4.7460 C.2       1 902800      0.0000 
     19 O25        46.9340   17.2730    5.7050 O.co2     1 902800      0.0000 
     20 O26        48.7950   17.7890    4.7820 O.co2     1 902800      0.0000 
     21 N28        49.1470    9.1080    0.7490 N.pl3     1 902800      0.0000 
     22 C29        49.5760    7.9110    1.4930 C.3       1 902800      0.0000 
     23 C30        48.9940    7.8160    2.9230 C.3       1 902800      0.0000 
     24 C31        49.3360    6.4290    3.4980 C.3       1 902800      0.0000 
     25 N32        50.7820    6.0670    3.3900 N.pl3     1 902800      0.0000 
     26 C33        51.5820    6.5500    2.2190 C.3       1 902800      0.0000 
     27 C34        51.1060    7.8900    1.6070 C.3       1 902800      0.0000 
     28 S44        51.4680    5.1050    4.5450 S.o2      1 902800      0.0000 
     29 O45        50.6800    5.2250    5.7320 O.2       1 902800      0.0000 
     30 O46        52.8620    5.4920    4.6340 O.2       1 902800      0.0000 
     31 C47        51.4210    3.3930    4.0570 C.3       1 902800      0.0000 
     32 C48        51.9420    2.4850    5.1490 C.ar      1 902800      0.0000 
     33 C51        51.0210    1.9750    6.1270 C.ar      1 902800      0.0000 
     34 C52        51.4940    1.1140    7.1660 C.ar      1 902800      0.0000 
     35 C53        52.8890    0.7720    7.2140 C.ar      1 902800      0.0000 
     36 C54        53.8190    1.2770    6.2420 C.ar      1 902800      0.0000 
     37 C55        53.3410    2.1400    5.2010 C.ar      1 902800      0.0000 
     38 N61        43.1630   18.2600    1.2490 N.ar      1 902800      0.0000 
     39 N62        43.0700   17.7980   -0.0310 N.ar      1 902800      0.0000 
     40 H          48.3386   11.4668    1.4134 H         1 902800      0.0000 
     41 H          46.9770    7.7582   -0.1260 H         1 902800      0.0000 
     42 H          44.6942    8.6454   -0.2697 H         1 902800      0.0000 
     43 H          44.2443   10.9398    0.4608 H         1 902800      0.0000 
     44 H          47.3225   17.1945    2.6322 H         1 902800      0.0000 
     45 H          48.1254   15.7422    3.2537 H         1 902800      0.0000 
     46 H          49.9227    9.6413    0.2742 H         1 902800      0.0000 
     47 H          49.2868    7.0071    0.9596 H         1 902800      0.0000 
     48 H          47.9258    7.9325    2.8787 H         1 902800      0.0000 
     49 H          49.4386    8.5786    3.5373 H         1 902800      0.0000 
     50 H          48.7202    5.6779    2.9715 H         1 902800      0.0000 
     51 H          49.0218    6.4095    4.5570 H         1 902800      0.0000 
     52 H          51.5697    5.7865    1.4154 H         1 902800      0.0000 
     53 H          52.6440    6.6696    2.5136 H         1 902800      0.0000 
     54 H          51.4320    8.7032    2.2449 H         1 902800      0.0000 
     55 H          51.5433    8.0014    0.6216 H         1 902800      0.0000 
     56 H          52.0217    3.3803    3.1683 H         1 902800      0.0000 
     57 H          50.3842    3.2367    3.8301 H         1 902800      0.0000 
     58 H          50.0417    2.2261    6.0779 H         1 902800      0.0000 
     59 H          50.8584    0.7491    7.8589 H         1 902800      0.0000 
     60 H          53.2275    0.1550    7.9571 H         1 902800      0.0000 
     61 H          54.7933    1.0275    6.2921 H         1 902800      0.0000 
     62 H          53.9772    2.5052    4.5076 H         1 902800      0.0000 
@<TRIPOS>BOND
     1    2    1 1    
     2    5    1 1    
     3    3    2 2    
     4    6    2 1    
     5    4    3 1    
     6   16    3 1    
     7    5    4 2    
     8   15    4 1    
     9    9    5 1    
    10    7    6 ar   
    11    8    6 ar   
    12   39    7 ar   
    13   38    8 ar   
    14   10    9 ar   
    15   14    9 ar   
    16   11   10 ar   
    17   40   10 1    
    18   12   11 ar   
    19   21   11 1    
    20   13   12 ar   
    21   41   12 1    
    22   14   13 ar   
    23   42   13 1    
    24   43   14 1    
    25   17   16 1    
    26   18   17 1    
    27   44   17 1    
    28   45   17 1    
    29   19   18 ar   
    30   20   18 ar   
    31   22   21 1    
    32   46   21 1    
    33   23   22 1    
    34   27   22 1    
    35   47   22 1    
    36   24   23 1    
    37   48   23 1    
    38   49   23 1    
    39   25   24 1    
    40   50   24 1    
    41   51   24 1    
    42   26   25 1    
    43   28   25 1    
    44   27   26 1    
    45   52   26 1    
    46   53   26 1    
    47   54   27 1    
    48   55   27 1    
    49   29   28 2    
    50   30   28 2    
    51   31   28 1    
    52   32   31 1    
    53   56   31 1    
    54   57   31 1    
    55   33   32 ar   
    56   37   32 ar   
    57   34   33 ar   
    58   58   33 1    
    59   35   34 ar   
    60   59   34 1    
    61   36   35 ar   
    62   60   35 1    
    63   37   36 ar   
    64   61   36 1    
    65   62   37 1    
    66   39   38 ar   
@<TRIPOS>SUBSTRUCTURE
     1 902800      1 GROUP   
@<TRIPOS>SET

