#    Name: 2jh5_895_1_INTS_M
#    Modification time : Tue Mar 25 20:46:05 2014

@<TRIPOS>MOLECULE
2jh5_895_1_INTS_M
   65     0     6     0     0
SMALL
NO_CHARGES


@<TRIPOS>ATOM
      1 CA          8.6415   25.4185   44.4525 C.3       2 GLC5        0.0000 
      2 CA          9.8460   25.2660   46.2660 C.3       6 GLL5        0.0000 
      3 CA          7.4370   25.5710   42.6390 C.3       4 GLP5        0.0000 
      4 CA         10.7120   26.7280   45.4665 C.3       2 GLC5        0.0000 
      5 CA         11.5780   28.1900   44.6670 C.3       4 GLP5        0.0000 
      6 CA         10.9115   23.3445   44.8840 C.3       2 GLC5        0.0000 
      7 CA         11.0130   22.7720   46.6030 C.3       6 GLL5        0.0000 
      8 CA         10.8100   23.9170   43.1650 C.3       4 GLP5        0.0000 
      9 CA         12.1490   20.1870   48.6255 C.3       2 GLC5        0.0000 
     10 CA         10.9590   21.6550   47.4570 C.3       6 GLL5        0.0000 
     11 CA         13.3390   18.7190   49.7940 C.3       4 GLP5        0.0000 
     12 CA         10.1765   20.7725   51.7185 C.3       2 GLC5        0.0000 
     13 CA          9.7120   20.7810   49.5520 C.3       6 GLL5        0.0000 
     14 CA         10.6410   20.7640   53.8850 C.3       4 GLP5        0.0000 
     15 N           9.8865   16.6190   47.7975 N.am      1 SEC2        0.0000 
     16 N           9.6200   16.9960   49.4270 N.am      5 SEL2        0.0000 
     17 N          10.1530   16.2420   46.1680 N.am      3 SEP2        0.0000 
     18 N           6.8605   20.4855   47.3525 N.am      1 SEC2        0.0000 
     19 N           6.4080   20.0860   48.6950 N.am      5 SEL2        0.0000 
     20 N           7.3130   20.8850   46.0100 N.am      3 SEP2        0.0000 
     21 CA          2.3540   20.7170   48.1995 C.3       2 GLC5        0.0000 
     22 CA          3.7220   18.9920   48.1480 C.3       6 GLL5        0.0000 
     23 CA          0.9860   22.4420   48.2510 C.3       4 GLP5        0.0000 
     24 CA         -0.5040   19.1010   51.0920 C.3       2 GLC5        0.0000 
     25 CA          0.9810   19.7960   50.7500 C.3       6 GLL5        0.0000 
     26 CA         -1.9890   18.4060   51.4340 C.3       4 GLP5        0.0000 
     27 CA          0.9835   21.1190   49.5005 C.3       2 GLC5        0.0000 
     28 CA          1.8155   21.8005   52.6045 C.3       2 GLC5        0.0000 
     29 CA          1.1690   19.7670   52.2710 C.3       6 GLL5        0.0000 
     30 CA          2.4620   23.8340   52.9380 C.3       4 GLP5        0.0000 
     31 CA         -0.2310   18.8860   52.4985 C.3       2 GLC5        0.0000 
     32 CA         -1.6310   18.0050   52.7260 C.3       4 GLP5        0.0000 
     33 CA          1.9525   18.6615   53.5420 C.3       2 GLC5        0.0000 
     34 CA          2.7360   17.5560   54.8130 C.3       4 GLP5        0.0000 
     35 CA          3.0890   18.9870   53.4510 C.3       2 GLC5        0.0000 
     36 CA          3.4420   20.4180   52.0890 C.3       6 GLL5        0.0000 
     37 CA          2.1355   21.5510   49.4145 C.3       2 GLC5        0.0000 
     38 CA          3.2850   20.6600   50.5780 C.3       6 GLL5        0.0000 
     39 CA         11.0795   24.3350   48.5870 C.3       2 GLC5        0.0000 
     40 CA          9.2340   23.2760   48.4210 C.3       6 GLL5        0.0000 
     41 CA         12.9250   25.3940   48.7530 C.3       4 GLP5        0.0000 
     42 CA          9.3930   25.0810   48.8875 C.3       2 GLC5        0.0000 
     43 CA          9.5520   26.8860   49.3540 C.3       4 GLP5        0.0000 
     44 CA          9.0920   19.8435   47.1945 C.3       2 GLC5        0.0000 
     45 CA          9.9270   19.4860   49.2390 C.3       6 GLL5        0.0000 
     46 CA          8.2570   20.2010   45.1500 C.3       4 GLP5        0.0000 
     47 CA         11.4473   24.9495   47.6977 C.3       2 GLC5        0.0000 
     48 CA         10.0930   23.7440   47.0190 C.3       6 GLL5        0.0000 
     49 CA          9.7607   25.6955   47.9982 C.3       2 GLC5        0.0000 
     50 CA         10.3897   24.2110   44.9038 C.3       2 GLC5        0.0000 
     51 CA         11.9555   23.8038   47.8915 C.3       2 GLC5        0.0000 
     52 CA         11.7700   21.7282   49.5153 C.3       2 GLC5        0.0000 
     53 CA         13.0510   21.7350   51.0560 C.3       4 GLP5        0.0000 
     54 CA          7.9321   22.6780   47.4640 C.3       2 GLC5        0.0000 
     55 CA         10.0190   21.7880   48.4920 C.3       6 GLL5        0.0000 
     56 CA          6.0230   22.7070   46.8220 C.3       4 GLP5        0.0000 
     57 CA         11.4352   20.9342   50.2257 C.3       2 GLC5        0.0000 
     58 CA         11.5793   19.4262   49.5947 C.3       2 GLC5        0.0000 
     59 CA          4.1292   16.8953   51.9340 C.3       2 GLC5        0.0000 
     60 CA          5.9600   16.9300   50.3840 C.3       6 GLL5        0.0000 
     61 CA          2.9990   16.6830   53.7440 C.3       4 GLP5        0.0000 
     62 CA          4.1902   20.3180   46.9883 C.3       2 GLC5        0.0000 
     63 CA          4.6830   22.0490   46.4810 C.3       4 GLP5        0.0000 
     64 CA          2.9127   22.1865   52.1358 C.3       2 GLC5        0.0000 
     65 CA          9.3890   21.3454   46.2714 C.3       2 GLC5        0.0000 
@<TRIPOS>BOND
@<TRIPOS>SUBSTRUCTURE
     1 SEC2       15 GROUP        1 X    SEC  0     ROOT SEC X 2
     2 GLC5        1 GROUP        1 X    GLC  0     **** GLC X 6
     3 SEP2       17 GROUP        1 Y    SEP  0     ROOT SEP Y 9
     4 GLP5        3 GROUP        1 Y    GLP  0     **** GLP Y 13
     5 SEL2       16 GROUP        1 Z    SEL  0     ROOT SEL Z 16
     6 GLL5        2 GROUP        1 Z    GLL  0     **** GLL Z 20
@<TRIPOS>SET

