#    Name: 2jh5_895_1_ligand
#    Modification time : Tue Mar 25 20:46:05 2014

@<TRIPOS>MOLECULE
2jh5_895_1_ligand
   50    52     1     0     0
SMALL
NO_CHARGES


@<TRIPOS>ATOM
      1 CL1         9.8460   25.2660   46.2660 Cl        1 8951249     0.0000 
      2 C1         10.0930   23.7440   47.0190 C.2       1 8951249     0.0000 
      3 C2         11.0130   22.7720   46.6030 C.2       1 8951249     0.0000 
      4 C3         10.9590   21.6550   47.4570 C.2       1 8951249     0.0000 
      5 C4         10.0190   21.7880   48.4920 C.2       1 8951249     0.0000 
      6 C9          9.7120   20.7810   49.5520 C.2       1 8951249     0.0000 
      7 S1          9.4770   18.1510   50.2600 S.o2      1 8951249     0.0000 
      8 O2         10.1710   18.2570   51.5080 O.2       1 8951249     0.0000 
      9 O1          9.6200   16.9960   49.4270 O.2       1 8951249     0.0000 
     10 N1          7.9130   18.4340   50.6100 N.pl3     1 8951249     0.0000 
     11 C12         6.9070   17.9340   49.7000 C.3       1 8951249     0.0000 
     12 C13         5.9600   16.9300   50.3840 C.3       1 8951249     0.0000 
     13 C14         4.5590   17.2850   49.8640 C.3       1 8951249     0.0000 
     14 C15         6.0270   18.9850   49.0710 C.2       1 8951249     0.0000 
     15 O3          6.4080   20.0860   48.6950 O.2       1 8951249     0.0000 
     16 N2          4.7790   18.4540   49.0060 N.am      1 8951249     0.0000 
     17 C16         3.7220   18.9920   48.1480 C.3       1 8951249     0.0000 
     18 C17         3.6730   18.1820   46.8430 C.3       1 8951249     0.0000 
     19 C18         2.3500   19.0290   48.8330 C.2       1 8951249     0.0000 
     20 O4          1.4240   18.3890   48.3260 O.2       1 8951249     0.0000 
     21 N3          2.2400   19.7860   49.9960 N.am      1 8951249     0.0000 
     22 C19         0.9810   19.7960   50.7500 C.3       1 8951249     0.0000 
     23 C20         1.1690   19.7670   52.2710 C.3       1 8951249     0.0000 
     24 O5          2.1840   20.6690   52.7120 O.3       1 8951249     0.0000 
     25 C22         3.4420   20.4180   52.0890 C.3       1 8951249     0.0000 
     26 C23         3.2850   20.6600   50.5780 C.3       1 8951249     0.0000 
     27 S6          9.2340   23.2760   48.4210 S.3       1 8951249     0.0000 
     28 C6          9.9270   19.4860   49.2390 C.2       1 8951249     0.0000 
     29 H          11.5946   22.8532   45.8485 H         1 8951249     0.0000 
     30 H          11.5215   20.8641   47.3402 H         1 8951249     0.0000 
     31 H           9.3682   21.1184   50.4246 H         1 8951249     0.0000 
     32 H           7.7447   18.9314   51.4248 H         1 8951249     0.0000 
     33 H           7.3793   17.3706   48.8722 H         1 8951249     0.0000 
     34 H           5.9970   17.0671   51.4373 H         1 8951249     0.0000 
     35 H           6.2136   15.9419   50.0856 H         1 8951249     0.0000 
     36 H           3.9358   17.5240   50.6982 H         1 8951249     0.0000 
     37 H           4.1819   16.4558   49.3059 H         1 8951249     0.0000 
     38 H           3.9796   20.0253   47.8639 H         1 8951249     0.0000 
     39 H           0.3551   18.9257   50.4688 H         1 8951249     0.0000 
     40 H           0.3870   20.6972   50.4986 H         1 8951249     0.0000 
     41 H           1.4022   18.7227   52.5548 H         1 8951249     0.0000 
     42 H           0.1891   20.0025   52.7292 H         1 8951249     0.0000 
     43 H           3.7701   19.3888   52.2256 H         1 8951249     0.0000 
     44 H           4.2206   21.0877   52.4509 H         1 8951249     0.0000 
     45 H           3.0315   21.7146   50.4249 H         1 8951249     0.0000 
     46 H           4.2521   20.4721   50.0990 H         1 8951249     0.0000 
     47 H          10.3655   19.1107   48.3958 H         1 8951249     0.0000 
     48 H           4.5388   18.2277   46.3448 H         1 8951249     0.0000 
     49 H           3.4833   17.2150   47.0130 H         1 8951249     0.0000 
     50 H           2.9613   18.5160   46.2250 H         1 8951249     0.0000 
@<TRIPOS>BOND
     1    2    1 1    
     2    3    2 2    
     3   27    2 1    
     4    4    3 1    
     5   29    3 1    
     6    5    4 2    
     7   30    4 1    
     8    6    5 1    
     9   27    5 1    
    10   28    6 2    
    11   31    6 1    
    12    8    7 2    
    13    9    7 2    
    14   10    7 1    
    15   28    7 1    
    16   11   10 1    
    17   32   10 1    
    18   12   11 1    
    19   14   11 1    
    20   33   11 1    
    21   13   12 1    
    22   34   12 1    
    23   35   12 1    
    24   16   13 1    
    25   36   13 1    
    26   37   13 1    
    27   15   14 2    
    28   16   14 am   
    29   17   16 1    
    30   18   17 1    
    31   19   17 1    
    32   38   17 1    
    33   48   18 1    
    34   49   18 1    
    35   50   18 1    
    36   20   19 2    
    37   21   19 am   
    38   22   21 1    
    39   26   21 1    
    40   23   22 1    
    41   39   22 1    
    42   40   22 1    
    43   24   23 1    
    44   41   23 1    
    45   42   23 1    
    46   25   24 1    
    47   26   25 1    
    48   43   25 1    
    49   44   25 1    
    50   45   26 1    
    51   46   26 1    
    52   47   28 1    
@<TRIPOS>SUBSTRUCTURE
     1 8951249     1 GROUP   
@<TRIPOS>SET

