#    Name: 2xug_TZ4_2_INTS_M
#    Modification time : Tue Mar 25 06:39:06 2014

@<TRIPOS>MOLECULE
2xug_TZ4_2_INTS_M
   78     0     6     0     0
SMALL
NO_CHARGES


@<TRIPOS>ATOM
      1 CA         10.0440  -14.9220  -34.1195 C.3       2 GLC5        0.0000 
      2 CA         11.6020  -13.8440  -34.9780 C.3       6 GLL5        0.0000 
      3 CA          8.4860  -16.0000  -33.2610 C.3       4 GLP5        0.0000 
      4 CA         17.0045  -10.5245  -43.5400 C.3       2 GLC5        0.0000 
      5 CA         15.5940  -10.5970  -42.2390 C.3       6 GLL5        0.0000 
      6 CA         18.4150  -10.4520  -44.8410 C.3       4 GLP5        0.0000 
      7 O          15.8790   -7.9360  -43.2325 O.2       1 ALC1        0.0000 
      8 O          15.3940   -8.2000  -41.7710 O.2       5 ALL1        0.0000 
      9 O          16.3640   -7.6720  -44.6940 O.2       3 ALP1        0.0000 
     10 CA         16.3545  -11.7685  -39.8805 C.3       2 GLC5        0.0000 
     11 CA         14.2850  -11.1300  -39.7530 C.3       6 GLL5        0.0000 
     12 CA         18.4240  -12.4070  -40.0080 C.3       4 GLP5        0.0000 
     13 CA         14.9980   -9.7390  -37.3255 C.3       2 GLC5        0.0000 
     14 CA         13.4040  -10.2950  -37.5710 C.3       6 GLL5        0.0000 
     15 CA         16.5920   -9.1830  -37.0800 C.3       4 GLP5        0.0000 
     16 CA         11.5850  -10.7290  -39.4500 C.3       2 GLC5        0.0000 
     17 CA         12.1610   -9.4820  -37.8900 C.3       6 GLL5        0.0000 
     18 CA         11.0090  -11.9760  -41.0100 C.3       4 GLP5        0.0000 
     19 CA         11.6600   -7.9455  -39.1310 C.3       2 GLC5        0.0000 
     20 CA         11.1590   -6.4090  -40.3720 C.3       4 GLP5        0.0000 
     21 CA         10.9415   -9.2535  -35.2060 C.3       2 GLC5        0.0000 
     22 CA         11.8440   -7.6130  -36.0890 C.3       6 GLL5        0.0000 
     23 CA         10.0390  -10.8940  -34.3230 C.3       4 GLP5        0.0000 
     24 CA         10.9305   -6.5060  -38.3190 C.3       2 GLC5        0.0000 
     25 CA         10.7020   -6.6030  -36.2660 C.3       6 GLL5        0.0000 
     26 CA         12.2995   -5.1145  -36.7210 C.3       2 GLC5        0.0000 
     27 CA         13.8970   -3.6260  -37.1760 C.3       4 GLP5        0.0000 
     28 CA          8.5580   -8.2810  -34.4815 C.3       2 GLC5        0.0000 
     29 CA          9.4000   -6.9110  -35.5190 C.3       6 GLL5        0.0000 
     30 CA          7.7160   -9.6510  -33.4440 C.3       4 GLP5        0.0000 
     31 CA          7.8455   -2.8130  -32.6390 C.3       2 GLC5        0.0000 
     32 CA          6.3530   -3.6380  -33.2600 C.3       6 GLL5        0.0000 
     33 CA          9.3380   -1.9880  -32.0180 C.3       4 GLP5        0.0000 
     34 CA          2.6455   -3.5470  -33.4225 C.3       2 GLC5        0.0000 
     35 CA          4.8330   -3.9040  -33.4570 C.3       6 GLL5        0.0000 
     36 CA          0.4580   -3.1900  -33.3880 C.3       4 GLP5        0.0000 
     37 CA          2.7835   -1.9585  -37.0595 C.3       2 GLC5        0.0000 
     38 CA          4.6250   -1.4950  -36.8250 C.3       6 GLL5        0.0000 
     39 CA          0.9420   -2.4220  -37.2940 C.3       4 GLP5        0.0000 
     40 CA          4.2950   -4.4805  -39.3730 C.3       2 GLC5        0.0000 
     41 CA          5.5620   -3.2550  -38.2540 C.3       6 GLL5        0.0000 
     42 CA          3.0280   -5.7060  -40.4920 C.3       4 GLP5        0.0000 
     43 CA          6.6520    0.3410  -40.4805 C.3       2 GLC5        0.0000 
     44 CA          5.5330   -0.9480  -39.0460 C.3       6 GLL5        0.0000 
     45 CA          7.7710    1.6300  -41.9150 C.3       4 GLP5        0.0000 
     46 CA          3.1210   -1.0030  -38.6430 C.3       2 GLC5        0.0000 
     47 CA          4.9060   -0.5600  -37.8130 C.3       6 GLL5        0.0000 
     48 CA          1.3360   -1.4460  -39.4730 C.3       4 GLP5        0.0000 
     49 CA          4.1745   -9.4020  -35.8740 C.3       2 GLC5        0.0000 
     50 CA          5.2370   -7.6940  -35.9760 C.3       6 GLL5        0.0000 
     51 CA          3.1120  -11.1100  -35.7720 C.3       4 GLP5        0.0000 
     52 CA         16.6988  -13.2788  -40.1923 C.3       2 GLC5        0.0000 
     53 CA         14.6850  -13.5750  -40.0420 C.3       6 GLL5        0.0000 
     54 CA         12.3310  -12.3057  -32.6565 C.3       2 GLC5        0.0000 
     55 CA         13.7990  -13.2340  -34.0990 C.3       6 GLL5        0.0000 
     56 CA         11.5190  -11.1470  -31.3150 C.3       4 GLP5        0.0000 
     57 CA         16.8679  -11.8665  -40.8663 C.3       2 GLC5        0.0000 
     58 CA         13.7604  -10.6193  -43.0944 C.3       2 GLC5        0.0000 
     59 CA         15.3510  -11.8890  -41.8320 C.3       6 GLL5        0.0000 
     60 CA         12.1950  -10.8580  -44.4680 C.3       4 GLP5        0.0000 
     61 CA         10.9450  -10.0785  -35.7712 C.3       2 GLC5        0.0000 
     62 CA         10.3615   -5.0575  -34.6942 C.3       2 GLC5        0.0000 
     63 CA         10.6720   -3.3580  -33.4960 C.3       4 GLP5        0.0000 
     64 CA          5.3775   -4.5295  -31.8038 C.3       2 GLC5        0.0000 
     65 CA          5.1620   -5.2880  -30.2490 C.3       4 GLP5        0.0000 
     66 CA          5.8230   -1.9795  -32.6988 C.3       2 GLC5        0.0000 
     67 CA          6.0530   -0.1880  -32.0390 C.3       4 GLP5        0.0000 
     68 CA          6.0768   -0.4577  -35.7795 C.3       2 GLC5        0.0000 
     69 CA          7.3880    0.1120  -34.2400 C.3       4 GLP5        0.0000 
     70 CA          3.6143   -0.0028  -36.1265 C.3       2 GLC5        0.0000 
     71 CA          2.4630    1.0220  -34.9340 C.3       4 GLP5        0.0000 
     72 CA          3.7863   -2.1215  -39.5575 C.3       2 GLC5        0.0000 
     73 CA          1.8790   -2.6350  -39.9630 C.3       4 GLP5        0.0000 
     74 CA          7.3818   -1.7660  -40.3340 C.3       2 GLC5        0.0000 
     75 CA          5.8540   -2.2680  -39.2580 C.3       6 GLL5        0.0000 
     76 CA          9.0700   -1.9240  -41.5160 C.3       4 GLP5        0.0000 
     77 CA          4.4465   -5.9367  -39.1715 C.3       2 GLC5        0.0000 
     78 CA          5.6720   -5.5040  -37.6540 C.3       6 GLL5        0.0000 
@<TRIPOS>BOND
@<TRIPOS>SUBSTRUCTURE
     1 ALC1        7 GROUP        1 X    ALC  0     ROOT ALC X 1
     2 GLC5        1 GROUP        1 X    GLC  0     **** GLC X 6
     3 ALP1        9 GROUP        1 Y    ALP  0     ROOT ALP Y 8
     4 GLP5        3 GROUP        1 Y    GLP  0     **** GLP Y 13
     5 ALL1        8 GROUP        1 Z    ALL  0     ROOT ALL Z 15
     6 GLL5        2 GROUP        1 Z    GLL  0     **** GLL Z 20
@<TRIPOS>SET

