#    Name: 2xug_TZ4_2_ligand
#    Modification time : Tue Mar 25 06:39:06 2014

@<TRIPOS>MOLECULE
2xug_TZ4_2_ligand
   95   102     1     0     0
SMALL
NO_CHARGES


@<TRIPOS>ATOM
      1 N3         14.9080  -17.4370  -38.2100 N.pl3     1 TZ41545     0.0000 
      2 C19        14.8540  -16.1970  -38.8200 C.ar      1 TZ41545     0.0000 
      3 C18        15.3490  -15.9950  -40.1480 C.ar      1 TZ41545     0.0000 
      4 C17        15.2620  -14.7260  -40.7110 C.ar      1 TZ41545     0.0000 
      5 C16        14.6850  -13.5750  -40.0420 C.ar      1 TZ41545     0.0000 
      6 C14        14.2060  -13.7970  -38.7050 C.ar      1 TZ41545     0.0000 
      7 C15        14.3010  -15.1190  -38.1350 C.ar      1 TZ41545     0.0000 
      8 C7         13.7830  -12.7030  -37.8970 C.ar      1 TZ41545     0.0000 
      9 C8         13.3280  -13.0320  -36.4850 C.ar      1 TZ41545     0.0000 
     10 C9         12.0170  -13.5110  -36.2740 C.ar      1 TZ41545     0.0000 
     11 C10        11.6020  -13.8440  -34.9780 C.ar      1 TZ41545     0.0000 
     12 C11        12.4870  -13.6950  -33.8970 C.ar      1 TZ41545     0.0000 
     13 C12        13.7990  -13.2340  -34.0990 C.ar      1 TZ41545     0.0000 
     14 C13        14.2170  -12.8990  -35.3920 C.ar      1 TZ41545     0.0000 
     15 C4         14.7080  -12.2210  -40.5880 C.ar      1 TZ41545     0.0000 
     16 C3         15.3510  -11.8890  -41.8320 C.ar      1 TZ41545     0.0000 
     17 C2         15.5940  -10.5970  -42.2390 C.ar      1 TZ41545     0.0000 
     18 C1         15.1790   -9.5180  -41.4060 C.ar      1 TZ41545     0.0000 
     19 N1         15.3940   -8.2000  -41.7710 N.pl3     1 TZ41545     0.0000 
     20 C6         14.2850  -11.1300  -39.7530 C.ar      1 TZ41545     0.0000 
     21 C5         14.5450   -9.8010  -40.1950 C.ar      1 TZ41545     0.0000 
     22 N2         13.8280  -11.4380  -38.4400 N.pl3     1 TZ41545     0.0000 
     23 C20        13.4040  -10.2950  -37.5710 C.3       1 TZ41545     0.0000 
     24 C21        12.1610   -9.4820  -37.8900 C.3       1 TZ41545     0.0000 
     25 C22        11.5410   -9.0440  -36.5490 C.3       1 TZ41545     0.0000 
     26 C23        11.8440   -7.6130  -36.0890 C.3       1 TZ41545     0.0000 
     27 C24        10.7020   -6.6030  -36.2660 C.3       1 TZ41545     0.0000 
     28 C25         9.4000   -6.9110  -35.5190 C.3       1 TZ41545     0.0000 
     29 C26         8.5940   -5.6890  -35.1730 C.2       1 TZ41545     0.0000 
     30 N4          8.5840   -4.6090  -35.9550 N.2       1 TZ41545     0.0000 
     31 N5          7.7890   -3.7520  -35.3610 N.2       1 TZ41545     0.0000 
     32 N6          7.2820   -4.2590  -34.2310 N.pl3     1 TZ41545     0.0000 
     33 C27         7.7760   -5.5070  -34.0600 C.2       1 TZ41545     0.0000 
     34 C28         6.3530   -3.6380  -33.2600 C.3       1 TZ41545     0.0000 
     35 C29         4.8330   -3.9040  -33.4570 C.3       1 TZ41545     0.0000 
     36 N7          4.2490   -3.4860  -34.7700 N.4       1 TZ41545     0.0000 
     37 C30         4.7590   -3.9160  -36.0000 C.ar      1 TZ41545     0.0000 
     38 C31         4.9710   -2.8910  -36.9890 C.ar      1 TZ41545     0.0000 
     39 C32         4.6250   -1.4950  -36.8250 C.3       1 TZ41545     0.0000 
     40 C33         5.5620   -3.2550  -38.2540 C.ar      1 TZ41545     0.0000 
     41 C34         5.8540   -2.2680  -39.2580 C.3       1 TZ41545     0.0000 
     42 C35         5.5330   -0.9480  -39.0460 C.3       1 TZ41545     0.0000 
     43 C36         4.9060   -0.5600  -37.8130 C.3       1 TZ41545     0.0000 
     44 N8          5.8640   -4.5260  -38.5650 N.pl3     1 TZ41545     0.0000 
     45 C37         5.6720   -5.5040  -37.6540 C.ar      1 TZ41545     0.0000 
     46 C38         6.0580   -6.8310  -38.0480 C.ar      1 TZ41545     0.0000 
     47 C39         5.0940   -5.2640  -36.3650 C.ar      1 TZ41545     0.0000 
     48 C40         4.8630   -6.4380  -35.5460 C.ar      1 TZ41545     0.0000 
     49 C41         5.2370   -7.6940  -35.9760 C.ar      1 TZ41545     0.0000 
     50 C42         6.1050   -7.8220  -37.1010 C.ar      1 TZ41545     0.0000 
     51 H          15.3554  -18.1643  -38.7305 H         1 TZ41545     0.0000 
     52 H          14.4950  -17.4987  -37.3014 H         1 TZ41545     0.0000 
     53 H          15.7525  -16.7749  -40.6539 H         1 TZ41545     0.0000 
     54 H          15.6303  -14.5663  -41.6799 H         1 TZ41545     0.0000 
     55 H          13.9351  -15.2502  -37.1708 H         1 TZ41545     0.0000 
     56 H          11.3791  -13.6124  -37.0637 H         1 TZ41545     0.0000 
     57 H          10.6540  -14.1962  -34.8167 H         1 TZ41545     0.0000 
     58 H          12.1706  -13.9263  -32.9453 H         1 TZ41545     0.0000 
     59 H          14.4384  -13.1453  -33.3095 H         1 TZ41545     0.0000 
     60 H          15.1683  -12.5558  -35.5549 H         1 TZ41545     0.0000 
     61 H          15.6394  -12.6908  -42.4414 H         1 TZ41545     0.0000 
     62 H          16.0628  -10.3916  -43.1201 H         1 TZ41545     0.0000 
     63 H          15.8009   -8.0539  -42.6727 H         1 TZ41545     0.0000 
     64 H          15.1238   -7.5083  -41.1013 H         1 TZ41545     0.0000 
     65 H          14.2448   -9.0156  -39.5802 H         1 TZ41545     0.0000 
     66 H          14.2774   -9.5676  -37.4813 H         1 TZ41545     0.0000 
     67 H          13.3015  -10.6750  -36.5009 H         1 TZ41545     0.0000 
     68 H          11.4528  -10.0880  -38.4235 H         1 TZ41545     0.0000 
     69 H          12.4284   -8.6090  -38.4555 H         1 TZ41545     0.0000 
     70 H          11.8780   -9.7508  -35.7594 H         1 TZ41545     0.0000 
     71 H          10.4382   -9.1711  -36.6144 H         1 TZ41545     0.0000 
     72 H          12.7324   -7.2434  -36.6394 H         1 TZ41545     0.0000 
     73 H          12.1328   -7.6373  -35.0191 H         1 TZ41545     0.0000 
     74 H          10.4760   -6.5117  -37.3508 H         1 TZ41545     0.0000 
     75 H          11.0645   -5.6007  -35.9495 H         1 TZ41545     0.0000 
     76 H           9.6491   -7.4629  -34.5959 H         1 TZ41545     0.0000 
     77 H           8.7923   -7.5903  -36.1418 H         1 TZ41545     0.0000 
     78 H           7.6232   -6.1133  -33.3778 H         1 TZ41545     0.0000 
     79 H           6.4942   -2.5271  -33.2513 H         1 TZ41545     0.0000 
     80 H           6.6119   -3.9633  -32.2201 H         1 TZ41545     0.0000 
     81 H           4.2939   -3.3948  -32.6257 H         1 TZ41545     0.0000 
     82 H           4.6607   -4.9930  -33.2976 H         1 TZ41545     0.0000 
     83 H           5.0794   -1.1431  -35.8178 H         1 TZ41545     0.0000 
     84 H           3.4978   -1.4484  -36.5564 H         1 TZ41545     0.0000 
     85 H           5.3843   -2.6328  -40.2507 H         1 TZ41545     0.0000 
     86 H           6.9767   -2.3626  -39.5219 H         1 TZ41545     0.0000 
     87 H           4.8749   -0.5580  -39.9103 H         1 TZ41545     0.0000 
     88 H           6.4688   -0.2869  -39.1851 H         1 TZ41545     0.0000 
     89 H           5.5320    0.3041  -37.3586 H         1 TZ41545     0.0000 
     90 H           3.9384    0.0209  -38.0799 H         1 TZ41545     0.0000 
     91 H           6.2455   -4.7603  -39.5056 H         1 TZ41545     0.0000 
     92 H           6.2880   -7.0031  -39.0248 H         1 TZ41545     0.0000 
     93 H           4.4098   -6.2996  -34.6322 H         1 TZ41545     0.0000 
     94 H           4.9068   -8.5387  -35.5073 H         1 TZ41545     0.0000 
     95 H           6.7178   -8.6177  -37.1728 H         1 TZ41545     0.0000 
@<TRIPOS>BOND
     1    2    1 1    
     2   51    1 1    
     3   52    1 1    
     4    3    2 ar   
     5    7    2 ar   
     6    4    3 ar   
     7   53    3 1    
     8    5    4 ar   
     9   54    4 1    
    10    6    5 ar   
    11   15    5 ar   
    12    7    6 ar   
    13    8    6 ar   
    14   55    7 1    
    15    9    8 1    
    16   22    8 ar   
    17   10    9 ar   
    18   14    9 ar   
    19   11   10 ar   
    20   56   10 1    
    21   12   11 ar   
    22   57   11 1    
    23   13   12 ar   
    24   58   12 1    
    25   14   13 ar   
    26   59   13 1    
    27   60   14 1    
    28   16   15 ar   
    29   20   15 ar   
    30   17   16 ar   
    31   61   16 1    
    32   18   17 ar   
    33   62   17 1    
    34   19   18 1    
    35   21   18 ar   
    36   63   19 1    
    37   64   19 1    
    38   21   20 ar   
    39   22   20 ar   
    40   65   21 1    
    41   23   22 1    
    42   24   23 1    
    43   66   23 1    
    44   67   23 1    
    45   25   24 1    
    46   68   24 1    
    47   69   24 1    
    48   26   25 1    
    49   70   25 1    
    50   71   25 1    
    51   27   26 1    
    52   72   26 1    
    53   73   26 1    
    54   28   27 1    
    55   74   27 1    
    56   75   27 1    
    57   29   28 1    
    58   76   28 1    
    59   77   28 1    
    60   30   29 1    
    61   33   29 2    
    62   31   30 2    
    63   32   31 1    
    64   33   32 1    
    65   34   32 1    
    66   78   33 1    
    67   35   34 1    
    68   79   34 1    
    69   80   34 1    
    70   36   35 1    
    71   81   35 1    
    72   82   35 1    
    73   37   36 1    
    74   38   37 ar   
    75   47   37 ar   
    76   39   38 1    
    77   40   38 ar   
    78   43   39 1    
    79   83   39 1    
    80   84   39 1    
    81   41   40 1    
    82   44   40 ar   
    83   42   41 1    
    84   85   41 1    
    85   86   41 1    
    86   43   42 1    
    87   87   42 1    
    88   88   42 1    
    89   89   43 1    
    90   90   43 1    
    91   45   44 ar   
    92   91   44 1    
    93   46   45 ar   
    94   47   45 ar   
    95   50   46 ar   
    96   92   46 1    
    97   48   47 ar   
    98   49   48 ar   
    99   93   48 1    
   100   50   49 ar   
   101   94   49 1    
   102   95   50 1    
@<TRIPOS>SUBSTRUCTURE
     1 TZ41545     1 GROUP   
@<TRIPOS>SET

