#    Name: 3cem_AVD_2_INTS_M
#    Modification time : Mon Mar 24 21:04:29 2014

@<TRIPOS>MOLECULE
3cem_AVD_2_INTS_M
   91     0    12     0     0
SMALL
NO_CHARGES


@<TRIPOS>ATOM
      1 CA         24.6160   87.2170  111.7185 C.3       4 GLC5        0.0000 
      2 CA         23.8230   86.9450  109.6720 C.3      12 GLL5        0.0000 
      3 CA         25.4090   87.4890  113.7650 C.3       8 GLP5        0.0000 
      4 CA         15.7045   86.7000  101.6875 C.3       4 GLC5        0.0000 
      5 CA         15.9840   84.6390  101.9030 C.3      12 GLL5        0.0000 
      6 CA         15.4250   88.7610  101.4720 C.3       8 GLP5        0.0000 
      7 CA         17.2440   86.3610  101.0510 C.3       4 GLC5        0.0000 
      8 CA         17.3060   84.5980  102.3460 C.3      12 GLL5        0.0000 
      9 CA         17.1820   88.1240   99.7560 C.3       8 GLP5        0.0000 
     10 CA         16.2430   83.5960  104.7835 C.3       4 GLC5        0.0000 
     11 CA         17.7850   83.5640  103.1750 C.3      12 GLL5        0.0000 
     12 CA         14.7010   83.6280  106.3920 C.3       8 GLP5        0.0000 
     13 CA         21.8280   81.2795  105.5945 C.3       4 GLC5        0.0000 
     14 CA         21.3330   82.4170  103.8880 C.3      12 GLL5        0.0000 
     15 CA         22.3230   80.1420  107.3010 C.3       8 GLP5        0.0000 
     16 NZ         22.5365   80.0130  101.6045 N.4       3 LYC4        0.0000 
     17 NZ         21.7510   80.4920  102.5650 N.4      11 LYL4        0.0000 
     18 NZ         24.5280   79.0520  100.9790 N.4       7 LYP4        0.0000 
     19 N          22.1860   79.0050  103.0895 N.am      2 SEC2        0.0000 
     20 N          21.7510   80.4920  102.5650 N.am     10 SEL2        0.0000 
     21 N          22.6210   77.5180  103.6140 N.am      6 SEP2        0.0000 
     22 N          22.5365   80.0130  101.6045 N.am      2 SEC2        0.0000 
     23 N          23.3220   79.5340  100.6440 N.am      6 SEP2        0.0000 
     24 NZ         24.5760   80.3085  104.5065 N.4       3 LYC4        0.0000 
     25 NZ         23.3880   80.9840  103.8770 N.4      11 LYL4        0.0000 
     26 NZ         26.2600   80.7150  105.6820 N.4       7 LYP4        0.0000 
     27 NZ         24.2060   80.1400  103.0240 N.4       3 LYC4        0.0000 
     28 N          24.5760   80.3085  104.5065 N.am      2 SEC2        0.0000 
     29 N          23.3880   80.9840  103.8770 N.am     10 SEL2        0.0000 
     30 N          25.7640   79.6330  105.1360 N.am      6 SEP2        0.0000 
     31 N          24.4240   81.3840  104.8400 N.am      2 SEC2        0.0000 
     32 N          25.4600   81.7840  105.8030 N.am      6 SEP2        0.0000 
     33 N          24.2060   80.1400  103.0240 N.am      2 SEC2        0.0000 
     34 N          25.0240   79.2960  102.1710 N.am      6 SEP2        0.0000 
     35 N          24.1670   82.6120  105.5495 N.am      2 SEC2        0.0000 
     36 N          22.8740   83.4400  105.2960 N.am     10 SEL2        0.0000 
     37 N          23.4345   83.5830  106.5790 N.am      2 SEC2        0.0000 
     38 N          23.9950   83.7260  107.8620 N.am      6 SEP2        0.0000 
     39 CA         17.9875   88.5670  108.3965 C.3       4 GLC5        0.0000 
     40 CA         18.1230   87.8160  106.2940 C.3      12 GLL5        0.0000 
     41 CA         17.8520   89.3180  110.4990 C.3       8 GLP5        0.0000 
     42 CA         17.9560   89.5480  105.6255 C.3       4 GLC5        0.0000 
     43 CA         17.7890   91.2800  104.9570 C.3       8 GLP5        0.0000 
     44 O          20.7000   88.3995  108.3140 O.2       1 ALC1        0.0000 
     45 O          21.0730   87.4830  107.3260 O.2       9 ALL1        0.0000 
     46 O          20.3270   89.3160  109.3020 O.2       5 ALP1        0.0000 
     47 CA         23.1015   89.7820  107.1410 C.3       4 GLC5        0.0000 
     48 CA         23.2100   88.5250  105.5200 C.3      12 GLL5        0.0000 
     49 CA         22.9930   91.0390  108.7620 C.3       8 GLP5        0.0000 
     50 CA         24.4300   89.3820  104.6210 C.3       4 GLC5        0.0000 
     51 CA         25.6500   90.2390  103.7220 C.3       8 GLP5        0.0000 
     52 CA         21.6780   89.9520  104.7620 C.3       4 GLC5        0.0000 
     53 CA         20.1460   91.3790  104.0040 C.3       8 GLP5        0.0000 
     54 CA         22.9215   87.6555  103.8870 C.3       4 GLC5        0.0000 
     55 CA         22.6330   86.7860  102.2540 C.3       8 GLP5        0.0000 
     56 CA         25.0270   89.0940  110.2230 C.3       4 GLC5        0.0000 
     57 CA         26.1130   87.3500  109.3660 C.3      12 GLL5        0.0000 
     58 CA         23.9410   90.8380  111.0800 C.3       8 GLP5        0.0000 
     59 CA         27.0500   88.3690  108.4840 C.3       4 GLC5        0.0000 
     60 CA         27.9870   89.3880  107.6020 C.3       8 GLP5        0.0000 
     61 CA         23.9005   85.4345  109.7470 C.3       4 GLC5        0.0000 
     62 CA         22.5250   86.9820  109.1190 C.3      12 GLL5        0.0000 
     63 CA         25.2760   83.8870  110.3750 C.3       8 GLP5        0.0000 
     64 CA         23.5553   88.8025  109.7428 C.3       4 GLC5        0.0000 
     65 CA         22.7520   90.4310  110.2100 C.3       8 GLP5        0.0000 
     66 CA         26.4453   87.5008  110.7157 C.3       4 GLC5        0.0000 
     67 CA         24.8940   87.4030  108.8790 C.3      12 GLL5        0.0000 
     68 CA         27.3870   87.6250  112.3090 C.3       8 GLP5        0.0000 
     69 CA         26.9588   86.3162  108.5128 C.3       4 GLC5        0.0000 
     70 CA         28.4140   85.2560  107.9030 C.3       8 GLP5        0.0000 
     71 CA         23.3904   89.4099  108.1472 C.3       4 GLC5        0.0000 
     72 CA         23.4120   87.9150  107.1100 C.3      12 GLL5        0.0000 
     73 CA         15.1770   83.3694  104.6184 C.3       4 GLC5        0.0000 
     74 CA         16.8710   82.5710  103.5980 C.3      12 GLL5        0.0000 
     75 CA         16.4421   84.1776  100.3070 C.3       4 GLC5        0.0000 
     76 CA         15.0970   83.6340  102.3130 C.3      12 GLL5        0.0000 
     77 CA         16.4610   83.9880   98.3870 C.3       8 GLP5        0.0000 
     78 CA         21.8840   85.8845  103.9195 C.3       4 GLC5        0.0000 
     79 CA         20.9110   84.5020  105.1330 C.3      12 GLL5        0.0000 
     80 CA         17.7903   85.0720  106.2300 C.3       4 GLC5        0.0000 
     81 CA         19.6270   84.5450  104.6140 C.3      12 GLL5        0.0000 
     82 CA         16.3500   85.0740  107.6420 C.3       8 GLP5        0.0000 
     83 CA         20.1898   85.9805  103.2725 C.3       4 GLC5        0.0000 
     84 CA         18.8340   85.5950  105.0220 C.3      12 GLL5        0.0000 
     85 CA         21.1490   86.8910  101.7270 C.3       8 GLP5        0.0000 
     86 CA         17.5297   86.1340  106.8682 C.3       4 GLC5        0.0000 
     87 CA         19.2960   86.5720  105.8950 C.3      12 GLL5        0.0000 
     88 CA         25.2559   85.5745  109.8479 C.3       4 GLC5        0.0000 
     89 CA         22.3770   88.5973  109.8490 C.3       4 GLC5        0.0000 
     90 CA         20.6525   85.8218  110.0445 C.3       4 GLC5        0.0000 
     91 CA         19.3030   84.8800  110.6010 C.3       8 GLP5        0.0000 
@<TRIPOS>BOND
@<TRIPOS>SUBSTRUCTURE
     1 ALC1       44 GROUP        1 X    ALC  0     ROOT ALC X 1
     2 SEC2       19 GROUP        1 X    SEC  0     **** SEC X 2
     3 LYC4       16 GROUP        1 X    LYC  0     **** LYC X 4
     4 GLC5        1 GROUP        1 X    GLC  0     **** GLC X 6
     5 ALP1       46 GROUP        1 Y    ALP  0     ROOT ALP Y 8
     6 SEP2       21 GROUP        1 Y    SEP  0     **** SEP Y 9
     7 LYP4       18 GROUP        1 Y    LYP  0     **** LYP Y 11
     8 GLP5        3 GROUP        1 Y    GLP  0     **** GLP Y 13
     9 ALL1       45 GROUP        1 Z    ALL  0     ROOT ALL Z 15
    10 SEL2       20 GROUP        1 Z    SEL  0     **** SEL Z 16
    11 LYL4       17 GROUP        1 Z    LYL  0     **** LYL Z 18
    12 GLL5        2 GROUP        1 Z    GLL  0     **** GLL Z 20
@<TRIPOS>SET

