#    Name: 3cem_AVD_2_ligand
#    Modification time : Mon Mar 24 21:04:30 2014

@<TRIPOS>MOLECULE
3cem_AVD_2_ligand
   44    47     1     0     0
SMALL
NO_CHARGES


@<TRIPOS>ATOM
      1 C5         24.8940   87.4030  108.8790 C.ar      1 AVD833      0.0000 
      2 C6         23.8230   86.9450  109.6720 C.ar      1 AVD833      0.0000 
      3 C2         22.3130   87.4780  107.8320 C.ar      1 AVD833      0.0000 
      4 C4         24.7130   87.8650  107.5940 C.ar      1 AVD833      0.0000 
      5 O40        17.1680   80.2420  104.1160 O.co2     1 AVD833      0.0000 
      6 C39        17.3030   81.4110  104.5360 C.2       1 AVD833      0.0000 
      7 O41        17.7920   81.6770  105.6470 O.co2     1 AVD833      0.0000 
      8 C34        16.8710   82.5710  103.5980 C.ar      1 AVD833      0.0000 
      9 C33        15.5470   82.6040  103.1550 C.ar      1 AVD833      0.0000 
     10 C32        15.0970   83.6340  102.3130 C.ar      1 AVD833      0.0000 
     11 C31        15.9840   84.6390  101.9030 C.ar      1 AVD833      0.0000 
     12 C30        17.3060   84.5980  102.3460 C.ar      1 AVD833      0.0000 
     13 C28        17.7850   83.5640  103.1750 C.ar      1 AVD833      0.0000 
     14 N21        19.1540   83.5370  103.6800 N.pl3     1 AVD833      0.0000 
     15 C22        20.0270   82.4860  103.3670 C.2       1 AVD833      0.0000 
     16 C23        21.3330   82.4170  103.8880 C.2       1 AVD833      0.0000 
     17 C26        22.2440   81.2160  103.4210 C.2       1 AVD833      0.0000 
     18 O42        21.7510   80.4920  102.5650 O.co2     1 AVD833      0.0000 
     19 O27        23.3880   80.9840  103.8770 O.co2     1 AVD833      0.0000 
     20 C24        21.7550   83.4450  104.7860 C.2       1 AVD833      0.0000 
     21 O25        22.8740   83.4400  105.2960 O.2       1 AVD833      0.0000 
     22 C17        20.9110   84.5020  105.1330 C.ar      1 AVD833      0.0000 
     23 C18        21.3590   85.4640  106.0370 C.ar      1 AVD833      0.0000 
     24 C16        19.6270   84.5450  104.6140 C.ar      1 AVD833      0.0000 
     25 C15        18.8340   85.5950  105.0220 C.ar      1 AVD833      0.0000 
     26 C14        19.2960   86.5720  105.8950 C.ar      1 AVD833      0.0000 
     27 CL29       18.1230   87.8160  106.2940 Cl        1 AVD833      0.0000 
     28 C13        20.5920   86.5370  106.4420 C.ar      1 AVD833      0.0000 
     29 N10        21.0730   87.4830  107.3260 N.pl3     1 AVD833      0.0000 
     30 C3         23.4120   87.9150  107.1100 C.ar      1 AVD833      0.0000 
     31 CL12       23.2100   88.5250  105.5200 Cl        1 AVD833      0.0000 
     32 F11        26.1130   87.3500  109.3660 F         1 AVD833      0.0000 
     33 C1         22.5250   86.9820  109.1190 C.ar      1 AVD833      0.0000 
     34 F9         21.4790   86.5450  109.8570 F         1 AVD833      0.0000 
     35 H          23.9782   86.6010  110.6065 H         1 AVD833      0.0000 
     36 H          25.4943   88.1580  107.0202 H         1 AVD833      0.0000 
     37 H          14.8902   81.8660  103.4473 H         1 AVD833      0.0000 
     38 H          14.1228   83.6498  101.9999 H         1 AVD833      0.0000 
     39 H          15.6645   85.3877  101.2899 H         1 AVD833      0.0000 
     40 H          17.9627   85.3503  102.0592 H         1 AVD833      0.0000 
     41 H          19.7022   81.7323  102.7302 H         1 AVD833      0.0000 
     42 H          22.3313   85.3615  106.4265 H         1 AVD833      0.0000 
     43 H          17.8536   85.6632  104.6666 H         1 AVD833      0.0000 
     44 H          20.4006   88.2605  107.6137 H         1 AVD833      0.0000 
@<TRIPOS>BOND
     1    2    1 ar   
     2    4    1 ar   
     3   32    1 1    
     4   33    2 ar   
     5   35    2 1    
     6   29    3 1    
     7   30    3 ar   
     8   33    3 ar   
     9   30    4 ar   
    10   36    4 1    
    11    6    5 ar   
    12    7    6 ar   
    13    8    6 1    
    14    9    8 ar   
    15   13    8 ar   
    16   10    9 ar   
    17   37    9 1    
    18   11   10 ar   
    19   38   10 1    
    20   12   11 ar   
    21   39   11 1    
    22   13   12 ar   
    23   40   12 1    
    24   14   13 1    
    25   15   14 1    
    26   24   14 1    
    27   16   15 2    
    28   41   15 1    
    29   17   16 1    
    30   20   16 1    
    31   18   17 ar   
    32   19   17 ar   
    33   21   20 2    
    34   22   20 1    
    35   23   22 ar   
    36   24   22 ar   
    37   28   23 ar   
    38   42   23 1    
    39   25   24 ar   
    40   26   25 ar   
    41   43   25 1    
    42   27   26 1    
    43   28   26 ar   
    44   29   28 1    
    45   44   29 1    
    46   31   30 1    
    47   34   33 1    
@<TRIPOS>SUBSTRUCTURE
     1 AVD833      1 GROUP   
@<TRIPOS>SET

