#    Name: 4jtz_1NW_2_INTS_M
#    Modification time : Tue Mar 25 06:21:07 2014

@<TRIPOS>MOLECULE
4jtz_1NW_2_INTS_M
   99     0     6     0     0
SMALL
NO_CHARGES


@<TRIPOS>ATOM
      1 CA        -18.1755  -18.5065  -12.9785 C.3       2 GLC5        0.0000 
      2 CA        -18.4890  -20.6940  -13.3210 C.3       6 GLL5        0.0000 
      3 CA        -17.8620  -16.3190  -12.6360 C.3       4 GLP5        0.0000 
      4 CA        -20.4800  -20.0880  -16.7595 C.3       2 GLC5        0.0000 
      5 CA        -19.2370  -21.3730  -15.5660 C.3       6 GLL5        0.0000 
      6 CA        -21.7230  -18.8030  -17.9530 C.3       4 GLP5        0.0000 
      7 N         -21.3965  -24.1150   -8.6465 N.am      1 SEC2        0.0000 
      8 N         -21.8240  -24.3250   -9.9580 N.am      5 SEL2        0.0000 
      9 N         -20.9690  -23.9050   -7.3350 N.am      3 SEP2        0.0000 
     10 CA        -27.0070  -23.7550  -12.6815 C.3       2 GLC5        0.0000 
     11 CA        -25.1740  -24.1100  -13.6560 C.3       6 GLL5        0.0000 
     12 CA        -28.8400  -23.4000  -11.7070 C.3       4 GLP5        0.0000 
     13 N         -23.8045  -23.4875   -8.2515 N.am      1 SEC2        0.0000 
     14 N         -24.0870  -24.3550   -9.5200 N.am      5 SEL2        0.0000 
     15 N         -23.5220  -22.6200   -6.9830 N.am      3 SEP2        0.0000 
     16 CA        -25.4800  -21.2125  -14.4705 C.3       2 GLC5        0.0000 
     17 CA        -26.3170  -21.8770  -16.0600 C.3       6 GLL5        0.0000 
     18 CA        -24.6430  -20.5480  -12.8810 C.3       4 GLP5        0.0000 
     19 CA        -27.9490  -24.0675  -13.4165 C.3       2 GLC5        0.0000 
     20 CA        -27.0580  -24.7350  -15.1260 C.3       6 GLL5        0.0000 
     21 CA        -19.4395  -18.5660  -16.7840 C.3       2 GLC5        0.0000 
     22 CA        -18.3310  -19.2110  -15.1610 C.3       6 GLL5        0.0000 
     23 CA        -20.5480  -17.9210  -18.4070 C.3       4 GLP5        0.0000 
     24 CA        -16.7080  -19.4045  -15.6470 C.3       2 GLC5        0.0000 
     25 CA        -15.0850  -19.5980  -16.1330 C.3       4 GLP5        0.0000 
     26 CA        -26.3775  -21.2595  -13.8410 C.3       2 GLC5        0.0000 
     27 CA        -28.1120  -21.9710  -14.8010 C.3       6 GLL5        0.0000 
     28 CA        -28.4760  -22.6855  -13.2540 C.3       2 GLC5        0.0000 
     29 CA        -28.5445  -20.1230  -14.4805 C.3       2 GLC5        0.0000 
     30 CA        -28.9770  -18.2750  -14.1600 C.3       4 GLP5        0.0000 
     31 CA        -30.0145  -21.1545  -16.7095 C.3       2 GLC5        0.0000 
     32 CA        -28.3050  -21.6270  -16.9140 C.3       6 GLL5        0.0000 
     33 CA        -31.7240  -20.6820  -16.5050 C.3       4 GLP5        0.0000 
     34 CA        -28.4730  -20.6395  -18.2340 C.3       2 GLC5        0.0000 
     35 CA        -28.6410  -19.6520  -19.5540 C.3       4 GLP5        0.0000 
     36 CA        -18.4995  -22.8925   -9.9970 C.3       2 GLC5        0.0000 
     37 CA        -18.6770  -22.2150  -11.5250 C.3       6 GLL5        0.0000 
     38 CA        -18.3220  -23.5700   -8.4690 C.3       4 GLP5        0.0000 
     39 CA        -20.1645  -21.1235  -10.7175 C.3       2 GLC5        0.0000 
     40 CA        -21.6520  -20.0320   -9.9100 C.3       4 GLP5        0.0000 
     41 CA        -18.6235  -22.6405  -17.0555 C.3       2 GLC5        0.0000 
     42 CA        -20.1290  -23.5250  -15.8930 C.3       6 GLL5        0.0000 
     43 CA        -17.1180  -21.7560  -18.2180 C.3       4 GLP5        0.0000 
     44 N         -26.8870  -23.7315  -20.0530 N.am      1 SEC2        0.0000 
     45 N         -28.0630  -23.3430  -19.2740 N.am      5 SEL2        0.0000 
     46 N         -25.7110  -24.1200  -20.8320 N.am      3 SEP2        0.0000 
     47 CA        -29.6055  -24.4310  -21.1520 C.3       2 GLC5        0.0000 
     48 CA        -31.1220  -23.8160  -19.7070 C.3       6 GLL5        0.0000 
     49 CA        -28.0890  -25.0460  -22.5970 C.3       4 GLP5        0.0000 
     50 CA        -34.5695  -23.6470  -20.1090 C.3       2 GLC5        0.0000 
     51 CA        -32.5280  -23.8380  -19.5550 C.3       6 GLL5        0.0000 
     52 CA        -36.6110  -23.4560  -20.6630 C.3       4 GLP5        0.0000 
     53 CA        -34.0395  -21.4955  -21.7130 C.3       2 GLC5        0.0000 
     54 CA        -32.9050  -22.9030  -21.6960 C.3       6 GLL5        0.0000 
     55 CA        -35.1740  -20.0880  -21.7300 C.3       4 GLP5        0.0000 
     56 CA        -16.9937  -21.6953  -14.2577 C.3       2 GLC5        0.0000 
     57 CA        -15.3100  -22.0620  -15.4420 C.3       4 GLP5        0.0000 
     58 CA        -18.5325  -17.9650  -15.0005 C.3       2 GLC5        0.0000 
     59 CA        -18.6810  -20.4090  -14.6890 C.3       6 GLL5        0.0000 
     60 CA        -18.5590  -16.1200  -15.0760 C.3       4 GLP5        0.0000 
     61 CA        -20.8622  -21.4797  -13.8628 C.3       2 GLC5        0.0000 
     62 CA        -19.6060  -22.6340  -15.0510 C.3       6 GLL5        0.0000 
     63 CA        -22.2060  -20.1630  -13.3640 C.3       4 GLP5        0.0000 
     64 CA        -21.0267  -23.7377  -16.7855 C.3       2 GLC5        0.0000 
     65 CA        -22.1860  -24.3960  -18.0990 C.3       4 GLP5        0.0000 
     66 CA        -17.2963  -21.9123  -15.2656 C.3       2 GLC5        0.0000 
     67 CA        -22.3897  -22.1418  -13.4125 C.3       2 GLC5        0.0000 
     68 CA        -22.7530  -24.0770  -14.1510 C.3       6 GLL5        0.0000 
     69 CA        -24.4155  -22.3780  -12.4657 C.3       2 GLC5        0.0000 
     70 CA        -23.5020  -24.2220  -11.8310 C.3       6 GLL5        0.0000 
     71 CA        -25.6295  -24.1130  -10.7157 C.3       2 GLC5        0.0000 
     72 CA        -24.8740  -24.1940  -12.2700 C.3       6 GLL5        0.0000 
     73 CA        -27.0710  -24.0180   -9.3810 C.3       4 GLP5        0.0000 
     74 CA        -24.6427  -22.3133  -13.5030 C.3       2 GLC5        0.0000 
     75 CA        -23.3830  -25.2550  -15.8018 C.3       2 GLC5        0.0000 
     76 CA        -24.1110  -24.0470  -14.5940 C.3       6 GLL5        0.0000 
     77 CA        -23.3340  -26.4480  -17.2310 C.3       4 GLP5        0.0000 
     78 CA        -25.3185  -26.4755  -16.5085 C.3       2 GLC5        0.0000 
     79 CA        -27.0390  -26.1720  -15.2200 C.3       6 GLL5        0.0000 
     80 CA        -26.1504  -24.8554  -17.8865 C.3       2 GLC5        0.0000 
     81 CA        -28.1250  -26.0910  -17.4080 C.3       6 GLL5        0.0000 
     82 CA        -24.4180  -25.0620  -18.9870 C.3       4 GLP5        0.0000 
     83 CA        -29.8407  -22.1313  -15.6758 C.3       2 GLC5        0.0000 
     84 CA        -27.5990  -22.3720  -16.0140 C.3       6 GLL5        0.0000 
     85 CA        -31.8260  -22.0910  -15.9440 C.3       4 GLP5        0.0000 
     86 CA        -20.4255  -20.1070  -14.2541 C.3       2 GLC5        0.0000 
     87 CA        -26.2817  -21.1129  -17.4853 C.3       2 GLC5        0.0000 
     88 CA        -24.9320  -20.3500  -18.4950 C.3       4 GLP5        0.0000 
     89 CA        -27.8327  -19.9214  -15.8957 C.3       2 GLC5        0.0000 
     90 CA        -28.0340  -17.9670  -15.3160 C.3       4 GLP5        0.0000 
     91 CA        -20.4416  -20.9674  -12.8316 C.3       2 GLC5        0.0000 
     92 CA        -18.8660  -21.9630  -12.8260 C.3       6 GLL5        0.0000 
     93 CA        -31.8255  -22.9590  -17.7875 C.3       2 GLC5        0.0000 
     94 CA        -30.1210  -23.9647  -22.5632 C.3       2 GLC5        0.0000 
     95 CA        -31.5310  -22.8340  -21.9620 C.3       6 GLL5        0.0000 
     96 CA        -29.1560  -24.8650  -23.6680 C.3       4 GLP5        0.0000 
     97 CA        -31.2163  -21.1964  -20.8330 C.3       2 GLC5        0.0000 
     98 CA        -30.6410  -23.2950  -20.9550 C.3       6 GLL5        0.0000 
     99 CA        -31.0030  -19.3110  -20.2740 C.3       4 GLP5        0.0000 
@<TRIPOS>BOND
@<TRIPOS>SUBSTRUCTURE
     1 SEC2        7 GROUP        1 X    SEC  0     ROOT SEC X 2
     2 GLC5        1 GROUP        1 X    GLC  0     **** GLC X 6
     3 SEP2        9 GROUP        1 Y    SEP  0     ROOT SEP Y 9
     4 GLP5        3 GROUP        1 Y    GLP  0     **** GLP Y 13
     5 SEL2        8 GROUP        1 Z    SEL  0     ROOT SEL Z 16
     6 GLL5        2 GROUP        1 Z    GLL  0     **** GLL Z 20
@<TRIPOS>SET

