#    Name: 4jtz_1NW_2_ligand
#    Modification time : Tue Mar 25 06:21:07 2014

@<TRIPOS>MOLECULE
4jtz_1NW_2_ligand
   57    61     1     0     0
SMALL
NO_CHARGES


@<TRIPOS>ATOM
      1 C1        -18.8660  -21.9630  -12.8260 C.ar      1 1NW602      0.0000 
      2 C2        -18.4890  -20.6940  -13.3210 C.ar      1 1NW602      0.0000 
      3 C3        -18.6810  -20.4090  -14.6890 C.ar      1 1NW602      0.0000 
      4 C4        -19.2370  -21.3730  -15.5660 C.ar      1 1NW602      0.0000 
      5 C5        -19.6060  -22.6340  -15.0510 C.ar      1 1NW602      0.0000 
      6 C6        -19.4310  -22.9590  -13.6720 C.ar      1 1NW602      0.0000 
      7 C7        -19.8410  -24.3020  -13.1300 C.3       1 1NW602      0.0000 
      8 N8        -21.8240  -24.3250   -9.9580 N.2       1 1NW602      0.0000 
      9 C9        -20.8990  -24.2730  -10.8730 C.2       1 1NW602      0.0000 
     10 N10       -21.0430  -24.1980  -12.2590 N.pl3     1 1NW602      0.0000 
     11 C11       -22.3940  -24.1640  -12.7710 C.ar      1 1NW602      0.0000 
     12 C12       -23.5020  -24.2220  -11.8310 C.ar      1 1NW602      0.0000 
     13 C13       -24.8740  -24.1940  -12.2700 C.ar      1 1NW602      0.0000 
     14 C14       -25.1740  -24.1100  -13.6560 C.ar      1 1NW602      0.0000 
     15 C15       -24.1110  -24.0470  -14.5940 C.ar      1 1NW602      0.0000 
     16 C16       -22.7530  -24.0770  -14.1510 C.ar      1 1NW602      0.0000 
     17 C17       -23.1640  -24.3060  -10.3480 C.2       1 1NW602      0.0000 
     18 O18       -24.0870  -24.3550   -9.5200 O.2       1 1NW602      0.0000 
     19 F19       -26.3170  -21.8770  -16.0600 F         1 1NW602      0.0000 
     20 O20       -26.5340  -24.0850  -13.9850 O.3       1 1NW602      0.0000 
     21 C21       -27.0580  -24.7350  -15.1260 C.ar      1 1NW602      0.0000 
     22 C22       -27.0390  -26.1720  -15.2200 C.ar      1 1NW602      0.0000 
     23 C23       -27.5670  -26.8340  -16.3520 C.ar      1 1NW602      0.0000 
     24 C24       -28.1250  -26.0910  -17.4080 C.ar      1 1NW602      0.0000 
     25 C25       -28.1680  -24.6620  -17.3600 C.ar      1 1NW602      0.0000 
     26 C26       -27.6190  -23.9210  -16.1880 C.ar      1 1NW602      0.0000 
     27 C27       -27.5990  -22.3720  -16.0140 C.3       1 1NW602      0.0000 
     28 F28       -18.3310  -19.2110  -15.1610 F         1 1NW602      0.0000 
     29 F29       -28.1120  -21.9710  -14.8010 F         1 1NW602      0.0000 
     30 F30       -28.3050  -21.6270  -16.9140 F         1 1NW602      0.0000 
     31 F31       -18.6770  -22.2150  -11.5250 F         1 1NW602      0.0000 
     32 F32       -20.1290  -23.5250  -15.8930 F         1 1NW602      0.0000 
     33 C33       -28.7970  -24.0140  -18.5590 C.2       1 1NW602      0.0000 
     34 O34       -28.0630  -23.3430  -19.2740 O.2       1 1NW602      0.0000 
     35 N35       -30.1840  -24.2710  -18.6980 N.am      1 1NW602      0.0000 
     36 C36       -31.1220  -23.8160  -19.7070 C.ar      1 1NW602      0.0000 
     37 C37       -32.5280  -23.8380  -19.5550 C.ar      1 1NW602      0.0000 
     38 N38       -33.4200  -23.3950  -20.5170 N.ar      1 1NW602      0.0000 
     39 C39       -32.9050  -22.9030  -21.6960 C.ar      1 1NW602      0.0000 
     40 C40       -31.5310  -22.8340  -21.9620 C.ar      1 1NW602      0.0000 
     41 C41       -30.6410  -23.2950  -20.9550 C.ar      1 1NW602      0.0000 
     42 H         -18.0866  -19.9997  -12.7010 H         1 1NW602      0.0000 
     43 H         -19.3667  -21.1578  -16.5476 H         1 1NW602      0.0000 
     44 H         -19.0046  -24.7297  -12.5595 H         1 1NW602      0.0000 
     45 H         -20.0481  -24.9802  -13.9696 H         1 1NW602      0.0000 
     46 H         -19.8461  -24.2885  -10.5412 H         1 1NW602      0.0000 
     47 H         -25.6192  -24.2347  -11.5825 H         1 1NW602      0.0000 
     48 H         -24.3133  -23.9798  -15.5916 H         1 1NW602      0.0000 
     49 H         -21.9990  -24.0340  -14.8585 H         1 1NW602      0.0000 
     50 H         -26.6349  -26.7114  -14.4501 H         1 1NW602      0.0000 
     51 H         -27.5418  -27.8552  -16.4003 H         1 1NW602      0.0000 
     52 H         -28.5094  -26.5712  -18.2290 H         1 1NW602      0.0000 
     53 H         -30.6252  -24.9083  -17.9338 H         1 1NW602      0.0000 
     54 H         -32.9091  -24.2178  -18.6479 H         1 1NW602      0.0000 
     55 H         -33.5661  -22.5606  -22.4377 H         1 1NW602      0.0000 
     56 H         -31.1785  -22.4730  -22.8309 H         1 1NW602      0.0000 
     57 H         -29.6273  -23.2571  -21.1181 H         1 1NW602      0.0000 
@<TRIPOS>BOND
     1    2    1 ar   
     2    6    1 ar   
     3   31    1 1    
     4    3    2 ar   
     5   42    2 1    
     6    4    3 ar   
     7   28    3 1    
     8    5    4 ar   
     9   43    4 1    
    10    6    5 ar   
    11   32    5 1    
    12    7    6 1    
    13   10    7 1    
    14   44    7 1    
    15   45    7 1    
    16    9    8 2    
    17   17    8 1    
    18   10    9 1    
    19   46    9 1    
    20   11   10 1    
    21   12   11 ar   
    22   16   11 ar   
    23   13   12 ar   
    24   17   12 1    
    25   14   13 ar   
    26   47   13 1    
    27   15   14 ar   
    28   20   14 1    
    29   16   15 ar   
    30   48   15 1    
    31   49   16 1    
    32   18   17 2    
    33   27   19 1    
    34   21   20 1    
    35   22   21 ar   
    36   26   21 ar   
    37   23   22 ar   
    38   50   22 1    
    39   24   23 ar   
    40   51   23 1    
    41   25   24 ar   
    42   52   24 1    
    43   26   25 ar   
    44   33   25 1    
    45   27   26 1    
    46   29   27 1    
    47   30   27 1    
    48   34   33 2    
    49   35   33 am   
    50   36   35 1    
    51   53   35 1    
    52   37   36 ar   
    53   41   36 ar   
    54   38   37 ar   
    55   54   37 1    
    56   39   38 ar   
    57   40   39 ar   
    58   55   39 1    
    59   41   40 ar   
    60   56   40 1    
    61   57   41 1    
@<TRIPOS>SUBSTRUCTURE
     1 1NW602      1 GROUP   
@<TRIPOS>SET

