#    Name: 1ng4_FAD_2_INTS_M
#    Modification time : Mon Mar 24 18:11:21 2014

@<TRIPOS>MOLECULE
1ng4_FAD_2_INTS_M
  138     0     9     0     0
SMALL
NO_CHARGES


@<TRIPOS>ATOM
      1 N          41.6505   79.6350   88.7720 N.am      2 SEC2        0.0000 
      2 N          42.3960   81.0680   89.0630 N.am      8 SEL2        0.0000 
      3 N          40.9050   78.2020   88.4810 N.am      5 SEP2        0.0000 
      4 N          41.7335   82.0275   89.6835 N.am      2 SEC2        0.0000 
      5 N          41.0710   82.9870   90.3040 N.am      5 SEP2        0.0000 
      6 N          42.2580   79.5110   86.2815 N.am      2 SEC2        0.0000 
      7 N          43.2840   80.4310   86.8140 N.am      8 SEL2        0.0000 
      8 N          41.2320   78.5910   85.7490 N.am      5 SEP2        0.0000 
      9 N          43.4130   80.0865   85.5925 N.am      2 SEC2        0.0000 
     10 N          43.5420   79.7420   84.3710 N.am      5 SEP2        0.0000 
     11 CA         44.7530   83.2920   90.0660 C.3       3 GLC5        0.0000 
     12 CA         45.5800   81.5410   89.6840 C.3       9 GLL5        0.0000 
     13 CA         43.9260   85.0430   90.4480 C.3       6 GLP5        0.0000 
     14 CA         44.0770   81.0045   91.1990 C.3       3 GLC5        0.0000 
     15 CA         42.5740   80.4680   92.7140 C.3       6 GLP5        0.0000 
     16 CA         48.6945   81.3575   89.9690 C.3       3 GLC5        0.0000 
     17 CA         46.7240   80.6370   89.9990 C.3       9 GLL5        0.0000 
     18 CA         50.6650   82.0780   89.9390 C.3       6 GLP5        0.0000 
     19 CA         44.6200   78.3080   90.2775 C.3       3 GLC5        0.0000 
     20 CA         46.2920   79.2090   90.4840 C.3       9 GLL5        0.0000 
     21 CA         42.9480   77.4070   90.0710 C.3       6 GLP5        0.0000 
     22 CA         44.7165   78.2235   91.7320 C.3       3 GLC5        0.0000 
     23 CA         46.6750   79.1940   91.9040 C.3       9 GLL5        0.0000 
     24 CA         42.7580   77.2530   91.5600 C.3       6 GLP5        0.0000 
     25 CA         44.9870   80.2860   92.6925 C.3       3 GLC5        0.0000 
     26 CA         43.2990   81.3780   93.4810 C.3       6 GLP5        0.0000 
     27 O          47.9415   77.2305   91.9240 O.2       1 ALC1        0.0000 
     28 O          46.9800   77.9730   92.5190 O.2       7 ALL1        0.0000 
     29 O          48.9030   76.4880   91.3290 O.2       4 ALP1        0.0000 
     30 CA         49.2715   81.0995   90.9605 C.3       3 GLC5        0.0000 
     31 CA         47.8780   80.1210   91.9820 C.3       9 GLL5        0.0000 
     32 CA         47.6800   82.3250   91.8035 C.3       3 GLC5        0.0000 
     33 CA         47.4820   84.5290   91.6250 C.3       6 GLP5        0.0000 
     34 CA         51.5935   82.9555   94.7175 C.3       3 GLC5        0.0000 
     35 CA         50.4330   81.5750   95.8570 C.3       9 GLL5        0.0000 
     36 CA         52.7540   84.3360   93.5780 C.3       6 GLP5        0.0000 
     37 CA         51.8750   79.9370   96.3840 C.3       3 GLC5        0.0000 
     38 CA         53.3170   78.2990   96.9110 C.3       6 GLP5        0.0000 
     39 O          51.6755   82.3240   97.9785 O.2       1 ALC1        0.0000 
     40 O          50.4360   82.1520   97.0650 O.2       7 ALL1        0.0000 
     41 O          52.9150   82.4960   98.8920 O.2       4 ALP1        0.0000 
     42 N          52.7845   80.8820   96.2065 N.am      2 SEC2        0.0000 
     43 N          51.6360   81.1130   95.3250 N.am      8 SEL2        0.0000 
     44 N          53.9330   80.6510   97.0880 N.am      5 SEP2        0.0000 
     45 CA         52.2170   82.4280   93.8420 C.3       3 GLC5        0.0000 
     46 CA         51.6800   80.5200   94.1060 C.3       9 GLL5        0.0000 
     47 CA         52.0805   79.1625   92.6870 C.3       3 GLC5        0.0000 
     48 CA         52.4810   77.8050   91.2680 C.3       6 GLP5        0.0000 
     49 CA         50.6345   78.8020   94.6180 C.3       3 GLC5        0.0000 
     50 CA         49.5890   77.0840   95.1300 C.3       6 GLP5        0.0000 
     51 CA         52.4985   79.4095   95.5085 C.3       3 GLC5        0.0000 
     52 CA         53.6220   81.4870   94.7000 C.3       3 GLC5        0.0000 
     53 CA         55.5640   82.4540   95.2940 C.3       6 GLP5        0.0000 
     54 N          50.8665   78.7745   93.2680 N.am      2 SEC2        0.0000 
     55 N          50.5540   80.3110   93.2790 N.am      8 SEL2        0.0000 
     56 N          51.1790   77.2380   93.2570 N.am      5 SEP2        0.0000 
     57 CA         50.0200   81.4500   91.9295 C.3       3 GLC5        0.0000 
     58 CA         49.3750   80.8220   93.9200 C.3       9 GLL5        0.0000 
     59 N          39.1500   84.3695   79.3450 N.am      2 SEC2        0.0000 
     60 N          37.8410   84.5830   78.8490 N.am      8 SEL2        0.0000 
     61 N          40.4590   84.1560   79.8410 N.am      5 SEP2        0.0000 
     62 N          39.0270   84.8670   78.0785 N.am      2 SEC2        0.0000 
     63 N          40.2130   85.1510   77.3080 N.am      5 SEP2        0.0000 
     64 O          36.2385   83.2875   77.2275 O.2       1 ALC1        0.0000 
     65 O          36.1420   83.0710   78.6500 O.2       7 ALL1        0.0000 
     66 O          36.3350   83.5040   75.8050 O.2       4 ALP1        0.0000 
     67 N          35.2385   80.2660   78.1135 N.am      2 SEC2        0.0000 
     68 N          34.4060   81.5350   78.3600 N.am      8 SEL2        0.0000 
     69 N          36.0710   78.9970   77.8670 N.am      5 SEP2        0.0000 
     70 N          34.9590   81.1835   77.1050 N.am      2 SEC2        0.0000 
     71 N          35.5120   80.8320   75.8500 N.am      5 SEP2        0.0000 
     72 N          34.5685   79.6565   80.6615 N.am      2 SEC2        0.0000 
     73 N          34.2330   81.1060   81.0950 N.am      8 SEL2        0.0000 
     74 N          34.9040   78.2070   80.2280 N.am      5 SEP2        0.0000 
     75 CA         31.3390   79.1610   86.9510 C.3       3 GLC5        0.0000 
     76 CA         32.3020   78.9020   85.1530 C.3       9 GLL5        0.0000 
     77 CA         30.3760   79.4200   88.7490 C.3       6 GLP5        0.0000 
     78 CA         31.6025   77.4435   84.8015 C.3       3 GLC5        0.0000 
     79 CA         30.9030   75.9850   84.4500 C.3       6 GLP5        0.0000 
     80 CA         30.3035   79.4810   84.7420 C.3       3 GLC5        0.0000 
     81 CA         28.3050   80.0600   84.3310 C.3       6 GLP5        0.0000 
     82 CA         36.4275   80.6705   87.1045 C.3       3 GLC5        0.0000 
     83 CA         34.3750   80.4220   86.8570 C.3       9 GLL5        0.0000 
     84 CA         38.4800   80.9190   87.3520 C.3       6 GLP5        0.0000 
     85 CA         34.9785   79.0210   88.1455 C.3       3 GLC5        0.0000 
     86 CA         35.5820   77.6200   89.4340 C.3       6 GLP5        0.0000 
     87 CA         36.8320   81.1840   86.0590 C.3       3 GLC5        0.0000 
     88 CA         35.1840   81.4490   84.7660 C.3       9 GLL5        0.0000 
     89 CA         35.8115   79.8580   83.4255 C.3       3 GLC5        0.0000 
     90 CA         36.4390   78.2670   82.0850 C.3       6 GLP5        0.0000 
     91 CA         36.3540   80.4940   82.5540 C.3       3 GLC5        0.0000 
     92 CA         35.2010   81.6770   83.3710 C.3       9 GLL5        0.0000 
     93 CA         37.5070   79.3110   81.7370 C.3       6 GLP5        0.0000 
     94 CA         35.9900   84.8815   83.2855 C.3       3 GLC5        0.0000 
     95 CA         37.0620   83.3070   83.5200 C.3       9 GLL5        0.0000 
     96 CA         34.9180   86.4560   83.0510 C.3       6 GLP5        0.0000 
     97 CA         39.5900   81.9200   82.0115 C.3       3 GLC5        0.0000 
     98 CA         38.4750   82.7970   83.5260 C.3       9 GLL5        0.0000 
     99 CA         40.7050   81.0430   80.4970 C.3       6 GLP5        0.0000 
    100 CA         38.8545   84.4745   86.4210 C.3       3 GLC5        0.0000 
    101 CA         39.4050   83.4820   84.4980 C.3       9 GLL5        0.0000 
    102 CA         38.3040   85.4670   88.3440 C.3       6 GLP5        0.0000 
    103 O          39.0010   85.9510   84.8920 O.2       1 ALC1        0.0000 
    104 O          39.4260   84.8960   84.3330 O.2       7 ALL1        0.0000 
    105 O          38.5760   87.0060   85.4510 O.2       4 ALP1        0.0000 
    106 CA         42.5810   82.6435   83.1445 C.3       3 GLC5        0.0000 
    107 CA         40.8880   83.0840   84.4220 C.3       9 GLL5        0.0000 
    108 CA         44.2740   82.2030   81.8670 C.3       6 GLP5        0.0000 
    109 CA         40.7965   82.0635   82.4595 C.3       3 GLC5        0.0000 
    110 O          42.2465   80.6875   84.4670 O.2       1 ALC1        0.0000 
    111 O          40.9510   81.6330   84.5630 O.2       7 ALL1        0.0000 
    112 O          43.5420   79.7420   84.3710 O.2       4 ALP1        0.0000 
    113 CA         43.5545   84.7025   84.7420 C.3       3 GLC5        0.0000 
    114 CA         41.7290   83.6680   85.4890 C.3       9 GLL5        0.0000 
    115 CA         45.3800   85.7370   83.9950 C.3       6 GLP5        0.0000 
    116 CA         40.7245   84.6740   87.1235 C.3       3 GLC5        0.0000 
    117 CA         39.7200   85.6800   88.7580 C.3       6 GLP5        0.0000 
    118 N          46.1570   83.1540   84.5145 N.am      2 SEC2        0.0000 
    119 N          45.4120   82.9540   85.8670 N.am      8 SEL2        0.0000 
    120 N          46.9020   83.3540   83.1620 N.am      5 SEP2        0.0000 
    121 N          45.0570   85.6635   87.4535 N.am      2 SEC2        0.0000 
    122 N          44.1080   85.0010   86.7080 N.am      8 SEL2        0.0000 
    123 N          46.0060   86.3260   88.1990 N.am      5 SEP2        0.0000 
    124 CA         46.5450   80.5305   87.8633 C.3       3 GLC5        0.0000 
    125 CA         46.9380   79.9720   85.8850 C.3       6 GLP5        0.0000 
    126 CA         46.8170   82.8090   90.7332 C.3       3 GLC5        0.0000 
    127 CA         49.4500   79.0978   94.8167 C.3       3 GLC5        0.0000 
    128 CA         48.6545   82.8678   93.7823 C.3       3 GLC5        0.0000 
    129 CA         47.9980   84.6240   93.0610 C.3       6 GLP5        0.0000 
    130 CA         34.9985   79.2300   82.8835 C.3       3 GLC5        0.0000 
    131 CA         34.2510   80.9560   82.5000 C.3       9 GLL5        0.0000 
    132 CA         34.2874   82.3594   86.5030 C.3       3 GLC5        0.0000 
    133 CA         34.2800   80.5750   85.3470 C.3       9 GLL5        0.0000 
    134 CA         33.8190   83.7450   87.5720 C.3       6 GLP5        0.0000 
    135 CA         37.6377   81.1815   82.6300 C.3       3 GLC5        0.0000 
    136 CA         39.1970   82.0154   85.7845 C.3       3 GLC5        0.0000 
    137 CA         40.2695   84.4689   82.9115 C.3       3 GLC5        0.0000 
    138 CA         40.6250   85.8260   81.6060 C.3       6 GLP5        0.0000 
@<TRIPOS>BOND
@<TRIPOS>SUBSTRUCTURE
     1 ALC1       27 GROUP        1 X    ALC  0     ROOT ALC X 1
     2 SEC2        1 GROUP        1 X    SEC  0     **** SEC X 2
     3 GLC5       11 GROUP        1 X    GLC  0     **** GLC X 6
     4 ALP1       29 GROUP        1 Y    ALP  0     ROOT ALP Y 8
     5 SEP2        3 GROUP        1 Y    SEP  0     **** SEP Y 9
     6 GLP5       13 GROUP        1 Y    GLP  0     **** GLP Y 13
     7 ALL1       28 GROUP        1 Z    ALL  0     ROOT ALL Z 15
     8 SEL2        2 GROUP        1 Z    SEL  0     **** SEL Z 16
     9 GLL5       12 GROUP        1 Z    GLL  0     **** GLL Z 20
@<TRIPOS>SET

