#    Name: 1ng4_FAD_2_ligand
#    Modification time : Mon Mar 24 18:11:21 2014

@<TRIPOS>MOLECULE
1ng4_FAD_2_ligand
   84    89     1     0     0
SMALL
NO_CHARGES


@<TRIPOS>ATOM
      1 PA         43.5480   81.2190   88.0560 P.3       1 FAD500      0.0000 
      2 O1A        42.3960   81.0680   89.0630 O.co2     1 FAD500      0.0000 
      3 O2A        43.2840   80.4310   86.8140 O.co2     1 FAD500      0.0000 
      4 O5B        44.8880   80.7850   88.6880 O.3       1 FAD500      0.0000 
      5 C5B        45.5800   81.5410   89.6840 C.3       1 FAD500      0.0000 
      6 C4B        46.7240   80.6370   89.9990 C.3       1 FAD500      0.0000 
      7 O4B        47.6440   81.1440   91.0090 O.3       1 FAD500      0.0000 
      8 C3B        46.2920   79.2090   90.4840 C.3       1 FAD500      0.0000 
      9 O3B        46.9060   78.2090   89.6770 O.3       1 FAD500      0.0000 
     10 C2B        46.6750   79.1940   91.9040 C.3       1 FAD500      0.0000 
     11 O2B        46.9800   77.9730   92.5190 O.3       1 FAD500      0.0000 
     12 C1B        47.8780   80.1210   91.9820 C.3       1 FAD500      0.0000 
     13 N9A        48.1380   80.7060   93.2620 N.pl3     1 FAD500      0.0000 
     14 C8A        47.2800   81.3130   94.2170 C.2       1 FAD500      0.0000 
     15 N7A        47.8990   81.7290   95.2900 N.2       1 FAD500      0.0000 
     16 C5A        49.2470   81.4010   95.0870 C.ar      1 FAD500      0.0000 
     17 C6A        50.4330   81.5750   95.8570 C.ar      1 FAD500      0.0000 
     18 N6A        50.4360   82.1520   97.0650 N.pl3     1 FAD500      0.0000 
     19 N1A        51.6360   81.1130   95.3250 N.ar      1 FAD500      0.0000 
     20 C2A        51.6800   80.5200   94.1060 C.ar      1 FAD500      0.0000 
     21 N3A        50.5540   80.3110   93.2790 N.ar      1 FAD500      0.0000 
     22 C4A        49.3750   80.8220   93.9200 C.ar      1 FAD500      0.0000 
     23 N1         37.0410   83.6410   80.7750 N.2       1 FAD500      0.0000 
     24 C2         37.0450   83.8030   79.4080 C.2       1 FAD500      0.0000 
     25 O2         37.8410   84.5830   78.8490 O.2       1 FAD500      0.0000 
     26 N3         36.1420   83.0710   78.6500 N.am      1 FAD500      0.0000 
     27 C4         35.1860   82.1560   79.1600 C.2       1 FAD500      0.0000 
     28 O4         34.4060   81.5350   78.3600 O.2       1 FAD500      0.0000 
     29 C4X        35.1970   82.0220   80.5300 C.2       1 FAD500      0.0000 
     30 N5         34.2330   81.1060   81.0950 N.2       1 FAD500      0.0000 
     31 C5X        34.2510   80.9560   82.5000 C.ar      1 FAD500      0.0000 
     32 C6         33.3390   80.0800   83.1380 C.ar      1 FAD500      0.0000 
     33 C7         33.3210   79.8680   84.5450 C.ar      1 FAD500      0.0000 
     34 C7M        32.3020   78.9020   85.1530 C.3       1 FAD500      0.0000 
     35 C8         34.2800   80.5750   85.3470 C.ar      1 FAD500      0.0000 
     36 C8M        34.3750   80.4220   86.8570 C.3       1 FAD500      0.0000 
     37 C9         35.1840   81.4490   84.7660 C.ar      1 FAD500      0.0000 
     38 C9A        35.2010   81.6770   83.3710 C.ar      1 FAD500      0.0000 
     39 N10        36.1410   82.6010   82.6690 N.pl3     1 FAD500      0.0000 
     40 C10        36.1300   82.7620   81.3120 C.2       1 FAD500      0.0000 
     41 C1'        37.0620   83.3070   83.5200 C.3       1 FAD500      0.0000 
     42 C2'        38.4750   82.7970   83.5260 C.3       1 FAD500      0.0000 
     43 O2'        38.3780   81.4010   83.9540 O.3       1 FAD500      0.0000 
     44 C3'        39.4050   83.4820   84.4980 C.3       1 FAD500      0.0000 
     45 O3'        39.4260   84.8960   84.3330 O.3       1 FAD500      0.0000 
     46 C4'        40.8880   83.0840   84.4220 C.3       1 FAD500      0.0000 
     47 O4'        40.9510   81.6330   84.5630 O.3       1 FAD500      0.0000 
     48 C5'        41.7290   83.6680   85.4890 C.3       1 FAD500      0.0000 
     49 O5'        43.0800   83.2140   85.3440 O.3       1 FAD500      0.0000 
     50 P          44.1830   83.5390   86.4010 P.3       1 FAD500      0.0000 
     51 O1P        45.4120   82.9540   85.8670 O.co2     1 FAD500      0.0000 
     52 O2P        44.1080   85.0010   86.7080 O.co2     1 FAD500      0.0000 
     53 O3P        43.6770   82.7680   87.6990 O.3       1 FAD500      0.0000 
     54 H          44.9883   81.6814   90.5610 H         1 FAD500      0.0000 
     55 H          45.9537   82.4628   89.2972 H         1 FAD500      0.0000 
     56 H          47.3068   80.4513   89.0686 H         1 FAD500      0.0000 
     57 H          45.2111   79.2024   90.4073 H         1 FAD500      0.0000 
     58 H          45.8815   79.7405   92.4688 H         1 FAD500      0.0000 
     59 H          48.7491   79.5310   91.6444 H         1 FAD500      0.0000 
     60 H          46.3041   81.3868   94.0310 H         1 FAD500      0.0000 
     61 H          49.5592   82.5133   97.3822 H         1 FAD500      0.0000 
     62 H          51.3148   82.1700   97.5419 H         1 FAD500      0.0000 
     63 H          52.6127   80.1823   93.7278 H         1 FAD500      0.0000 
     64 H          36.1590   83.1990   77.5933 H         1 FAD500      0.0000 
     65 H          32.6487   79.5661   82.5528 H         1 FAD500      0.0000 
     66 H          35.8692   81.9537   85.3577 H         1 FAD500      0.0000 
     67 H          36.6916   83.3048   84.5812 H         1 FAD500      0.0000 
     68 H          37.0911   84.3960   83.2434 H         1 FAD500      0.0000 
     69 H          38.8814   82.8300   82.5399 H         1 FAD500      0.0000 
     70 H          39.0818   83.2573   85.5288 H         1 FAD500      0.0000 
     71 H          41.2654   83.3598   83.4527 H         1 FAD500      0.0000 
     72 H          41.3200   83.3760   86.4682 H         1 FAD500      0.0000 
     73 H          41.6753   84.7656   85.4276 H         1 FAD500      0.0000 
     74 H          32.4108   77.9743   84.7959 H         1 FAD500      0.0000 
     75 H          32.3911   78.8457   86.1474 H         1 FAD500      0.0000 
     76 H          31.3621   79.1827   84.9584 H         1 FAD500      0.0000 
     77 H          34.5732   79.4786   87.1230 H         1 FAD500      0.0000 
     78 H          35.0988   80.9937   87.2434 H         1 FAD500      0.0000 
     79 H          33.5226   80.6816   87.3110 H         1 FAD500      0.0000 
     80 H          46.4882   77.3486   89.9687 H         1 FAD500      0.0000 
     81 H          47.7126   77.5795   91.9636 H         1 FAD500      0.0000 
     82 H          39.2995   81.1589   84.2578 H         1 FAD500      0.0000 
     83 H          38.7407   85.2414   84.9742 H         1 FAD500      0.0000 
     84 H          41.9132   81.4008   84.4206 H         1 FAD500      0.0000 
@<TRIPOS>BOND
     1    2    1 ar   
     2    3    1 ar   
     3    4    1 1    
     4   53    1 1    
     5    5    4 1    
     6    6    5 1    
     7   54    5 1    
     8   55    5 1    
     9    7    6 1    
    10    8    6 1    
    11   56    6 1    
    12   12    7 1    
    13    9    8 1    
    14   10    8 1    
    15   57    8 1    
    16   80    9 1    
    17   11   10 1    
    18   12   10 1    
    19   58   10 1    
    20   81   11 1    
    21   13   12 1    
    22   59   12 1    
    23   14   13 1    
    24   22   13 1    
    25   15   14 2    
    26   60   14 1    
    27   16   15 1    
    28   17   16 ar   
    29   22   16 ar   
    30   18   17 1    
    31   19   17 ar   
    32   61   18 1    
    33   62   18 1    
    34   20   19 ar   
    35   21   20 ar   
    36   63   20 1    
    37   22   21 ar   
    38   24   23 1    
    39   40   23 2    
    40   25   24 2    
    41   26   24 am   
    42   27   26 am   
    43   64   26 1    
    44   28   27 2    
    45   29   27 1    
    46   30   29 2    
    47   40   29 1    
    48   31   30 1    
    49   32   31 ar   
    50   38   31 ar   
    51   33   32 ar   
    52   65   32 1    
    53   34   33 1    
    54   35   33 ar   
    55   74   34 1    
    56   75   34 1    
    57   76   34 1    
    58   36   35 1    
    59   37   35 ar   
    60   77   36 1    
    61   78   36 1    
    62   79   36 1    
    63   38   37 ar   
    64   66   37 1    
    65   39   38 1    
    66   40   39 1    
    67   41   39 1    
    68   42   41 1    
    69   67   41 1    
    70   68   41 1    
    71   43   42 1    
    72   44   42 1    
    73   69   42 1    
    74   82   43 1    
    75   45   44 1    
    76   46   44 1    
    77   70   44 1    
    78   83   45 1    
    79   47   46 1    
    80   48   46 1    
    81   71   46 1    
    82   84   47 1    
    83   49   48 1    
    84   72   48 1    
    85   73   48 1    
    86   50   49 1    
    87   51   50 ar   
    88   52   50 ar   
    89   53   50 1    
@<TRIPOS>SUBSTRUCTURE
     1 FAD500      1 GROUP   
@<TRIPOS>SET

