#    Name: 2qrk_AMP_1_INTS_M
#    Modification time : Mon Mar 24 22:38:11 2014

@<TRIPOS>MOLECULE
2qrk_AMP_1_INTS_M
   45     0     9     0     0
SMALL
NO_CHARGES


@<TRIPOS>ATOM
      1 N          29.4575    6.3385    7.3380 N.am      2 SEC2        0.0000 
      2 N          29.9870    5.4360    6.3680 N.am      8 SEL2        0.0000 
      3 N          28.9280    7.2410    8.3080 N.am      5 SEP2        0.0000 
      4 N          27.5970    4.9420    8.6355 N.am      2 SEC2        0.0000 
      5 N          28.6270    3.8520    7.8920 N.am      8 SEL2        0.0000 
      6 N          26.5670    6.0320    9.3790 N.am      5 SEP2        0.0000 
      7 CA         32.0830    2.7490   11.6890 C.3       3 GLC5        0.0000 
      8 CA         32.4570    3.1390    9.6170 C.3       9 GLL5        0.0000 
      9 CA         31.7090    2.3590   13.7610 C.3       6 GLP5        0.0000 
     10 O          34.3100    4.5975   11.4840 O.2       1 ALC1        0.0000 
     11 O          34.1090    4.8530   10.1280 O.2       7 ALL1        0.0000 
     12 O          34.5110    4.3420   12.8400 O.2       4 ALP1        0.0000 
     13 O          35.3105    4.2325   11.1955 O.2       1 ALC1        0.0000 
     14 O          36.5120    3.6120   12.2630 O.2       4 ALP1        0.0000 
     15 CA         36.6765    1.7075    9.6230 C.3       3 GLC5        0.0000 
     16 CA         34.7560    2.6210    9.4080 C.3       9 GLL5        0.0000 
     17 CA         38.5970    0.7940    9.8380 C.3       6 GLP5        0.0000 
     18 O          36.3095    3.3145   10.9765 O.2       1 ALC1        0.0000 
     19 O          36.1070    3.0170    9.6900 O.2       7 ALL1        0.0000 
     20 CA         32.9095    2.1265   12.1690 C.3       3 GLC5        0.0000 
     21 CA         34.1100    1.8940   10.5770 C.3       9 GLL5        0.0000 
     22 CA         36.1835    1.1695   10.9455 C.3       3 GLC5        0.0000 
     23 CA         38.2570    0.4450   11.3140 C.3       6 GLP5        0.0000 
     24 CA         32.8290    0.1155   10.3190 C.3       3 GLC5        0.0000 
     25 CA         31.5480   -1.6630   10.0610 C.3       6 GLP5        0.0000 
     26 CA         33.6785   -0.9180   15.2160 C.3       3 GLC5        0.0000 
     27 CA         35.1600   -0.5480   14.1470 C.3       9 GLL5        0.0000 
     28 CA         32.1970   -1.2880   16.2850 C.3       6 GLP5        0.0000 
     29 CA         35.5785    1.1765   14.7645 C.3       3 GLC5        0.0000 
     30 CA         35.9970    2.9010   15.3820 C.3       6 GLP5        0.0000 
     31 CA         36.9465    0.0995   13.9555 C.3       3 GLC5        0.0000 
     32 CA         38.7330    0.7470   13.7640 C.3       6 GLP5        0.0000 
     33 CA         35.4945   -1.3915   15.7750 C.3       3 GLC5        0.0000 
     34 CA         35.8290   -2.2350   17.4030 C.3       6 GLP5        0.0000 
     35 CA         33.2780    1.1380   12.8070 C.3       3 GLC5        0.0000 
     36 CA         34.8470   -0.0830   11.8530 C.3       9 GLL5        0.0000 
     37 CA         31.6590    0.9755    8.8622 C.3       3 GLC5        0.0000 
     38 CA         31.2930   -0.9910    8.6970 C.3       6 GLP5        0.0000 
     39 CA         31.9645    5.0737    9.2726 C.3       3 GLC5        0.0000 
     40 CA         31.0240    6.7870    9.4180 C.3       6 GLP5        0.0000 
     41 CA         33.3047   -1.2142   10.8680 C.3       3 GLC5        0.0000 
     42 CA         35.2760   -1.4480   11.4970 C.3       9 GLL5        0.0000 
     43 CA         34.5860   -3.5508   11.0177 C.3       3 GLC5        0.0000 
     44 CA         33.7080   -5.2140    9.9760 C.3       6 GLP5        0.0000 
     45 CA         36.7062   -0.2701   11.6351 C.3       3 GLC5        0.0000 
@<TRIPOS>BOND
@<TRIPOS>SUBSTRUCTURE
     1 ALC1       10 GROUP        1 X    ALC  0     ROOT ALC X 1
     2 SEC2        1 GROUP        1 X    SEC  0     **** SEC X 2
     3 GLC5        7 GROUP        1 X    GLC  0     **** GLC X 6
     4 ALP1       12 GROUP        1 Y    ALP  0     ROOT ALP Y 8
     5 SEP2        3 GROUP        1 Y    SEP  0     **** SEP Y 9
     6 GLP5        9 GROUP        1 Y    GLP  0     **** GLP Y 13
     7 ALL1       11 GROUP        1 Z    ALL  0     ROOT ALL Z 15
     8 SEL2        2 GROUP        1 Z    SEL  0     **** SEL Z 16
     9 GLL5        8 GROUP        1 Z    GLL  0     **** GLL Z 20
@<TRIPOS>SET

