#    Name: 2qrk_AMP_1_ligand
#    Modification time : Mon Mar 24 22:38:11 2014

@<TRIPOS>MOLECULE
2qrk_AMP_1_ligand
   35    37     1     0     0
SMALL
NO_CHARGES


@<TRIPOS>ATOM
      1 P          29.8420    4.0540    6.9800 P.3       1 AMP500      0.0000 
      2 O1P        29.9870    5.4360    6.3680 O.co2     1 AMP500      0.0000 
      3 O2P        30.0090    2.9770    5.9210 O.co2     1 AMP500      0.0000 
      4 O3P        28.6270    3.8520    7.8920 O.co2     1 AMP500      0.0000 
      5 O5'        31.1640    3.9620    7.8720 O.3       1 AMP500      0.0000 
      6 C5'        31.5930    2.7450    8.4380 C.3       1 AMP500      0.0000 
      7 C4'        32.4570    3.1390    9.6170 C.3       1 AMP500      0.0000 
      8 O4'        32.7240    1.9210   10.2950 O.3       1 AMP500      0.0000 
      9 C3'        33.7850    3.7790    9.2270 C.3       1 AMP500      0.0000 
     10 O3'        34.1090    4.8530   10.1280 O.3       1 AMP500      0.0000 
     11 C2'        34.7560    2.6210    9.4080 C.3       1 AMP500      0.0000 
     12 O2'        36.1070    3.0170    9.6900 O.3       1 AMP500      0.0000 
     13 C1'        34.1100    1.8940   10.5770 C.3       1 AMP500      0.0000 
     14 N9         34.5730    0.4950   10.6840 N.pl3     1 AMP500      0.0000 
     15 C8         34.8010   -0.3670    9.6580 C.2       1 AMP500      0.0000 
     16 N7         35.2330   -1.5620   10.1430 N.2       1 AMP500      0.0000 
     17 C5         35.2760   -1.4480   11.4970 C.ar      1 AMP500      0.0000 
     18 C6         35.6520   -2.3270   12.6220 C.ar      1 AMP500      0.0000 
     19 N6         36.0800   -3.5960   12.3500 N.pl3     1 AMP500      0.0000 
     20 N1         35.5690   -1.8190   13.8850 N.ar      1 AMP500      0.0000 
     21 C2         35.1600   -0.5480   14.1470 C.ar      1 AMP500      0.0000 
     22 N3         34.8010    0.3120   13.1580 N.ar      1 AMP500      0.0000 
     23 C4         34.8470   -0.0830   11.8530 C.ar      1 AMP500      0.0000 
     24 H          32.1973    2.1616    7.7563 H         1 AMP500      0.0000 
     25 H          30.7703    2.1472    8.8068 H         1 AMP500      0.0000 
     26 H          31.9061    3.8065   10.2457 H         1 AMP500      0.0000 
     27 H          33.7531    4.0468    8.2202 H         1 AMP500      0.0000 
     28 H          34.6608    1.9839    8.5511 H         1 AMP500      0.0000 
     29 H          34.3295    2.4386   11.4700 H         1 AMP500      0.0000 
     30 H          34.6742   -0.1605    8.7171 H         1 AMP500      0.0000 
     31 H          36.3382   -4.1521   13.1400 H         1 AMP500      0.0000 
     32 H          36.0975   -3.8571   11.3848 H         1 AMP500      0.0000 
     33 H          35.1207   -0.2215   15.1469 H         1 AMP500      0.0000 
     34 H          34.1503    4.4284   11.0324 H         1 AMP500      0.0000 
     35 H          36.0499    3.5475   10.5357 H         1 AMP500      0.0000 
@<TRIPOS>BOND
     1    2    1 ar   
     2    3    1 ar   
     3    4    1 ar   
     4    5    1 1    
     5    6    5 1    
     6    7    6 1    
     7   24    6 1    
     8   25    6 1    
     9    8    7 1    
    10    9    7 1    
    11   26    7 1    
    12   13    8 1    
    13   10    9 1    
    14   11    9 1    
    15   27    9 1    
    16   34   10 1    
    17   12   11 1    
    18   13   11 1    
    19   28   11 1    
    20   35   12 1    
    21   14   13 1    
    22   29   13 1    
    23   15   14 1    
    24   23   14 1    
    25   16   15 2    
    26   30   15 1    
    27   17   16 1    
    28   18   17 ar   
    29   23   17 ar   
    30   19   18 1    
    31   20   18 ar   
    32   31   19 1    
    33   32   19 1    
    34   21   20 ar   
    35   22   21 ar   
    36   33   21 1    
    37   23   22 ar   
@<TRIPOS>SUBSTRUCTURE
     1 AMP500      1 GROUP   
@<TRIPOS>SET

