#    Name: 3nc9_TR3_1_INTS_M
#    Modification time : Tue Mar 25 01:15:09 2014

@<TRIPOS>MOLECULE
3nc9_TR3_1_INTS_M
   65     0     6     0     0
SMALL
NO_CHARGES


@<TRIPOS>ATOM
      1 CA         -1.6655    0.7915   17.2540 C.3       2 GLC5        0.0000 
      2 CA         -3.8100    0.6940   16.9960 C.3       6 GLL5        0.0000 
      3 CA          0.4790    0.8890   17.5120 C.3       4 GLP5        0.0000 
      4 CA         -3.9295   -6.1275   20.6490 C.3       2 GLC5        0.0000 
      5 CA         -4.6750   -4.2750   20.9380 C.3       6 GLL5        0.0000 
      6 CA         -3.1840   -7.9800   20.3600 C.3       4 GLP5        0.0000 
      7 CA         -2.9155   -4.9290   21.8540 C.3       2 GLC5        0.0000 
      8 CA         -1.1560   -5.5830   22.7700 C.3       4 GLP5        0.0000 
      9 CA         -3.1565   -5.8580   19.9815 C.3       2 GLC5        0.0000 
     10 CA         -4.4320   -4.5670   19.5860 C.3       6 GLL5        0.0000 
     11 CA         -1.8810   -7.1490   20.3770 C.3       4 GLP5        0.0000 
     12 CA         -0.3765   -1.0215   14.5605 C.3       2 GLC5        0.0000 
     13 CA         -1.9360   -0.0290   15.0420 C.3       6 GLL5        0.0000 
     14 CA          1.1830   -2.0140   14.0790 C.3       4 GLP5        0.0000 
     15 CA         -0.7285    0.4300   16.2770 C.3       2 GLC5        0.0000 
     16 CA         -3.9355    1.2425   12.9190 C.3       2 GLC5        0.0000 
     17 CA         -3.1690   -0.2120   13.7290 C.3       6 GLL5        0.0000 
     18 CA         -4.7020    2.6970   12.1090 C.3       4 GLP5        0.0000 
     19 CA         -3.9080   -2.0620   12.9970 C.3       2 GLC5        0.0000 
     20 CA         -4.6470   -3.9120   12.2650 C.3       4 GLP5        0.0000 
     21 CA         -3.0905   -0.3445   11.8295 C.3       2 GLC5        0.0000 
     22 CA         -3.0120   -0.4770    9.9300 C.3       4 GLP5        0.0000 
     23 CA         -1.9320   -1.3805   12.8770 C.3       2 GLC5        0.0000 
     24 CA         -0.6950   -2.5490   12.0250 C.3       4 GLP5        0.0000 
     25 CA         -9.1905    4.8675   23.5665 C.3       2 GLC5        0.0000 
     26 CA        -10.4130    3.5850   22.3130 C.3       6 GLL5        0.0000 
     27 CA         -7.9680    6.1500   24.8200 C.3       4 GLP5        0.0000 
     28 CA         -7.2580    2.4000   23.0080 C.3       2 GLC5        0.0000 
     29 CA         -9.1560    2.7730   21.9850 C.3       6 GLL5        0.0000 
     30 CA         -5.3600    2.0270   24.0310 C.3       4 GLP5        0.0000 
     31 CA         -9.3270    1.1885   18.2495 C.3       2 GLC5        0.0000 
     32 CA         -9.9600    2.8380   19.5490 C.3       6 GLL5        0.0000 
     33 CA         -8.6940   -0.4610   16.9500 C.3       4 GLP5        0.0000 
     34 OD1       -12.1675    3.2760   22.3990 O.co2     1 ASC3        0.0000 
     35 OD1       -11.4990    3.2530   21.3790 O.co2     5 ASL3        0.0000 
     36 OD1       -12.8360    3.2990   23.4190 O.co2     3 ASP3        0.0000 
     37 OD1       -11.4155    3.5095   23.1740 O.co2     1 ASC3        0.0000 
     38 OD1       -11.3320    3.7660   24.9690 O.co2     3 ASP3        0.0000 
     39 CA         -6.0738    0.8728   16.5600 C.3       2 GLC5        0.0000 
     40 CA         -5.2210    2.6290   17.3980 C.3       6 GLL5        0.0000 
     41 CA         -7.4160   -0.5610   16.1030 C.3       4 GLP5        0.0000 
     42 CA         -3.8422    2.7717   18.6850 C.3       2 GLC5        0.0000 
     43 CA         -2.9530    3.2370   20.3530 C.3       4 GLP5        0.0000 
     44 CA         -3.8298    4.1718   17.0095 C.3       2 GLC5        0.0000 
     45 CA         -2.9280    6.0370   17.0020 C.3       4 GLP5        0.0000 
     46 CA         -5.7575   -0.0928   16.8313 C.3       2 GLC5        0.0000 
     47 CA         -3.5260    1.8062   18.9563 C.3       2 GLC5        0.0000 
     48 CA         -4.3880    0.0570   18.1230 C.3       6 GLL5        0.0000 
     49 CA         -6.4955    0.3875   17.4040 C.3       2 GLC5        0.0000 
     50 CA         -5.3730    0.6870   18.8890 C.3       6 GLL5        0.0000 
     51 CA         -4.2640    2.2865   19.5290 C.3       2 GLC5        0.0000 
     52 CA         -6.1562   -4.6880   19.2095 C.3       2 GLC5        0.0000 
     53 CA         -7.7590   -4.9550   18.1570 C.3       4 GLP5        0.0000 
     54 CA         -4.6318   -4.3830   22.9337 C.3       2 GLC5        0.0000 
     55 CA         -4.6240   -5.1580   24.7110 C.3       4 GLP5        0.0000 
     56 CA         -3.9185   -4.9547   17.2948 C.3       2 GLC5        0.0000 
     57 CA         -3.5610   -5.8540   15.4600 C.3       4 GLP5        0.0000 
     58 CA         -5.5877   -3.5690   17.9265 C.3       2 GLC5        0.0000 
     59 CA         -4.1200   -3.5440   18.6730 C.3       6 GLL5        0.0000 
     60 CA         -7.1130   -4.2580   16.9600 C.3       4 GLP5        0.0000 
     61 CA         -3.2320   -1.2695   21.4324 C.3       2 GLC5        0.0000 
     62 CA         -4.0050   -2.2160   19.1130 C.3       6 GLL5        0.0000 
     63 CA         -2.0840   -0.0360   22.2850 C.3       4 GLP5        0.0000 
     64 CA         -1.3298    0.8638   13.5398 C.3       2 GLC5        0.0000 
     65 CA         -0.1070    1.8480   12.6940 C.3       4 GLP5        0.0000 
@<TRIPOS>BOND
@<TRIPOS>SUBSTRUCTURE
     1 ASC3       34 GROUP        1 X    ASC  0     ROOT ASC X 3
     2 GLC5        1 GROUP        1 X    GLC  0     **** GLC X 6
     3 ASP3       36 GROUP        1 Y    ASP  0     ROOT ASP Y 10
     4 GLP5        3 GROUP        1 Y    GLP  0     **** GLP Y 13
     5 ASL3       35 GROUP        1 Z    ASL  0     ROOT ASL Z 17
     6 GLL5        2 GROUP        1 Z    GLL  0     **** GLL Z 20
@<TRIPOS>SET

