#    Name: 3nc9_TR3_1_ligand
#    Modification time : Tue Mar 25 01:15:10 2014

@<TRIPOS>MOLECULE
3nc9_TR3_1_ligand
   47    50     1     0     0
SMALL
NO_CHARGES


@<TRIPOS>ATOM
      1 C1         -5.2210    2.6290   17.3980 C.ar      1 TR3299      0.0000 
      2 C2         -4.2420    1.9840   16.6360 C.ar      1 TR3299      0.0000 
      3 C3         -3.8100    0.6940   16.9960 C.ar      1 TR3299      0.0000 
      4 C4         -4.3880    0.0570   18.1230 C.ar      1 TR3299      0.0000 
      5 C5         -5.3730    0.6870   18.8890 C.ar      1 TR3299      0.0000 
      6 C6         -5.7770    1.9850   18.5210 C.ar      1 TR3299      0.0000 
      7 N10        -2.8510   -1.3500   17.1980 N.2       1 TR3299      0.0000 
      8 N11        -3.7550   -1.1810   18.1900 N.pl3     1 TR3299      0.0000 
      9 C12        -2.8800   -0.2490   16.5010 C.2       1 TR3299      0.0000 
     10 C13        -4.6750   -4.2750   20.9380 C.ar      1 TR3299      0.0000 
     11 C14        -4.4320   -4.5670   19.5860 C.ar      1 TR3299      0.0000 
     12 C15        -4.1200   -3.5440   18.6730 C.ar      1 TR3299      0.0000 
     13 C16        -4.0050   -2.2160   19.1130 C.ar      1 TR3299      0.0000 
     14 C17        -4.3070   -1.9140   20.4560 C.ar      1 TR3299      0.0000 
     15 C18        -4.6040   -2.9410   21.3750 C.ar      1 TR3299      0.0000 
     16 S24        -1.9360   -0.0290   15.0420 S.3       1 TR3299      0.0000 
     17 C25        -3.1690   -0.2120   13.7290 C.3       1 TR3299      0.0000 
     18 C26        -7.6100    2.1360   20.1250 C.2       1 TR3299      0.0000 
     19 N27        -6.8200    2.6540   19.1810 N.am      1 TR3299      0.0000 
     20 O28        -7.5590    0.9770   20.5700 O.2       1 TR3299      0.0000 
     21 C30       -10.4130    3.5850   22.3130 C.3       1 TR3299      0.0000 
     22 C31        -9.1560    2.7730   21.9850 C.3       1 TR3299      0.0000 
     23 C32        -8.7680    3.0430   20.5160 C.3       1 TR3299      0.0000 
     24 C33        -9.9600    2.8380   19.5490 C.3       1 TR3299      0.0000 
     25 C34       -11.1700    3.6640   20.0110 C.3       1 TR3299      0.0000 
     26 N35       -11.4990    3.2530   21.3790 N.4       1 TR3299      0.0000 
     27 H          -5.5370    3.5692   17.1438 H         1 TR3299      0.0000 
     28 H          -3.8378    2.4459   15.8170 H         1 TR3299      0.0000 
     29 H          -5.7884    0.2261   19.6888 H         1 TR3299      0.0000 
     30 H          -4.8999   -5.0201   21.5940 H         1 TR3299      0.0000 
     31 H          -4.4827   -5.5413   19.2586 H         1 TR3299      0.0000 
     32 H          -3.9764   -3.7698   17.6837 H         1 TR3299      0.0000 
     33 H          -4.3108   -0.9360   20.7686 H         1 TR3299      0.0000 
     34 H          -4.7673   -2.7136   22.3582 H         1 TR3299      0.0000 
     35 H          -6.9761    3.6765   18.8800 H         1 TR3299      0.0000 
     36 H         -10.1606    4.6473   22.2516 H         1 TR3299      0.0000 
     37 H         -10.7061    3.3621   23.3427 H         1 TR3299      0.0000 
     38 H          -9.3610    1.7232   22.1093 H         1 TR3299      0.0000 
     39 H          -8.3482    3.0821   22.6266 H         1 TR3299      0.0000 
     40 H          -8.4373    4.0723   20.4361 H         1 TR3299      0.0000 
     41 H         -10.2248    1.7875   19.5347 H         1 TR3299      0.0000 
     42 H          -9.6655    3.1544   18.5555 H         1 TR3299      0.0000 
     43 H         -11.9934    3.4695   19.3352 H         1 TR3299      0.0000 
     44 H         -10.9021    4.7124   19.9711 H         1 TR3299      0.0000 
     45 H          -2.7633   -0.1059   12.8212 H         1 TR3299      0.0000 
     46 H          -3.6051   -1.1116   13.7518 H         1 TR3299      0.0000 
     47 H          -3.8974    0.4689   13.8060 H         1 TR3299      0.0000 
@<TRIPOS>BOND
     1    2    1 ar   
     2    6    1 ar   
     3   27    1 1    
     4    3    2 ar   
     5   28    2 1    
     6    4    3 ar   
     7    9    3 1    
     8    5    4 ar   
     9    8    4 1    
    10    6    5 ar   
    11   29    5 1    
    12   19    6 1    
    13    8    7 1    
    14    9    7 2    
    15   13    8 1    
    16   16    9 1    
    17   11   10 ar   
    18   15   10 ar   
    19   30   10 1    
    20   12   11 ar   
    21   31   11 1    
    22   13   12 ar   
    23   32   12 1    
    24   14   13 ar   
    25   15   14 ar   
    26   33   14 1    
    27   34   15 1    
    28   17   16 1    
    29   45   17 1    
    30   46   17 1    
    31   47   17 1    
    32   19   18 am   
    33   20   18 2    
    34   23   18 1    
    35   35   19 1    
    36   22   21 1    
    37   26   21 1    
    38   36   21 1    
    39   37   21 1    
    40   23   22 1    
    41   38   22 1    
    42   39   22 1    
    43   24   23 1    
    44   40   23 1    
    45   25   24 1    
    46   41   24 1    
    47   42   24 1    
    48   26   25 1    
    49   43   25 1    
    50   44   25 1    
@<TRIPOS>SUBSTRUCTURE
     1 TR3299      1 GROUP   
@<TRIPOS>SET

