#    Name: 1tuv_VK3_1_INTS_M
#    Modification time : Tue Mar 25 05:40:53 2014

@<TRIPOS>MOLECULE
1tuv_VK3_1_INTS_M
   13     0     3     0     0
SMALL
NO_CHARGES


@<TRIPOS>ATOM
      1 CA        -10.7375    5.6590  -19.9515 C.3       1 GLC5        0.0000 
      2 CA         -9.4190    4.7540  -18.3950 C.3       3 GLL5        0.0000 
      3 CA        -12.0560    6.5640  -21.5080 C.3       2 GLP5        0.0000 
      4 CA         -9.7645    2.1855  -18.5695 C.3       1 GLC5        0.0000 
      5 CA        -10.8290    2.8930  -20.0780 C.3       3 GLL5        0.0000 
      6 CA         -8.3670    1.1540  -17.5710 C.3       2 GLP5        0.0000 
      7 CA        -10.1913    3.2000  -22.2462 C.3       1 GLC5        0.0000 
      8 CA         -9.1880    3.9960  -23.9800 C.3       2 GLP5        0.0000 
      9 CA         -8.1795    2.6695  -18.5535 C.3       1 GLC5        0.0000 
     10 CA         -8.6680    4.0570  -19.4690 C.3       3 GLL5        0.0000 
     11 CA         -8.7208    3.1682  -17.7730 C.3       1 GLC5        0.0000 
     12 CA        -12.2005    3.7930  -20.9252 C.3       1 GLC5        0.0000 
     13 CA        -13.0400    5.0200  -21.5930 C.3       2 GLP5        0.0000 
@<TRIPOS>BOND
@<TRIPOS>SUBSTRUCTURE
     1 GLC5        1 GROUP        1 X    GLC  0     ROOT GLC X 6
     2 GLP5        3 GROUP        1 Y    GLP  0     ROOT GLP Y 13
     3 GLL5        2 GROUP        1 Z    GLL  0     ROOT GLL Z 20
@<TRIPOS>SET

