#    Name: 1tuv_VK3_1_ligand
#    Modification time : Tue Mar 25 05:40:53 2014

@<TRIPOS>MOLECULE
1tuv_VK3_1_ligand
   21    22     1     0     0
SMALL
NO_CHARGES


@<TRIPOS>ATOM
      1 C1K       -10.8610    4.4610  -18.2370 C.2       1 VK34558     0.0000 
      2 O1K       -11.5380    5.0030  -17.3660 O.2       1 VK34558     0.0000 
      3 C2K       -11.4950    3.5410  -19.0580 C.2       1 VK34558     0.0000 
      4 C3K       -10.8290    2.8930  -20.0780 C.2       1 VK34558     0.0000 
      5 C4K        -9.3960    3.1200  -20.3380 C.2       1 VK34558     0.0000 
      6 O4K        -8.8160    2.4840  -21.2430 O.2       1 VK34558     0.0000 
      7 C5K        -8.6680    4.0570  -19.4690 C.ar      1 VK34558     0.0000 
      8 C6K        -7.3160    4.3130  -19.6030 C.ar      1 VK34558     0.0000 
      9 C7K        -6.7110    5.2140  -18.7200 C.ar      1 VK34558     0.0000 
     10 C8K        -7.4250    5.8100  -17.7300 C.ar      1 VK34558     0.0000 
     11 C9K        -8.7300    5.6110  -17.5550 C.ar      1 VK34558     0.0000 
     12 C10        -9.4190    4.7540  -18.3950 C.ar      1 VK34558     0.0000 
     13 C11       -11.5600    1.9150  -20.9470 C.3       1 VK34558     0.0000 
     14 H         -12.5059    3.3345  -18.8974 H         1 VK34558     0.0000 
     15 H          -6.7637    3.8578  -20.3290 H         1 VK34558     0.0000 
     16 H          -5.6988    5.4186  -18.8381 H         1 VK34558     0.0000 
     17 H          -6.9072    6.4644  -17.0694 H         1 VK34558     0.0000 
     18 H          -9.2528    6.0887  -16.7936 H         1 VK34558     0.0000 
     19 H         -10.9624    1.5183  -21.6437 H         1 VK34558     0.0000 
     20 H         -11.9360    1.1554  -20.4163 H         1 VK34558     0.0000 
     21 H         -12.3251    2.3442  -21.4270 H         1 VK34558     0.0000 
@<TRIPOS>BOND
     1    2    1 2    
     2    3    1 1    
     3   12    1 1    
     4    4    3 2    
     5   14    3 1    
     6    5    4 1    
     7   13    4 1    
     8    6    5 2    
     9    7    5 1    
    10    8    7 ar   
    11   12    7 ar   
    12    9    8 ar   
    13   15    8 1    
    14   10    9 ar   
    15   16    9 1    
    16   11   10 ar   
    17   17   10 1    
    18   12   11 ar   
    19   18   11 1    
    20   19   13 1    
    21   20   13 1    
    22   21   13 1    
@<TRIPOS>SUBSTRUCTURE
     1 VK34558     1 GROUP   
@<TRIPOS>SET

