#    Name: 2e9p_77A_1_INTS_M
#    Modification time : Tue Mar 25 10:46:33 2014

@<TRIPOS>MOLECULE
2e9p_77A_1_INTS_M
   72     0    12     0     0
SMALL
NO_CHARGES


@<TRIPOS>ATOM
      1 CA         -1.9075   10.2005  -17.5035 C.3       4 GLC5        0.0000 
      2 CA         -1.9860    9.3470  -19.5080 C.3      12 GLL5        0.0000 
      3 CA         -1.8290   11.0540  -15.4990 C.3       8 GLP5        0.0000 
      4 CA         -2.0580    6.2510  -20.3805 C.3       4 GLC5        0.0000 
      5 CA         -2.8040    5.9860  -18.4530 C.3      12 GLL5        0.0000 
      6 CA         -1.3120    6.5160  -22.3080 C.3       8 GLP5        0.0000 
      7 CA         -1.9725    4.4385  -19.0225 C.3       4 GLC5        0.0000 
      8 CA         -1.1410    2.8910  -19.5920 C.3       8 GLP5        0.0000 
      9 CA         -4.1370    5.5215  -19.5125 C.3       4 GLC5        0.0000 
     10 CA         -5.4700    5.0570  -20.5720 C.3       8 GLP5        0.0000 
     11 CA          0.6120    9.2830  -22.6265 C.3       4 GLC5        0.0000 
     12 CA          1.4800   10.6600  -21.1810 C.3      12 GLL5        0.0000 
     13 CA         -0.2560    7.9060  -24.0720 C.3       8 GLP5        0.0000 
     14 CA          1.3475   12.5795  -21.8355 C.3       4 GLC5        0.0000 
     15 CA          1.2150   14.4990  -22.4900 C.3       8 GLP5        0.0000 
     16 CA          1.7170   11.2940  -19.3345 C.3       4 GLC5        0.0000 
     17 CA          1.9540   11.9280  -17.4880 C.3       8 GLP5        0.0000 
     18 N          -3.4225   12.7935  -21.1650 N.am      2 SEC2        0.0000 
     19 N          -3.7820   11.3840  -20.9520 N.am     10 SEL2        0.0000 
     20 N          -3.0630   14.2030  -21.3780 N.am      6 SEP2        0.0000 
     21 O          -6.1150   12.0575  -20.2480 O.2       1 ALC1        0.0000 
     22 O          -5.4600   10.8180  -19.5750 O.2       9 ALL1        0.0000 
     23 O          -6.7700   13.2970  -20.9210 O.2       5 ALP1        0.0000 
     24 CA         -6.4200    6.5365  -18.2450 C.3       4 GLC5        0.0000 
     25 CA         -6.5990    8.1630  -17.2180 C.3      12 GLL5        0.0000 
     26 CA         -6.2410    4.9100  -19.2720 C.3       8 GLP5        0.0000 
     27 CA         -7.4055   10.2370  -15.1320 C.3       4 GLC5        0.0000 
     28 CA         -7.6630    8.8830  -16.5110 C.3      12 GLL5        0.0000 
     29 CA         -7.1480   11.5910  -13.7530 C.3       8 GLP5        0.0000 
     30 CA         -8.1395   12.4910  -17.5870 C.3       4 GLC5        0.0000 
     31 CA         -7.2470   10.8800  -17.8480 C.3      12 GLL5        0.0000 
     32 CA         -9.0320   14.1020  -17.3260 C.3       8 GLP5        0.0000 
     33 CA         -7.1975   11.2355  -15.8005 C.3       4 GLC5        0.0000 
     34 OD1        -2.5440    6.3280  -14.1620 O.co2     3 ASC3        0.0000 
     35 OD1        -4.2260    6.1630  -14.1190 O.co2    11 ASL3        0.0000 
     36 OD1        -0.8620    6.4930  -14.2050 O.co2     7 ASP3        0.0000 
     37 OD1        -5.5295    7.2265  -13.3915 O.co2     3 ASC3        0.0000 
     38 OD1        -6.8330    8.2900  -12.6640 O.co2     7 ASP3        0.0000 
     39 OD1        -6.0270    6.2410  -13.3585 O.co2     3 ASC3        0.0000 
     40 OD1        -7.8280    6.3190  -12.5980 O.co2     7 ASP3        0.0000 
     41 O          -2.5440    6.3280  -14.1620 O.2       1 ALC1        0.0000 
     42 O          -4.2260    6.1630  -14.1190 O.2       9 ALL1        0.0000 
     43 O          -0.8620    6.4930  -14.2050 O.2       5 ALP1        0.0000 
     44 CA         -7.0025    3.6995  -16.2410 C.3       4 GLC5        0.0000 
     45 CA         -7.5300    5.2820  -15.5240 C.3      12 GLL5        0.0000 
     46 CA         -6.4750    2.1170  -16.9580 C.3       8 GLP5        0.0000 
     47 CA         -9.2445    4.4020  -15.9105 C.3       4 GLC5        0.0000 
     48 CA        -10.9590    3.5220  -16.2970 C.3       8 GLP5        0.0000 
     49 CA         -3.0185    9.3460  -14.7705 C.3       4 GLC5        0.0000 
     50 CA         -4.2080    7.6380  -14.0420 C.3      12 GLL5        0.0000 
     51 CA         -2.0332    9.0920  -21.5655 C.3       4 GLC5        0.0000 
     52 CA         -2.5700    8.4370  -23.2700 C.3       8 GLP5        0.0000 
     53 CA         -0.3838    7.7840  -21.1758 C.3       4 GLC5        0.0000 
     54 CA          0.3390    9.6770  -20.3270 C.3      12 GLL5        0.0000 
     55 CA          1.0810   10.5488  -18.7516 C.3       4 GLC5        0.0000 
     56 CA          0.7500    8.4270  -19.7600 C.3      12 GLL5        0.0000 
     57 CA         -1.1120    7.1863  -20.6490 C.3       4 GLC5        0.0000 
     58 CA         -0.2170    7.6310  -19.0580 C.3      12 GLL5        0.0000 
     59 CA         -6.8665   10.3453  -20.2215 C.3       4 GLC5        0.0000 
     60 CA         -6.1870   10.1910  -18.5640 C.3      12 GLL5        0.0000 
     61 CA         -7.0160   10.1550  -22.2370 C.3       8 GLP5        0.0000 
     62 CA         -8.6405    9.9132  -18.4095 C.3       4 GLC5        0.0000 
     63 CA        -10.5640    9.2910  -18.6130 C.3       8 GLP5        0.0000 
     64 CA         -5.4250   11.0992  -17.2450 C.3       4 GLC5        0.0000 
     65 CA         -4.1330   11.6630  -16.2840 C.3       8 GLP5        0.0000 
     66 CA         -8.8475    8.9070  -17.7387 C.3       4 GLC5        0.0000 
     67 CA         -5.6320   10.0930  -16.5742 C.3       4 GLC5        0.0000 
     68 CA         -5.6517    3.9835  -15.6575 C.3       4 GLC5        0.0000 
     69 CA         -6.3830    6.3060  -15.5820 C.3      12 GLL5        0.0000 
     70 CA         -5.6060    1.9910  -15.8880 C.3       8 GLP5        0.0000 
     71 CA         -6.4274    5.2695  -17.3738 C.3       4 GLC5        0.0000 
     72 CA         -5.0120    5.6460  -15.2720 C.3      12 GLL5        0.0000 
@<TRIPOS>BOND
@<TRIPOS>SUBSTRUCTURE
     1 ALC1       21 GROUP        1 X    ALC  0     ROOT ALC X 1
     2 SEC2       18 GROUP        1 X    SEC  0     **** SEC X 2
     3 ASC3       34 GROUP        1 X    ASC  0     **** ASC X 3
     4 GLC5        1 GROUP        1 X    GLC  0     **** GLC X 6
     5 ALP1       23 GROUP        1 Y    ALP  0     ROOT ALP Y 8
     6 SEP2       20 GROUP        1 Y    SEP  0     **** SEP Y 9
     7 ASP3       36 GROUP        1 Y    ASP  0     **** ASP Y 10
     8 GLP5        3 GROUP        1 Y    GLP  0     **** GLP Y 13
     9 ALL1       22 GROUP        1 Z    ALL  0     ROOT ALL Z 15
    10 SEL2       19 GROUP        1 Z    SEL  0     **** SEL Z 16
    11 ASL3       35 GROUP        1 Z    ASL  0     **** ASL Z 17
    12 GLL5        2 GROUP        1 Z    GLL  0     **** GLL Z 20
@<TRIPOS>SET

