#    Name: 2e9p_77A_1_ligand
#    Modification time : Tue Mar 25 10:46:33 2014

@<TRIPOS>MOLECULE
2e9p_77A_1_ligand
   49    50     1     0     0
SMALL
NO_CHARGES


@<TRIPOS>ATOM
      1 N1         -3.3000    9.7560  -19.3710 N.am      1 77A1001     0.0000 
      2 C2         -1.9860    9.3470  -19.5080 C.ar      1 77A1001     0.0000 
      3 C3         -1.0070   10.1470  -20.2140 C.ar      1 77A1001     0.0000 
      4 C4          0.3390    9.6770  -20.3270 C.ar      1 77A1001     0.0000 
      5 C5          0.7500    8.4270  -19.7600 C.ar      1 77A1001     0.0000 
      6 C6         -0.2170    7.6310  -19.0580 C.ar      1 77A1001     0.0000 
      7 C7         -1.6070    8.0820  -18.9220 C.ar      1 77A1001     0.0000 
      8 O8         -2.6530    7.3920  -18.2520 O.3       1 77A1001     0.0000 
      9 C9         -2.8040    5.9860  -18.4530 C.3       1 77A1001     0.0000 
     10 CL10        1.4800   10.6600  -21.1810 Cl        1 77A1001     0.0000 
     11 C11        -4.1610   10.6840  -20.0090 C.2       1 77A1001     0.0000 
     12 O12        -3.7820   11.3840  -20.9520 O.2       1 77A1001     0.0000 
     13 N13        -5.4600   10.8180  -19.5750 N.am      1 77A1001     0.0000 
     14 C14        -6.1870   10.1910  -18.5640 C.ar      1 77A1001     0.0000 
     15 N15        -5.8760    8.8400  -18.2400 N.ar      1 77A1001     0.0000 
     16 C16        -6.5990    8.1630  -17.2180 C.ar      1 77A1001     0.0000 
     17 C17        -7.6630    8.8830  -16.5110 C.ar      1 77A1001     0.0000 
     18 N18        -7.9650   10.2180  -16.8350 N.ar      1 77A1001     0.0000 
     19 C19        -7.2470   10.8800  -17.8480 C.ar      1 77A1001     0.0000 
     20 O20        -6.2880    6.8130  -16.9130 O.3       1 77A1001     0.0000 
     21 C21        -6.3830    6.3060  -15.5820 C.3       1 77A1001     0.0000 
     22 C22        -5.0120    5.6460  -15.2720 C.3       1 77A1001     0.0000 
     23 N23        -4.2260    6.1630  -14.1190 N.4       1 77A1001     0.0000 
     24 C24        -4.7050    5.6130  -12.8470 C.3       1 77A1001     0.0000 
     25 C25        -7.5300    5.2820  -15.5240 C.3       1 77A1001     0.0000 
     26 C26        -4.2080    7.6380  -14.0420 C.3       1 77A1001     0.0000 
     27 H          -3.8428    9.2074  -18.5232 H         1 77A1001     0.0000 
     28 H          -1.2805   11.0289  -20.6207 H         1 77A1001     0.0000 
     29 H           1.7007    8.1109  -19.8516 H         1 77A1001     0.0000 
     30 H           0.0503    6.7436  -18.6460 H         1 77A1001     0.0000 
     31 H          -6.0555   11.5796  -20.1421 H         1 77A1001     0.0000 
     32 H          -8.1737    8.3884  -15.7817 H         1 77A1001     0.0000 
     33 H          -7.4556   11.8445  -18.0949 H         1 77A1001     0.0000 
     34 H          -6.5544    7.0765  -14.8766 H         1 77A1001     0.0000 
     35 H          -4.3945    5.7093  -16.2088 H         1 77A1001     0.0000 
     36 H          -5.1965    4.5454  -15.1402 H         1 77A1001     0.0000 
     37 H          -3.1721    5.8240  -14.2506 H         1 77A1001     0.0000 
     38 H          -1.9890    5.4806  -18.1694 H         1 77A1001     0.0000 
     39 H          -3.5738    5.6169  -17.9322 H         1 77A1001     0.0000 
     40 H          -2.9670    5.7636  -19.4142 H         1 77A1001     0.0000 
     41 H          -4.6348    4.6157  -12.8237 H         1 77A1001     0.0000 
     42 H          -4.1804    5.9620  -12.0705 H         1 77A1001     0.0000 
     43 H          -5.6637    5.8433  -12.6803 H         1 77A1001     0.0000 
     44 H          -7.3760    4.5161  -16.1483 H         1 77A1001     0.0000 
     45 H          -7.6375    4.8962  -14.6077 H         1 77A1001     0.0000 
     46 H          -8.4071    5.6922  -15.7741 H         1 77A1001     0.0000 
     47 H          -3.6716    7.9627  -13.2630 H         1 77A1001     0.0000 
     48 H          -3.8104    8.0479  -14.8629 H         1 77A1001     0.0000 
     49 H          -5.1284    8.0159  -13.9420 H         1 77A1001     0.0000 
@<TRIPOS>BOND
     1    2    1 1    
     2   11    1 am   
     3   27    1 1    
     4    3    2 ar   
     5    7    2 ar   
     6    4    3 ar   
     7   28    3 1    
     8    5    4 ar   
     9   10    4 1    
    10    6    5 ar   
    11   29    5 1    
    12    7    6 ar   
    13   30    6 1    
    14    8    7 1    
    15    9    8 1    
    16   38    9 1    
    17   39    9 1    
    18   40    9 1    
    19   12   11 2    
    20   13   11 am   
    21   14   13 1    
    22   31   13 1    
    23   15   14 ar   
    24   19   14 ar   
    25   16   15 ar   
    26   17   16 ar   
    27   20   16 1    
    28   18   17 ar   
    29   32   17 1    
    30   19   18 ar   
    31   33   19 1    
    32   21   20 1    
    33   22   21 1    
    34   25   21 1    
    35   34   21 1    
    36   23   22 1    
    37   35   22 1    
    38   36   22 1    
    39   24   23 1    
    40   26   23 1    
    41   37   23 1    
    42   41   24 1    
    43   42   24 1    
    44   43   24 1    
    45   44   25 1    
    46   45   25 1    
    47   46   25 1    
    48   47   26 1    
    49   48   26 1    
    50   49   26 1    
@<TRIPOS>SUBSTRUCTURE
     1 77A1001     1 GROUP   
@<TRIPOS>SET

