#    Name: 3g8o_30X_2_INTS_M
#    Modification time : Tue Mar 25 07:23:02 2014

@<TRIPOS>MOLECULE
3g8o_30X_2_INTS_M
   73     0     3     0     0
SMALL
NO_CHARGES


@<TRIPOS>ATOM
      1 CA         11.7140   18.1265    3.8220 C.3       1 GLC5        0.0000 
      2 CA         12.6210   16.4370    4.6520 C.3       3 GLL5        0.0000 
      3 CA         10.8070   19.8160    2.9920 C.3       2 GLP5        0.0000 
      4 CA         13.3080   18.2005    5.4405 C.3       1 GLC5        0.0000 
      5 CA         13.9950   19.9640    6.2290 C.3       2 GLP5        0.0000 
      6 CA         12.3965   12.6750    8.2110 C.3       1 GLC5        0.0000 
      7 CA         12.2100   14.7720    8.0790 C.3       3 GLL5        0.0000 
      8 CA         12.5830   10.5780    8.3430 C.3       2 GLP5        0.0000 
      9 CA          7.9060   17.1780   13.2440 C.3       1 GLC5        0.0000 
     10 CA          7.3410   15.1580   12.7340 C.3       3 GLL5        0.0000 
     11 CA          8.4710   19.1980   13.7540 C.3       2 GLP5        0.0000 
     12 CA          8.7255   15.4220   14.2210 C.3       1 GLC5        0.0000 
     13 CA         10.1100   15.6860   15.7080 C.3       2 GLP5        0.0000 
     14 CA          6.2095   15.0300   14.0620 C.3       1 GLC5        0.0000 
     15 CA          5.0780   14.9020   15.3900 C.3       2 GLP5        0.0000 
     16 CA          5.6750   14.0710   12.6005 C.3       1 GLC5        0.0000 
     17 CA          4.0090   12.9840   12.4670 C.3       2 GLP5        0.0000 
     18 CA          8.2950   17.8400   12.2400 C.3       1 GLC5        0.0000 
     19 CA          8.1190   16.4820   10.7260 C.3       3 GLL5        0.0000 
     20 CA          8.4425   17.7920    9.5470 C.3       1 GLC5        0.0000 
     21 CA          8.7660   19.1020    8.3680 C.3       2 GLP5        0.0000 
     22 CA          8.5720   10.8175    8.0055 C.3       1 GLC5        0.0000 
     23 CA          8.7990   12.5110    8.7390 C.3       3 GLL5        0.0000 
     24 CA          8.3450    9.1240    7.2720 C.3       2 GLP5        0.0000 
     25 CA         10.0590   11.1945    9.0675 C.3       1 GLC5        0.0000 
     26 CA         11.3190    9.8780    9.3960 C.3       2 GLP5        0.0000 
     27 CA          8.2580   11.0700   10.0455 C.3       1 GLC5        0.0000 
     28 CA          7.7170    9.6290   11.3520 C.3       2 GLP5        0.0000 
     29 CA         11.1720   11.6770    9.8270 C.3       1 GLC5        0.0000 
     30 CA         11.0250   13.4760   10.2580 C.3       3 GLL5        0.0000 
     31 CA         11.7655   11.5220   10.8215 C.3       1 GLC5        0.0000 
     32 CA         12.2120   13.1660   12.2470 C.3       3 GLL5        0.0000 
     33 CA         13.3790   11.8070   12.6420 C.3       1 GLC5        0.0000 
     34 CA         14.5460   10.4480   13.0370 C.3       2 GLP5        0.0000 
     35 CA         10.6480   11.5930   12.3525 C.3       1 GLC5        0.0000 
     36 CA          9.0840   10.0200   12.4580 C.3       2 GLP5        0.0000 
     37 CA         14.3085   16.0710   10.6820 C.3       1 GLC5        0.0000 
     38 CA         12.5470   15.0120   11.1610 C.3       3 GLL5        0.0000 
     39 CA         16.0700   17.1300   10.2030 C.3       2 GLP5        0.0000 
     40 CA          9.0740   15.4860    4.6920 C.3       1 GLC5        0.0000 
     41 CA         10.6450   16.0730    6.0900 C.3       3 GLL5        0.0000 
     42 CA          7.5030   14.8990    3.2940 C.3       2 GLP5        0.0000 
     43 CA         16.3625   13.4345    7.0950 C.3       1 GLC5        0.0000 
     44 CA         14.8810   14.4340    7.8230 C.3       3 GLL5        0.0000 
     45 CA         17.8440   12.4350    6.3670 C.3       2 GLP5        0.0000 
     46 CA         15.6065   13.2155    8.8580 C.3       1 GLC5        0.0000 
     47 CA         16.3320   11.9970    9.8930 C.3       2 GLP5        0.0000 
     48 CA         14.7175   17.8975    7.0495 C.3       1 GLC5        0.0000 
     49 CA         14.9790   16.1980    6.6130 C.3       3 GLL5        0.0000 
     50 CA         14.4560   19.5970    7.4860 C.3       2 GLP5        0.0000 
     51 CA          9.5497   17.4695    7.5267 C.3       1 GLC5        0.0000 
     52 CA         13.9902   13.4910    4.8338 C.3       1 GLC5        0.0000 
     53 CA         14.6310   14.2640    5.6970 C.3       3 GLL5        0.0000 
     54 CA         13.4770   12.3350    3.4450 C.3       2 GLP5        0.0000 
     55 CA         16.1863   16.7000    6.5598 C.3       1 GLC5        0.0000 
     56 CA         14.3760   15.0300    6.7480 C.3       3 GLL5        0.0000 
     57 CA         17.6950   17.7860    6.4390 C.3       2 GLP5        0.0000 
     58 CA          7.2272   12.3822    8.4047 C.3       1 GLC5        0.0000 
     59 CA          8.7640   13.9420    9.3140 C.3       3 GLL5        0.0000 
     60 CA          5.6730   11.5380    7.7830 C.3       2 GLP5        0.0000 
     61 CA         14.0143   13.7502   11.7468 C.3       1 GLC5        0.0000 
     62 CA         15.9350   12.9370   12.1560 C.3       2 GLP5        0.0000 
     63 CA         11.1655   14.1100   13.7774 C.3       1 GLC5        0.0000 
     64 CA         10.6390   14.4290   15.4960 C.3       2 GLP5        0.0000 
     65 CA         12.8413   15.3087   12.9104 C.3       1 GLC5        0.0000 
     66 CA         11.6400   14.1150   11.5140 C.3       3 GLL5        0.0000 
     67 CA         13.5630   16.2160   14.2110 C.3       2 GLP5        0.0000 
     68 CA         11.1374   14.5065    4.6590 C.3       1 GLC5        0.0000 
     69 CA         12.0440   15.9170    5.8880 C.3       3 GLL5        0.0000 
     70 CA         10.7860   12.8880    3.6380 C.3       2 GLP5        0.0000 
     71 CA         15.4369   16.2975    8.5761 C.3       1 GLC5        0.0000 
     72 CA         16.0781   14.0415    5.6064 C.3       1 GLC5        0.0000 
     73 CA         17.5020   13.1440    5.0240 C.3       2 GLP5        0.0000 
@<TRIPOS>BOND
@<TRIPOS>SUBSTRUCTURE
     1 GLC5        1 GROUP        1 X    GLC  0     ROOT GLC X 6
     2 GLP5        3 GROUP        1 Y    GLP  0     ROOT GLP Y 13
     3 GLL5        2 GROUP        1 Z    GLL  0     ROOT GLL Z 20
@<TRIPOS>SET

