#    Name: 3g8o_30X_2_ligand
#    Modification time : Tue Mar 25 07:23:02 2014

@<TRIPOS>MOLECULE
3g8o_30X_2_ligand
   40    40     1     0     0
SMALL
NO_CHARGES


@<TRIPOS>ATOM
      1 C10        10.0220   15.6010    7.2810 C.ar      1 30X2        0.0000 
      2 C13        12.6210   16.4370    4.6520 C.1       1 30X2        0.0000 
      3 C15        12.8470   15.2360    6.8960 C.ar      1 30X2        0.0000 
      4 C16        12.2100   14.7720    8.0790 C.ar      1 30X2        0.0000 
      5 C17        14.3760   15.0300    6.7480 C.3       1 30X2        0.0000 
      6 C24         7.3410   15.1580   12.7340 C.3       1 30X2        0.0000 
      7 C25         8.1190   16.4820   10.7260 C.3       1 30X2        0.0000 
      8 C1          8.7990   12.5110    8.7390 C.3       1 30X2        0.0000 
      9 C2          8.7640   13.9420    9.3140 C.3       1 30X2        0.0000 
     10 N3         10.1580   14.4650    9.5420 N.pl3     1 30X2        0.0000 
     11 C4         11.0250   13.4760   10.2580 C.3       1 30X2        0.0000 
     12 C5         11.6400   14.1150   11.5140 C.3       1 30X2        0.0000 
     13 F6         10.7040   14.7170   12.2270 F         1 30X2        0.0000 
     14 F7         12.2120   13.1660   12.2470 F         1 30X2        0.0000 
     15 F8         12.5470   15.0120   11.1610 F         1 30X2        0.0000 
     16 C9         10.7930   14.9350    8.2900 C.ar      1 30X2        0.0000 
     17 C11        10.6450   16.0730    6.0900 C.ar      1 30X2        0.0000 
     18 C12        12.0440   15.9170    5.8880 C.ar      1 30X2        0.0000 
     19 N14        13.0790   16.8660    3.6830 N.1       1 30X2        0.0000 
     20 F18        14.8810   14.4340    7.8230 F         1 30X2        0.0000 
     21 F19        14.9790   16.1980    6.6130 F         1 30X2        0.0000 
     22 F20        14.6310   14.2640    5.6970 F         1 30X2        0.0000 
     23 C21         8.0130   13.9850   10.6660 C.2       1 30X2        0.0000 
     24 O22         7.5660   12.9370   11.1410 O.2       1 30X2        0.0000 
     25 N23         7.8340   15.1680   11.3510 N.am      1 30X2        0.0000 
     26 H           9.0219   15.7356    7.4207 H         1 30X2        0.0000 
     27 H          12.7656   14.3077    8.8071 H         1 30X2        0.0000 
     28 H           8.2502   14.5865    8.6248 H         1 30X2        0.0000 
     29 H          11.8323   13.1431    9.6071 H         1 30X2        0.0000 
     30 H          10.4371   12.6107   10.5611 H         1 30X2        0.0000 
     31 H          10.0777   16.5300    5.3713 H         1 30X2        0.0000 
     32 H           7.9924   15.5816   13.3635 H         1 30X2        0.0000 
     33 H           6.4790   15.6568   12.8246 H         1 30X2        0.0000 
     34 H           7.1775   14.2280   13.0633 H         1 30X2        0.0000 
     35 H           8.8181   16.9892   11.2300 H         1 30X2        0.0000 
     36 H           8.4485   16.3830    9.7870 H         1 30X2        0.0000 
     37 H           7.3046   17.0612   10.6913 H         1 30X2        0.0000 
     38 H           9.2847   12.4734    7.8657 H         1 30X2        0.0000 
     39 H           9.2583   11.8734    9.3574 H         1 30X2        0.0000 
     40 H           7.8793   12.1526    8.5786 H         1 30X2        0.0000 
@<TRIPOS>BOND
     1   16    1 ar   
     2   17    1 ar   
     3   26    1 1    
     4   18    2 1    
     5   19    2 3    
     6    4    3 ar   
     7    5    3 1    
     8   18    3 ar   
     9   16    4 ar   
    10   27    4 1    
    11   20    5 1    
    12   21    5 1    
    13   22    5 1    
    14   25    6 1    
    15   32    6 1    
    16   33    6 1    
    17   34    6 1    
    18   25    7 1    
    19   35    7 1    
    20   36    7 1    
    21   37    7 1    
    22    9    8 1    
    23   38    8 1    
    24   39    8 1    
    25   40    8 1    
    26   10    9 1    
    27   23    9 1    
    28   28    9 1    
    29   11   10 1    
    30   16   10 1    
    31   12   11 1    
    32   29   11 1    
    33   30   11 1    
    34   13   12 1    
    35   14   12 1    
    36   15   12 1    
    37   18   17 ar   
    38   31   17 1    
    39   24   23 2    
    40   25   23 am   
@<TRIPOS>SUBSTRUCTURE
     1 30X2        1 GROUP   
@<TRIPOS>SET

