#    Name: 4ezk_0SD_1_INTS_M
#    Modification time : Mon Mar 24 18:48:04 2014

@<TRIPOS>MOLECULE
4ezk_0SD_1_INTS_M
   81     0     9     0     0
SMALL
NO_CHARGES


@<TRIPOS>ATOM
      1 CA         16.4175   -1.3535   15.3600 C.3       3 GLC5        0.0000 
      2 CA         14.9940    0.3730   15.3320 C.3       9 GLL5        0.0000 
      3 CA         17.8410   -3.0800   15.3880 C.3       6 GLP5        0.0000 
      4 CA         16.6030    1.3780   14.6035 C.3       3 GLC5        0.0000 
      5 CA         18.2120    2.3830   13.8750 C.3       6 GLP5        0.0000 
      6 N          15.6720   -8.8815   23.9495 N.am      2 SEC2        0.0000 
      7 N          16.4990   -7.9970   23.6510 N.am      8 SEL2        0.0000 
      8 N          14.8450   -9.7660   24.2480 N.am      5 SEP2        0.0000 
      9 CA         16.3275   -2.0335   16.4270 C.3       3 GLC5        0.0000 
     10 CA         14.8140   -0.9870   17.4660 C.3       9 GLL5        0.0000 
     11 O          23.9695   -8.7090   23.8655 O.2       1 ALC1        0.0000 
     12 O          24.0130   -8.3730   22.4550 O.2       7 ALL1        0.0000 
     13 O          23.9260   -9.0450   25.2760 O.2       4 ALP1        0.0000 
     14 N          25.3310   -7.1885   22.8730 N.am      2 SEC2        0.0000 
     15 N          25.0040   -8.1350   21.5490 N.am      8 SEL2        0.0000 
     16 N          25.6580   -6.2420   24.1970 N.am      5 SEP2        0.0000 
     17 CA         21.2450   -3.7315   21.9200 C.3       3 GLC5        0.0000 
     18 CA         19.8490   -3.6890   20.3630 C.3       9 GLL5        0.0000 
     19 CA         22.6410   -3.7740   23.4770 C.3       6 GLP5        0.0000 
     20 CA         20.9680   -4.7645   22.4630 C.3       3 GLC5        0.0000 
     21 CA         19.2950   -5.7550   21.4490 C.3       9 GLL5        0.0000 
     22 CA         19.8560   -6.4110   19.4450 C.3       3 GLC5        0.0000 
     23 CA         21.3480   -5.4080   20.5130 C.3       9 GLL5        0.0000 
     24 CA         18.3640   -7.4140   18.3770 C.3       6 GLP5        0.0000 
     25 CA         25.0025   -6.7395   16.9710 C.3       3 GLC5        0.0000 
     26 CA         24.6590   -5.7130   18.7810 C.3       9 GLL5        0.0000 
     27 CA         25.3460   -7.7660   15.1610 C.3       6 GLP5        0.0000 
     28 CA         24.1595   -8.4180   19.2210 C.3       3 GLC5        0.0000 
     29 CA         25.3010   -6.6620   19.5510 C.3       9 GLL5        0.0000 
     30 CA         23.0180  -10.1740   18.8910 C.3       6 GLP5        0.0000 
     31 CA         24.8720   -5.7400   21.7130 C.3       3 GLC5        0.0000 
     32 CA         23.3220   -6.8170   20.9680 C.3       9 GLL5        0.0000 
     33 CA         26.4220   -4.6630   22.4580 C.3       6 GLP5        0.0000 
     34 CA         22.7065   -9.1700   23.3355 C.3       3 GLC5        0.0000 
     35 CA         23.0100   -7.5890   22.1090 C.3       9 GLL5        0.0000 
     36 CA         22.4030  -10.7510   24.5620 C.3       6 GLP5        0.0000 
     37 CA         22.9375   -6.5865   23.6520 C.3       3 GLC5        0.0000 
     38 CA         22.8650   -5.5840   25.1950 C.3       6 GLP5        0.0000 
     39 CA         24.8865   -6.7615   22.6780 C.3       3 GLC5        0.0000 
     40 CA         26.7630   -5.9340   23.2470 C.3       6 GLP5        0.0000 
     41 CA         18.5395   -7.6140   20.5475 C.3       3 GLC5        0.0000 
     42 CA         18.7150   -7.8140   22.7180 C.3       9 GLL5        0.0000 
     43 CA         19.7470   -9.3395   21.8005 C.3       3 GLC5        0.0000 
     44 CA         20.7790  -10.8650   20.8830 C.3       6 GLP5        0.0000 
     45 CA         16.5125   -9.2765   22.9200 C.3       3 GLC5        0.0000 
     46 CA         17.8830   -8.0820   23.9360 C.3       9 GLL5        0.0000 
     47 CA         15.1420  -10.4710   21.9040 C.3       6 GLP5        0.0000 
     48 CA         17.0865   -9.0310   25.3455 C.3       3 GLC5        0.0000 
     49 CA         16.2900   -9.9800   26.7550 C.3       6 GLP5        0.0000 
     50 CA         18.2090   -7.5820   25.8170 C.3       3 GLC5        0.0000 
     51 CA         18.5350   -7.0820   27.6980 C.3       6 GLP5        0.0000 
     52 CA         15.1620   -8.1660   24.3475 C.3       3 GLC5        0.0000 
     53 CA         16.1840   -6.7020   23.1730 C.3       9 GLL5        0.0000 
     54 CA         14.1400   -9.6300   25.5220 C.3       6 GLP5        0.0000 
     55 CA         15.1935   -5.8210   24.9455 C.3       3 GLC5        0.0000 
     56 CA         14.2030   -4.9400   26.7180 C.3       6 GLP5        0.0000 
     57 CA         16.5560   -4.8070   23.9860 C.3       3 GLC5        0.0000 
     58 CA         16.9280   -2.9120   24.7990 C.3       6 GLP5        0.0000 
     59 CA         15.6850   -5.9540   20.3840 C.3       3 GLC5        0.0000 
     60 CA         16.9400   -6.3800   21.9200 C.3       9 GLL5        0.0000 
     61 CA         14.4300   -5.5280   18.8480 C.3       6 GLP5        0.0000 
     62 CA         17.6520   -6.8970   20.1485 C.3       3 GLC5        0.0000 
     63 CA         17.7350   -5.0305   23.4670 C.3       3 GLC5        0.0000 
     64 CA         18.5300   -3.6810   25.0140 C.3       6 GLP5        0.0000 
     65 CA         16.3347    1.2840   19.7273 C.3       3 GLC5        0.0000 
     66 CA         16.0830   -0.4980   19.5530 C.3       9 GLL5        0.0000 
     67 CA         16.9960    2.7610   20.4680 C.3       6 GLP5        0.0000 
     68 CA         14.4260   -3.8973   18.8427 C.3       3 GLC5        0.0000 
     69 CA         14.8480   -2.5450   19.4040 C.3       9 GLL5        0.0000 
     70 CA         16.8413   -2.6218   22.9898 C.3       3 GLC5        0.0000 
     71 CA         16.0960   -2.0400   21.4080 C.3       9 GLL5        0.0000 
     72 CA         18.9288   -3.8148   18.2555 C.3       3 GLC5        0.0000 
     73 CA         19.5300   -2.3780   19.9590 C.3       9 GLL5        0.0000 
     74 CA         18.1680   -4.5960   16.3500 C.3       6 GLP5        0.0000 
     75 CA         18.8100   -4.3940   23.1350 C.3       3 GLC5        0.0000 
     76 CA         18.8475   -6.1643   19.7290 C.3       3 GLC5        0.0000 
     77 CA         25.7010   -5.4253   20.8120 C.3       3 GLC5        0.0000 
     78 CA         23.0920   -8.6885   20.2147 C.3       3 GLC5        0.0000 
     79 CA         22.6584   -5.0006   22.0676 C.3       3 GLC5        0.0000 
     80 CA         14.9510   -7.6955   21.8912 C.3       3 GLC5        0.0000 
     81 CA         13.3400   -8.8500   21.2360 C.3       6 GLP5        0.0000 
@<TRIPOS>BOND
@<TRIPOS>SUBSTRUCTURE
     1 ALC1       11 GROUP        1 X    ALC  0     ROOT ALC X 1
     2 SEC2        6 GROUP        1 X    SEC  0     **** SEC X 2
     3 GLC5        1 GROUP        1 X    GLC  0     **** GLC X 6
     4 ALP1       13 GROUP        1 Y    ALP  0     ROOT ALP Y 8
     5 SEP2        8 GROUP        1 Y    SEP  0     **** SEP Y 9
     6 GLP5        3 GROUP        1 Y    GLP  0     **** GLP Y 13
     7 ALL1       12 GROUP        1 Z    ALL  0     ROOT ALL Z 15
     8 SEL2        7 GROUP        1 Z    SEL  0     **** SEL Z 16
     9 GLL5        2 GROUP        1 Z    GLL  0     **** GLL Z 20
@<TRIPOS>SET

