#    Name: 4ezk_0SD_1_ligand
#    Modification time : Mon Mar 24 18:48:05 2014

@<TRIPOS>MOLECULE
4ezk_0SD_1_ligand
   70    75     1     0     0
SMALL
NO_CHARGES


@<TRIPOS>ATOM
      1 N          15.3040   -1.4830   20.3060 N.4       1 0SD4000     0.0000 
      2 C          14.9940    0.3730   15.3320 C.3       1 0SD4000     0.0000 
      3 O          16.4990   -7.9970   23.6510 O.3       1 0SD4000     0.0000 
      4 C1         14.0790   -0.4540   16.2160 C.3       1 0SD4000     0.0000 
      5 N1         17.6700   -3.8670   21.3220 N.ar      1 0SD4000     0.0000 
      6 O1         13.6590   -1.5900   15.4390 O.3       1 0SD4000     0.0000 
      7 C2         12.8370    0.3410   16.5840 C.3       1 0SD4000     0.0000 
      8 N2         20.5000   -6.2050   21.1680 N.ar      1 0SD4000     0.0000 
      9 C3         14.8140   -0.9870   17.4660 C.3       1 0SD4000     0.0000 
     10 N3         21.0960   -4.1850   20.0940 N.ar      1 0SD4000     0.0000 
     11 C4         15.2640    0.1120   18.4200 C.3       1 0SD4000     0.0000 
     12 N4         24.0130   -8.3730   22.4550 N.pl3     1 0SD4000     0.0000 
     13 C5         16.0830   -0.4980   19.5530 C.3       1 0SD4000     0.0000 
     14 N5         25.0040   -8.1350   21.5490 N.2       1 0SD4000     0.0000 
     15 C6         14.8480   -2.5450   19.4040 C.3       1 0SD4000     0.0000 
     16 N6         18.3720   -6.4980   22.1820 N.3       1 0SD4000     0.0000 
     17 C7         13.9960   -1.9880   18.2710 C.3       1 0SD4000     0.0000 
     18 C8         16.0960   -2.0400   21.4080 C.3       1 0SD4000     0.0000 
     19 C9         17.4130   -2.6230   20.9530 C.ar      1 0SD4000     0.0000 
     20 C10        18.3180   -1.8520   20.2530 C.ar      1 0SD4000     0.0000 
     21 C11        19.5300   -2.3780   19.9590 C.ar      1 0SD4000     0.0000 
     22 C12        19.8490   -3.6890   20.3630 C.ar      1 0SD4000     0.0000 
     23 C13        18.8850   -4.4590   21.0630 C.ar      1 0SD4000     0.0000 
     24 C14        19.2950   -5.7550   21.4490 C.ar      1 0SD4000     0.0000 
     25 C15        21.3480   -5.4080   20.5130 C.ar      1 0SD4000     0.0000 
     26 C16        22.7110   -5.8670   20.1840 C.ar      1 0SD4000     0.0000 
     27 C17        23.3730   -5.3150   19.0920 C.ar      1 0SD4000     0.0000 
     28 C18        24.6590   -5.7130   18.7810 C.ar      1 0SD4000     0.0000 
     29 C19        25.3010   -6.6620   19.5510 C.ar      1 0SD4000     0.0000 
     30 C20        24.6310   -7.2080   20.6370 C.ar      1 0SD4000     0.0000 
     31 C21        23.3220   -6.8170   20.9680 C.ar      1 0SD4000     0.0000 
     32 C22        23.0100   -7.5890   22.1090 C.2       1 0SD4000     0.0000 
     33 C23        18.7150   -7.8140   22.7180 C.3       1 0SD4000     0.0000 
     34 C24        17.8830   -8.0820   23.9360 C.3       1 0SD4000     0.0000 
     35 C25        16.1840   -6.7020   23.1730 C.3       1 0SD4000     0.0000 
     36 C26        16.9400   -6.3800   21.9200 C.3       1 0SD4000     0.0000 
     37 H          14.4224   -0.9819   20.7251 H         1 0SD4000     0.0000 
     38 H          15.7247   -1.5126   17.1270 H         1 0SD4000     0.0000 
     39 H          14.3940    0.6102   18.8330 H         1 0SD4000     0.0000 
     40 H          15.8730    0.8300   17.8822 H         1 0SD4000     0.0000 
     41 H          24.0618   -8.9876   23.1822 H         1 0SD4000     0.0000 
     42 H          16.9790   -0.9623   19.1181 H         1 0SD4000     0.0000 
     43 H          16.4193    0.3155   20.2107 H         1 0SD4000     0.0000 
     44 H          14.2509   -3.2876   19.9520 H         1 0SD4000     0.0000 
     45 H          15.7058   -3.0728   18.9636 H         1 0SD4000     0.0000 
     46 H          13.6807   -2.7991   17.6246 H         1 0SD4000     0.0000 
     47 H          13.1251   -1.4925   18.6848 H         1 0SD4000     0.0000 
     48 H          15.5232   -2.8320   21.9275 H         1 0SD4000     0.0000 
     49 H          16.3017   -1.2578   22.1637 H         1 0SD4000     0.0000 
     50 H          18.0653   -0.8984   19.9659 H         1 0SD4000     0.0000 
     51 H          20.2391   -1.8368   19.4385 H         1 0SD4000     0.0000 
     52 H          22.8973   -4.6047   18.5137 H         1 0SD4000     0.0000 
     53 H          25.1427   -5.2975   17.9671 H         1 0SD4000     0.0000 
     54 H          26.2533   -6.9597   19.3281 H         1 0SD4000     0.0000 
     55 H          22.1387   -7.5145   22.5540 H         1 0SD4000     0.0000 
     56 H          19.7718   -7.8532   22.9923 H         1 0SD4000     0.0000 
     57 H          18.5225   -8.5927   21.9762 H         1 0SD4000     0.0000 
     58 H          18.1550   -9.0840   24.3236 H         1 0SD4000     0.0000 
     59 H          18.1794   -7.3572   24.7203 H         1 0SD4000     0.0000 
     60 H          16.4205   -5.9248   23.9263 H         1 0SD4000     0.0000 
     61 H          15.1020   -6.6036   22.9564 H         1 0SD4000     0.0000 
     62 H          16.6353   -7.0721   21.1316 H         1 0SD4000     0.0000 
     63 H          16.6897   -5.3649   21.6032 H         1 0SD4000     0.0000 
     64 H          15.3286    1.1887   15.8039 H         1 0SD4000     0.0000 
     65 H          15.7969   -0.1465   15.0395 H         1 0SD4000     0.0000 
     66 H          14.5283    0.6840   14.5035 H         1 0SD4000     0.0000 
     67 H          13.0654    1.1765   17.0839 H         1 0SD4000     0.0000 
     68 H          12.3188    0.6163   15.7743 H         1 0SD4000     0.0000 
     69 H          12.2163   -0.1870   17.1637 H         1 0SD4000     0.0000 
     70 H          14.4737   -1.8726   14.9327 H         1 0SD4000     0.0000 
@<TRIPOS>BOND
     1   13    1 1    
     2   15    1 1    
     3   18    1 1    
     4   37    1 1    
     5    4    2 1    
     6   64    2 1    
     7   65    2 1    
     8   66    2 1    
     9   34    3 1    
    10   35    3 1    
    11    6    4 1    
    12    7    4 1    
    13    9    4 1    
    14   19    5 ar   
    15   23    5 ar   
    16   70    6 1    
    17   67    7 1    
    18   68    7 1    
    19   69    7 1    
    20   24    8 ar   
    21   25    8 ar   
    22   11    9 1    
    23   17    9 1    
    24   38    9 1    
    25   22   10 ar   
    26   25   10 ar   
    27   13   11 1    
    28   39   11 1    
    29   40   11 1    
    30   14   12 1    
    31   32   12 1    
    32   41   12 1    
    33   42   13 1    
    34   43   13 1    
    35   30   14 2    
    36   17   15 1    
    37   44   15 1    
    38   45   15 1    
    39   24   16 1    
    40   33   16 1    
    41   36   16 1    
    42   46   17 1    
    43   47   17 1    
    44   19   18 1    
    45   48   18 1    
    46   49   18 1    
    47   20   19 ar   
    48   21   20 ar   
    49   50   20 1    
    50   22   21 ar   
    51   51   21 1    
    52   23   22 ar   
    53   24   23 ar   
    54   26   25 1    
    55   27   26 ar   
    56   31   26 ar   
    57   28   27 ar   
    58   52   27 1    
    59   29   28 ar   
    60   53   28 1    
    61   30   29 ar   
    62   54   29 1    
    63   31   30 ar   
    64   32   31 2    
    65   55   32 1    
    66   34   33 1    
    67   56   33 1    
    68   57   33 1    
    69   58   34 1    
    70   59   34 1    
    71   36   35 1    
    72   60   35 1    
    73   61   35 1    
    74   62   36 1    
    75   63   36 1    
@<TRIPOS>SUBSTRUCTURE
     1 0SD4000     1 GROUP   
@<TRIPOS>SET

