#    Name: 2px0_GNP_3_INTS_M
#    Modification time : Mon Mar 24 19:29:19 2014

@<TRIPOS>MOLECULE
2px0_GNP_3_INTS_M
   62     0    15     0     0
SMALL
NO_CHARGES


@<TRIPOS>ATOM
      1 N           0.6970   -0.9980   93.0590 N.am      2 SEC2        0.0000 
      2 N          -0.8680   -0.7860   92.4220 N.am     12 SEL2        0.0000 
      3 N           2.2620   -1.2100   93.6960 N.am      7 SEP2        0.0000 
      4 N          -0.9670    0.3795   92.9440 N.am      2 SEC2        0.0000 
      5 N          -1.0660    1.5450   93.4660 N.am      7 SEP2        0.0000 
      6 Zn         -2.9045   -3.4395   91.5330 Zn        4 ZIC7        0.0000 
      7 Zn         -2.5710   -2.5030   91.8860 Zn       14 ZIL7        0.0000 
      8 Zn         -3.2380   -4.3760   91.1800 Zn        9 ZIP7        0.0000 
      9 NZ         -0.9735   -3.5040   94.7530 N.4       3 LYC4        0.0000 
     10 NZ         -1.4940   -2.5000   94.0810 N.4      13 LYL4        0.0000 
     11 NZ         -0.4530   -4.5080   95.4250 N.4       8 LYP4        0.0000 
     12 N          -0.9735   -3.5040   94.7530 N.am      2 SEC2        0.0000 
     13 N          -1.4940   -2.5000   94.0810 N.am     12 SEL2        0.0000 
     14 N          -0.4530   -4.5080   95.4250 N.am      7 SEP2        0.0000 
     15 NZ          0.0225   -4.9005   94.2850 N.4       3 LYC4        0.0000 
     16 NZ          0.4980   -5.2930   93.1450 N.4      13 LYL4        0.0000 
     17 N           1.9220   -5.6485   93.0170 N.am      2 SEC2        0.0000 
     18 N           0.4980   -5.2930   93.1450 N.am     12 SEL2        0.0000 
     19 N           3.3460   -6.0040   92.8890 N.am      7 SEP2        0.0000 
     20 N           0.7475   -6.4945   93.1475 N.am      2 SEC2        0.0000 
     21 N           0.9970   -7.6960   93.1500 N.am      7 SEP2        0.0000 
     22 N           0.0225   -4.9005   94.2850 N.am      2 SEC2        0.0000 
     23 Zn         -2.2620   -4.7685   91.2680 Zn        4 ZIC7        0.0000 
     24 Zn         -1.2860   -5.1610   91.3560 Zn       14 ZIL7        0.0000 
     25 N          -1.3495   -6.7105   91.4290 N.am      2 SEC2        0.0000 
     26 N          -1.2860   -5.1610   91.3560 N.am     12 SEL2        0.0000 
     27 N          -1.4130   -8.2600   91.5020 N.am      7 SEP2        0.0000 
     28 N           0.3055   -8.0310   89.0535 N.am      2 SEC2        0.0000 
     29 N           0.9480   -6.9560   89.3890 N.am     12 SEL2        0.0000 
     30 N          -0.3370   -9.1060   88.7180 N.am      7 SEP2        0.0000 
     31 N           1.2375   -7.4300   88.1935 N.am      2 SEC2        0.0000 
     32 N           1.5270   -7.9040   86.9980 N.am      7 SEP2        0.0000 
     33 CA          6.4390   -3.1360   87.6085 C.3       5 GLC5        0.0000 
     34 CA          4.4130   -3.9090   87.9480 C.3      15 GLL5        0.0000 
     35 CA          8.4650   -2.3630   87.2690 C.3      10 GLP5        0.0000 
     36 CA          6.5470   -6.6345   85.1945 C.3       5 GLC5        0.0000 
     37 CA          4.9610   -5.6640   86.3440 C.3      15 GLL5        0.0000 
     38 CA          8.1330   -7.6050   84.0450 C.3      10 GLP5        0.0000 
     39 CA          7.0315   -5.1375   89.2185 C.3       5 GLC5        0.0000 
     40 CA          5.9600   -5.5620   87.4710 C.3      15 GLL5        0.0000 
     41 CA          8.1030   -4.7130   90.9660 C.3      10 GLP5        0.0000 
     42 CA          7.2125   -3.9625   87.3700 C.3       5 GLC5        0.0000 
     43 N           9.1275  -10.1285   90.7700 N.am      2 SEC2        0.0000 
     44 N           8.2390  -10.7730   89.4090 N.am     12 SEL2        0.0000 
     45 N          10.0160   -9.4840   92.1310 N.am      7 SEP2        0.0000 
     46 N           7.6970  -11.4180   90.4230 N.am      2 SEC2        0.0000 
     47 N           7.1550  -12.0630   91.4370 N.am      7 SEP2        0.0000 
     48 N           9.1925  -11.3845   88.2375 N.am      2 SEC2        0.0000 
     49 N          10.1460  -11.9960   87.0660 N.am      7 SEP2        0.0000 
     50 O          10.8885   -9.4605   88.5475 O.2       1 ALC1        0.0000 
     51 O           9.4560   -9.2390   88.3910 O.2      11 ALL1        0.0000 
     52 O          12.3210   -9.6820   88.7040 O.2       6 ALP1        0.0000 
     53 O          11.5670   -8.6990   88.0245 O.2       1 ALC1        0.0000 
     54 O          10.8130   -7.7160   87.3450 O.2      11 ALL1        0.0000 
     55 O          12.0065   -8.3225   87.0930 O.2       1 ALC1        0.0000 
     56 O          13.2000   -8.9290   86.8410 O.2       6 ALP1        0.0000 
     57 CA          7.7670   -7.5890   86.0715 C.3       5 GLC5        0.0000 
     58 CA          7.4010   -7.5730   88.0980 C.3      15 GLL5        0.0000 
     59 CA          4.4720   -2.1492   89.0625 C.3       5 GLC5        0.0000 
     60 CA          5.1750   -0.3830   89.7990 C.3      10 GLP5        0.0000 
     61 CA          8.4415   -7.4245   89.8547 C.3       5 GLC5        0.0000 
     62 CA          9.5930   -6.6830   91.3010 C.3      10 GLP5        0.0000 
@<TRIPOS>BOND
@<TRIPOS>SUBSTRUCTURE
     1 ALC1       50 GROUP        1 X    ALC  0     ROOT ALC X 1
     2 SEC2        1 GROUP        1 X    SEC  0     **** SEC X 2
     3 LYC4        9 GROUP        1 X    LYC  0     **** LYC X 4
     4 ZIC7        6 GROUP        1 X    ZIC  0     **** ZIC X 5
     5 GLC5       33 GROUP        1 X    GLC  0     **** GLC X 6
     6 ALP1       52 GROUP        1 Y    ALP  0     ROOT ALP Y 8
     7 SEP2        3 GROUP        1 Y    SEP  0     **** SEP Y 9
     8 LYP4       11 GROUP        1 Y    LYP  0     **** LYP Y 11
     9 ZIP7        8 GROUP        1 Y    ZIP  0     **** ZIP Y 12
    10 GLP5       35 GROUP        1 Y    GLP  0     **** GLP Y 13
    11 ALL1       51 GROUP        1 Z    ALL  0     ROOT ALL Z 15
    12 SEL2        2 GROUP        1 Z    SEL  0     **** SEL Z 16
    13 LYL4       10 GROUP        1 Z    LYL  0     **** LYL Z 18
    14 ZIL7        7 GROUP        1 Z    ZIL  0     **** ZIL Z 19
    15 GLL5       34 GROUP        1 Z    GLL  0     **** GLL Z 20
@<TRIPOS>SET

