#    Name: 2px0_GNP_3_ligand
#    Modification time : Mon Mar 24 19:29:19 2014

@<TRIPOS>MOLECULE
2px0_GNP_3_ligand
   44    46     1     0     0
SMALL
NO_CHARGES


@<TRIPOS>ATOM
      1 PG         -1.3100   -2.1850   92.6550 P.3       1 GNP3        0.0000 
      2 O1G        -0.8680   -0.7860   92.4220 O.co2     1 GNP3        0.0000 
      3 O2G        -2.5710   -2.5030   91.8860 O.co2     1 GNP3        0.0000 
      4 O3G        -1.4940   -2.5000   94.0810 O.co2     1 GNP3        0.0000 
      5 N3B        -0.0050   -3.0670   91.9730 N.4       1 GNP3        0.0000 
      6 PB          0.0420   -4.7400   91.8950 P.3       1 GNP3        0.0000 
      7 O1B         0.4980   -5.2930   93.1450 O.co2     1 GNP3        0.0000 
      8 O2B        -1.2860   -5.1610   91.3560 O.co2     1 GNP3        0.0000 
      9 O3A         1.2020   -4.9000   90.7670 O.3       1 GNP3        0.0000 
     10 PA          1.1780   -5.4980   89.3380 P.3       1 GNP3        0.0000 
     11 O1A         0.9480   -6.9560   89.3890 O.co2     1 GNP3        0.0000 
     12 O2A         0.2410   -4.6200   88.5340 O.co2     1 GNP3        0.0000 
     13 O5'         2.6080   -5.2620   88.8540 O.3       1 GNP3        0.0000 
     14 C5'         3.1250   -3.9220   88.7040 C.3       1 GNP3        0.0000 
     15 C4'         4.4130   -3.9090   87.9480 C.3       1 GNP3        0.0000 
     16 O4'         5.4280   -4.6990   88.4470 O.3       1 GNP3        0.0000 
     17 C3'         4.2420   -4.3120   86.4440 C.3       1 GNP3        0.0000 
     18 O3'         4.8000   -3.3340   85.5410 O.3       1 GNP3        0.0000 
     19 C2'         4.9610   -5.6640   86.3440 C.3       1 GNP3        0.0000 
     20 O2'         5.5590   -5.9060   85.1050 O.3       1 GNP3        0.0000 
     21 C1'         5.9600   -5.5620   87.4710 C.3       1 GNP3        0.0000 
     22 N9          6.2310   -6.9040   88.0600 N.pl3     1 GNP3        0.0000 
     23 C8          5.2250   -7.7330   88.7080 C.2       1 GNP3        0.0000 
     24 N7          5.7570   -8.8560   89.1160 N.2       1 GNP3        0.0000 
     25 C5          7.1790   -8.7590   88.7190 C.2       1 GNP3        0.0000 
     26 C6          8.2620   -9.7200   88.9070 C.2       1 GNP3        0.0000 
     27 O6          8.2390  -10.7730   89.4090 O.2       1 GNP3        0.0000 
     28 N1          9.4560   -9.2390   88.3910 N.am      1 GNP3        0.0000 
     29 C2          9.4810   -7.9970   87.7950 C.2       1 GNP3        0.0000 
     30 N2         10.8130   -7.7160   87.3450 N.pl3     1 GNP3        0.0000 
     31 N3          8.5840   -7.0980   87.5840 N.2       1 GNP3        0.0000 
     32 C4          7.4010   -7.5730   88.0980 C.2       1 GNP3        0.0000 
     33 H           3.2911   -3.4560   89.6928 H         1 GNP3        0.0000 
     34 H           2.3972   -3.2812   88.1728 H         1 GNP3        0.0000 
     35 H           4.7658   -2.8405   87.8905 H         1 GNP3        0.0000 
     36 H           3.1973   -4.4872   86.2865 H         1 GNP3        0.0000 
     37 H           4.2360   -6.4153   86.6384 H         1 GNP3        0.0000 
     38 H           6.8811   -5.1636   87.0623 H         1 GNP3        0.0000 
     39 H           4.3114   -7.4229   88.7854 H         1 GNP3        0.0000 
     40 H          10.3094   -9.8051   88.4544 H         1 GNP3        0.0000 
     41 H          10.9364   -6.8602   86.8427 H         1 GNP3        0.0000 
     42 H          11.5072   -8.3993   87.5711 H         1 GNP3        0.0000 
     43 H           5.1325   -2.5978   86.1304 H         1 GNP3        0.0000 
     44 H           5.4362   -5.0585   84.5886 H         1 GNP3        0.0000 
@<TRIPOS>BOND
     1    2    1 ar   
     2    3    1 ar   
     3    4    1 ar   
     4    5    1 1    
     5    6    5 1    
     6    7    6 ar   
     7    8    6 ar   
     8    9    6 1    
     9   10    9 1    
    10   11   10 ar   
    11   12   10 ar   
    12   13   10 1    
    13   14   13 1    
    14   15   14 1    
    15   33   14 1    
    16   34   14 1    
    17   16   15 1    
    18   17   15 1    
    19   35   15 1    
    20   21   16 1    
    21   18   17 1    
    22   19   17 1    
    23   36   17 1    
    24   43   18 1    
    25   20   19 1    
    26   21   19 1    
    27   37   19 1    
    28   44   20 1    
    29   22   21 1    
    30   38   21 1    
    31   23   22 1    
    32   32   22 1    
    33   24   23 2    
    34   39   23 1    
    35   25   24 1    
    36   26   25 1    
    37   32   25 2    
    38   27   26 2    
    39   28   26 am   
    40   29   28 1    
    41   40   28 1    
    42   30   29 1    
    43   31   29 2    
    44   41   30 1    
    45   42   30 1    
    46   32   31 1    
@<TRIPOS>SUBSTRUCTURE
     1 GNP3        1 GROUP   
@<TRIPOS>SET

