#    Name: 2V7G_1_CAVITY_N1_6.mol2
#    Modification time : Mon Mar 10 15:19:08 2014

@<TRIPOS>MOLECULE
2V7G_1_CAVITY_N1_6.mol2
   80     0     7     0     0
SMALL
NO_CHARGES


@<TRIPOS>ATOM
      1 CZ        -36.1254   30.0303  -60.2415 C.ar      5 PHE5        0.0000 
      2 CA        -33.0661   32.0140  -60.6952 C.3       6 GLY6        0.0000 
      3 NZ        -33.9781   32.5315  -59.6226 N.2       4 LYS4        0.0000 
      4 O         -32.0067   31.7496  -59.6668 O.2       2 ALA2        0.0000 
      5 O         -32.9187   32.2671  -58.5942 O.2       2 ALA2        0.0000 
      6 OG        -32.5506   30.3668  -59.4621 O.2       1 SER1        0.0000 
      7 CA        -33.4626   30.8842  -58.3894 C.3       6 GLY6        0.0000 
      8 CA        -34.3745   31.4017  -57.3168 C.3       6 GLY6        0.0000 
      9 CA        -35.2865   31.9192  -56.2442 C.3       6 GLY6        0.0000 
     10 CZ        -39.0371   28.2996  -57.6868 C.ar      5 PHE5        0.0000 
     11 CA        -36.3920   32.5543  -65.8814 C.3       6 GLY6        0.0000 
     12 CA        -34.6412   33.9258  -62.9567 C.3       6 GLY6        0.0000 
     13 CA        -34.2731   32.0254  -63.8246 C.3       6 GLY6        0.0000 
     14 DU        -35.1851   32.5429  -62.7520 H         7 CUB7        0.0000 
     15 NZ        -36.0971   33.0604  -61.6794 N.2       4 LYS4        0.0000 
     16 CZ        -35.7290   31.1601  -62.5472 C.ar      5 PHE5        0.0000 
     17 CZ        -36.6410   31.6776  -61.4746 C.ar      5 PHE5        0.0000 
     18 N         -34.9362   33.4197  -67.1587 N.2       2 ALA2        0.0000 
     19 OG        -35.8481   33.9372  -66.0861 O.2       1 SER1        0.0000 
     20 O         -35.3043   35.3200  -66.2909 O.2       2 ALA2        0.0000 
     21 CA        -33.8767   33.1552  -66.1303 C.3       6 GLY6        0.0000 
     22 CA        -34.7887   33.6727  -65.0577 C.3       6 GLY6        0.0000 
     23 OG        -35.7007   34.1902  -63.9851 O.2       1 SER1        0.0000 
     24 O         -35.3326   32.2899  -64.8530 O.2       2 ALA2        0.0000 
     25 CA        -36.2445   32.8074  -63.7804 C.3       6 GLY6        0.0000 
     26 O         -33.4909   27.8541  -56.9516 O.2       2 ALA2        0.0000 
     27 N         -34.4028   28.3716  -55.8790 N.2       2 ALA2        0.0000 
     28 CA        -35.3148   28.8891  -54.8064 C.3       6 GLY6        0.0000 
     29 N         -35.8587   27.5063  -54.6016 N.2       2 ALA2        0.0000 
     30 CA        -36.7707   28.0238  -53.5290 C.3       6 GLY6        0.0000 
     31 CA        -36.4026   26.1234  -54.3969 C.3       6 GLY6        0.0000 
     32 NZ        -34.8901   33.0490  -58.5500 N.2       4 LYS4        0.0000 
     33 N         -33.6100   30.6312  -60.4905 N.2       2 ALA2        0.0000 
     34 DU        -34.5220   31.1487  -59.4178 H         7 CUB7        0.0000 
     35 N         -35.4340   31.6662  -58.3452 N.2       2 ALA2        0.0000 
     36 CA        -36.3460   32.1837  -57.2726 C.3       6 GLY6        0.0000 
     37 O         -33.3434   28.1072  -54.8506 O.2       2 ALA2        0.0000 
     38 CA        -32.4031   30.6198  -57.3611 C.3       6 GLY6        0.0000 
     39 OG        -32.9470   29.2370  -57.1563 O.2       1 SER1        0.0000 
     40 CA        -33.8590   29.7545  -56.0837 C.3       6 GLY6        0.0000 
     41 NZ        -34.7709   30.2720  -55.0111 N.2       4 LYS4        0.0000 
     42 OG        -34.0064   29.5014  -58.1847 O.2       1 SER1        0.0000 
     43 DU        -34.9184   30.0189  -57.1121 H         7 CUB7        0.0000 
     44 CA        -35.8304   30.5364  -56.0395 C.3       6 GLY6        0.0000 
     45 CA        -36.7424   31.0539  -54.9669 C.3       6 GLY6        0.0000 
     46 OG        -33.6383   27.6011  -59.0526 O.2       1 SER1        0.0000 
     47 O         -34.5503   28.1186  -57.9800 O.2       2 ALA2        0.0000 
     48 DU        -35.4623   28.6360  -56.9074 H         7 CUB7        0.0000 
     49 DU        -36.3743   29.1535  -55.8348 H         7 CUB7        0.0000 
     50 O         -37.2863   29.6710  -54.7622 O.2       2 ALA2        0.0000 
     51 O         -38.1983   30.1885  -53.6896 O.2       2 ALA2        0.0000 
     52 CA        -35.0942   26.7357  -57.7752 C.3       6 GLY6        0.0000 
     53 N         -34.1539   29.2483  -60.2857 N.2       2 ALA2        0.0000 
     54 CZ        -35.0659   29.7658  -59.2131 C.ar      5 PHE5        0.0000 
     55 N         -35.9779   30.2833  -58.1405 N.2       2 ALA2        0.0000 
     56 CA        -37.8019   31.3183  -55.9953 C.3       6 GLY6        0.0000 
     57 CA        -34.6978   27.8655  -60.0810 C.3       6 GLY6        0.0000 
     58 CZ        -35.6098   28.3830  -59.0084 C.ar      5 PHE5        0.0000 
     59 N         -36.5218   28.9005  -57.9358 N.2       2 ALA2        0.0000 
     60 N         -37.4338   29.4180  -56.8632 N.2       2 ALA2        0.0000 
     61 N         -38.3457   29.9355  -55.7906 N.2       2 ALA2        0.0000 
     62 OD1       -39.2577   30.4530  -54.7179 O.3       3 ASP3        0.0000 
     63 CA        -33.2136   31.7610  -62.7962 C.3       6 GLY6        0.0000 
     64 N         -34.1256   32.2785  -61.7236 N.2       2 ALA2        0.0000 
     65 NZ        -35.0376   32.7960  -60.6510 N.2       4 LYS4        0.0000 
     66 N         -34.6695   30.8956  -61.5188 N.2       2 ALA2        0.0000 
     67 CZ        -35.5815   31.4131  -60.4462 C.ar      5 PHE5        0.0000 
     68 CA        -34.2448   35.0556  -65.2625 C.3       6 GLY6        0.0000 
     69 N         -36.1537   27.0001  -58.8036 N.2       2 ALA2        0.0000 
     70 CZ        -37.0657   27.5176  -57.7310 C.ar      5 PHE5        0.0000 
     71 CZ        -37.9777   28.0351  -56.6584 C.ar      5 PHE5        0.0000 
     72 N         -36.6976   25.6173  -58.5989 N.2       2 ALA2        0.0000 
     73 N         -37.6096   26.1348  -57.5263 N.2       2 ALA2        0.0000 
     74 N         -36.0062   27.2532  -56.7026 N.2       2 ALA2        0.0000 
     75 DU        -36.9182   27.7707  -55.6300 H         7 CUB7        0.0000 
     76 CA        -37.8302   28.2882  -54.5574 C.3       6 GLY6        0.0000 
     77 N         -36.5501   25.8704  -56.4979 N.2       2 ALA2        0.0000 
     78 N         -37.4621   26.3879  -55.4253 N.2       2 ALA2        0.0000 
     79 N         -36.1820   23.9700  -57.3658 N.2       2 ALA2        0.0000 
     80 N         -37.0940   24.4875  -56.2932 N.2       2 ALA2        0.0000 
@<TRIPOS>BOND
@<TRIPOS>SUBSTRUCTURE
     1 SER1        6 GROUP   
     2 ALA2        4 GROUP   
     3 ASP3       62 GROUP   
     4 LYS4        3 GROUP   
     5 PHE5        1 GROUP   
     6 GLY6        2 GROUP   
     7 CUB7       14 GROUP   
@<TRIPOS>SET

