#    Name: 2v7g_NAD_1_INTS_M
#    Modification time : Tue Mar 25 01:07:03 2014

@<TRIPOS>MOLECULE
2v7g_NAD_1_INTS_M
  113     0     9     0     0
SMALL
NO_CHARGES


@<TRIPOS>ATOM
      1 N         -32.0285   31.2665  -54.7235 N.am      2 SEC2        0.0000 
      2 N         -32.6250   30.0090  -55.5160 N.am      8 SEL2        0.0000 
      3 N         -31.4320   32.5240  -53.9310 N.am      5 SEP2        0.0000 
      4 N         -32.4070   27.1325  -57.3105 N.am      2 SEC2        0.0000 
      5 N         -32.8960   28.4620  -57.5400 N.am      8 SEL2        0.0000 
      6 N         -31.9180   25.8030  -57.0810 N.am      5 SEP2        0.0000 
      7 N         -31.9150   28.2785  -58.5655 N.am      2 SEC2        0.0000 
      8 N         -30.9340   28.0950  -59.5910 N.am      5 SEP2        0.0000 
      9 CA        -32.1155   29.2905  -60.0350 C.3       3 GLC5        0.0000 
     10 CA        -32.7790   30.8980  -59.2260 C.3       9 GLL5        0.0000 
     11 CA        -31.4520   27.6830  -60.8440 C.3       6 GLP5        0.0000 
     12 CA        -32.4225   33.8590  -60.3430 C.3       3 GLC5        0.0000 
     13 CA        -33.4910   32.1840  -59.6660 C.3       9 GLL5        0.0000 
     14 CA        -31.3540   35.5340  -61.0200 C.3       6 GLP5        0.0000 
     15 O         -35.1205   34.3605  -58.9590 O.2       1 ALC1        0.0000 
     16 O         -35.3250   33.0920  -58.3650 O.2       7 ALL1        0.0000 
     17 O         -34.9160   35.6290  -59.5530 O.2       4 ALP1        0.0000 
     18 CA        -37.1740   31.1430  -61.4535 C.3       3 GLC5        0.0000 
     19 CA        -35.7090   32.1380  -60.6020 C.3       9 GLL5        0.0000 
     20 CA        -38.6390   30.1480  -62.3050 C.3       6 GLP5        0.0000 
     21 N         -37.8190   32.2185  -59.5070 N.am      2 SEC2        0.0000 
     22 N         -36.9310   32.8880  -60.5010 N.am      8 SEL2        0.0000 
     23 N         -38.7070   31.5490  -58.5130 N.am      5 SEP2        0.0000 
     24 O         -37.0055   34.0570  -60.0530 O.2       1 ALC1        0.0000 
     25 O         -36.9310   32.8880  -60.5010 O.2       7 ALL1        0.0000 
     26 O         -37.0800   35.2260  -59.6050 O.2       4 ALP1        0.0000 
     27 CA        -33.0270   34.2185  -61.2310 C.3       3 GLC5        0.0000 
     28 CA        -34.7000   32.9030  -61.4420 C.3       9 GLL5        0.0000 
     29 N         -35.9855   30.5880  -65.4730 N.am      2 SEC2        0.0000 
     30 N         -35.1220   31.6180  -64.7740 N.am      8 SEL2        0.0000 
     31 N         -36.8490   29.5580  -66.1720 N.am      5 SEP2        0.0000 
     32 CA        -36.3560   35.2865  -67.1195 C.3       3 GLC5        0.0000 
     33 CA        -35.2200   33.6780  -66.1770 C.3       9 GLL5        0.0000 
     34 CA        -37.4920   36.8950  -68.0620 C.3       6 GLP5        0.0000 
     35 CA        -33.9240   35.1565  -67.0895 C.3       3 GLC5        0.0000 
     36 CA        -32.6280   36.6350  -68.0020 C.3       6 GLP5        0.0000 
     37 O         -36.3470   32.0065  -68.0570 O.2       1 ALC1        0.0000 
     38 O         -35.3710   33.0640  -67.3540 O.2       7 ALL1        0.0000 
     39 O         -37.3230   30.9490  -68.7600 O.2       4 ALP1        0.0000 
     40 N         -35.1190   35.9410  -67.1780 N.am      2 SEC2        0.0000 
     41 N         -35.1690   35.0220  -66.0830 N.am      8 SEL2        0.0000 
     42 N         -35.0690   36.8600  -68.2730 N.am      5 SEP2        0.0000 
     43 CA        -32.9550   36.4450  -64.9935 C.3       3 GLC5        0.0000 
     44 CA        -35.0120   35.6320  -64.9070 C.3       9 GLL5        0.0000 
     45 CA        -30.8980   37.2580  -65.0800 C.3       6 GLP5        0.0000 
     46 CA        -34.9285   37.6330  -65.4385 C.3       3 GLC5        0.0000 
     47 CA        -34.8450   39.6340  -65.9700 C.3       6 GLP5        0.0000 
     48 CA        -35.4215   36.8710  -63.3585 C.3       3 GLC5        0.0000 
     49 CA        -35.8310   38.1100  -61.8100 C.3       6 GLP5        0.0000 
     50 CA        -36.8290   35.1440  -64.2145 C.3       3 GLC5        0.0000 
     51 CA        -38.6460   34.6560  -63.5220 C.3       6 GLP5        0.0000 
     52 CA        -36.2520   36.2635  -66.4845 C.3       3 GLC5        0.0000 
     53 CA        -33.8200   36.1335  -66.4545 C.3       3 GLC5        0.0000 
     54 CA        -33.2900   34.4580  -64.8290 C.3       3 GLC5        0.0000 
     55 CA        -31.5680   33.2840  -64.7510 C.3       6 GLP5        0.0000 
     56 N         -36.2365   35.7265  -63.0675 N.am      2 SEC2        0.0000 
     57 N         -34.9070   34.9400  -63.7800 N.am      8 SEL2        0.0000 
     58 N         -37.5660   36.5130  -62.3550 N.am      5 SEP2        0.0000 
     59 N         -30.6155   28.3610  -56.0280 N.am      2 SEC2        0.0000 
     60 N         -30.7310   29.5140  -57.1540 N.am      8 SEL2        0.0000 
     61 N         -30.5000   27.2080  -54.9020 N.am      5 SEP2        0.0000 
     62 N         -29.2310   32.2205  -55.2730 N.am      2 SEC2        0.0000 
     63 N         -29.8860   31.8210  -56.6700 N.am      8 SEL2        0.0000 
     64 N         -28.5760   32.6200  -53.8760 N.am      5 SEP2        0.0000 
     65 N         -28.9930   32.9515  -56.4150 N.am      2 SEC2        0.0000 
     66 N         -28.1000   34.0820  -56.1600 N.am      5 SEP2        0.0000 
     67 N         -29.9145   28.5505  -54.9930 N.am      2 SEC2        0.0000 
     68 N         -29.3290   29.8930  -55.0840 N.am      8 SEL2        0.0000 
     69 N         -28.9525   31.2565  -54.4800 N.am      2 SEC2        0.0000 
     70 N         -25.4890   31.3715  -58.4640 N.am      2 SEC2        0.0000 
     71 N         -25.9750   30.0330  -59.0320 N.am      8 SEL2        0.0000 
     72 N         -25.0030   32.7100  -57.8960 N.am      5 SEP2        0.0000 
     73 O         -27.7985   26.4780  -60.9125 O.2       1 ALC1        0.0000 
     74 O         -27.0590   27.6400  -60.8190 O.2       7 ALL1        0.0000 
     75 O         -28.5380   25.3160  -61.0060 O.2       4 ALP1        0.0000 
     76 CA        -28.1070   27.1905  -57.3050 C.3       3 GLC5        0.0000 
     77 CA        -26.3330   27.7840  -58.5270 C.3       9 GLL5        0.0000 
     78 CA        -29.8810   26.5970  -56.0830 C.3       6 GLP5        0.0000 
     79 CA        -24.8480   26.1870  -58.6265 C.3       3 GLC5        0.0000 
     80 CA        -23.3630   24.5900  -58.7260 C.3       6 GLP5        0.0000 
     81 N         -26.6430   25.4055  -57.8460 N.am      2 SEC2        0.0000 
     82 N         -25.8810   26.4550  -58.7480 N.am      8 SEL2        0.0000 
     83 N         -27.4050   24.3560  -56.9440 N.am      5 SEP2        0.0000 
     84 O         -25.2325   25.8365  -59.7190 O.2       1 ALC1        0.0000 
     85 O         -25.8810   26.4550  -58.7480 O.2       7 ALL1        0.0000 
     86 O         -24.5840   25.2180  -60.6900 O.2       4 ALP1        0.0000 
     87 O         -21.4645   31.5645  -60.1380 O.2       1 ALC1        0.0000 
     88 O         -20.7240   31.3160  -58.8200 O.2       7 ALL1        0.0000 
     89 O         -22.2050   31.8130  -61.4560 O.2       4 ALP1        0.0000 
     90 CA        -33.3103   32.6127  -57.6103 C.3       3 GLC5        0.0000 
     91 CA        -32.5690   33.4370  -55.8640 C.3       6 GLP5        0.0000 
     92 CA        -36.9772   32.1795  -65.8612 C.3       3 GLC5        0.0000 
     93 CA        -35.1090   32.9240  -65.0160 C.3       9 GLL5        0.0000 
     94 CA        -38.7900   31.0580  -66.1260 C.3       6 GLP5        0.0000 
     95 CA        -36.8521   34.0505  -64.1121 C.3       3 GLC5        0.0000 
     96 CA        -33.3131   33.3645  -64.7266 C.3       3 GLC5        0.0000 
     97 CA        -34.9520   33.5890  -63.8080 C.3       9 GLL5        0.0000 
     98 CA        -26.7700   31.5815  -59.6778 C.3       3 GLC5        0.0000 
     99 CA        -28.3930   30.4050  -58.7930 C.3       9 GLL5        0.0000 
    100 CA        -25.7030   33.1090  -60.1650 C.3       6 GLP5        0.0000 
    101 CA        -26.5753   29.0440  -61.4630 C.3       3 GLC5        0.0000 
    102 CA        -27.2810   29.7030  -59.5880 C.3       9 GLL5        0.0000 
    103 CA        -25.8080   29.1520  -63.3680 C.3       6 GLP5        0.0000 
    104 CA        -29.0968   28.6762  -60.6606 C.3       3 GLC5        0.0000 
    105 CA        -30.5730   28.2410  -61.9620 C.3       6 GLP5        0.0000 
    106 CA        -22.5753   31.5173  -56.6355 C.3       3 GLC5        0.0000 
    107 CA        -23.0440   29.7620  -58.2330 C.3       9 GLL5        0.0000 
    108 CA        -22.5640   33.1030  -55.5350 C.3       6 GLP5        0.0000 
    109 CA        -22.7895   31.3135  -55.6245 C.3       3 GLC5        0.0000 
    110 CA        -22.4120   29.8230  -55.8970 C.3       9 GLL5        0.0000 
    111 CA        -25.1958   29.8685  -54.8333 C.3       3 GLC5        0.0000 
    112 CA        -23.6180   29.2250  -55.5310 C.3       9 GLL5        0.0000 
    113 CA        -26.3130   30.6880  -53.6450 C.3       6 GLP5        0.0000 
@<TRIPOS>BOND
@<TRIPOS>SUBSTRUCTURE
     1 ALC1       15 GROUP        1 X    ALC  0     ROOT ALC X 1
     2 SEC2        1 GROUP        1 X    SEC  0     **** SEC X 2
     3 GLC5        9 GROUP        1 X    GLC  0     **** GLC X 6
     4 ALP1       17 GROUP        1 Y    ALP  0     ROOT ALP Y 8
     5 SEP2        3 GROUP        1 Y    SEP  0     **** SEP Y 9
     6 GLP5       11 GROUP        1 Y    GLP  0     **** GLP Y 13
     7 ALL1       16 GROUP        1 Z    ALL  0     ROOT ALL Z 15
     8 SEL2        2 GROUP        1 Z    SEL  0     **** SEL Z 16
     9 GLL5       10 GROUP        1 Z    GLL  0     **** GLL Z 20
@<TRIPOS>SET

