#    Name: 2v7g_NAD_1_ligand
#    Modification time : Tue Mar 25 01:07:03 2014

@<TRIPOS>MOLECULE
2v7g_NAD_1_ligand
   70    74     1     0     0
SMALL
NO_CHARGES


@<TRIPOS>ATOM
      1 PA        -32.2950   29.6590  -56.9160 P.3       1 NAD3001     0.0000 
      2 O1A       -32.6250   30.0090  -55.5160 O.co2     1 NAD3001     0.0000 
      3 O2A       -32.8960   28.4620  -57.5400 O.co2     1 NAD3001     0.0000 
      4 O5B       -32.7440   30.8980  -57.7890 O.3       1 NAD3001     0.0000 
      5 C5B       -32.7790   30.8980  -59.2260 C.3       1 NAD3001     0.0000 
      6 C4B       -33.4910   32.1840  -59.6660 C.3       1 NAD3001     0.0000 
      7 O4B       -33.4530   32.2940  -61.1060 O.3       1 NAD3001     0.0000 
      8 C3B       -34.9680   32.0360  -59.2670 C.3       1 NAD3001     0.0000 
      9 O3B       -35.3250   33.0920  -58.3650 O.3       1 NAD3001     0.0000 
     10 C2B       -35.7090   32.1380  -60.6020 C.3       1 NAD3001     0.0000 
     11 O2B       -36.9310   32.8880  -60.5010 O.3       1 NAD3001     0.0000 
     12 C1B       -34.7000   32.9030  -61.4420 C.3       1 NAD3001     0.0000 
     13 N9A       -34.8780   32.6530  -62.8670 N.pl3     1 NAD3001     0.0000 
     14 C8A       -34.9740   31.4530  -63.4570 C.2       1 NAD3001     0.0000 
     15 N7A       -35.1220   31.6180  -64.7740 N.2       1 NAD3001     0.0000 
     16 C5A       -35.1090   32.9240  -65.0160 C.ar      1 NAD3001     0.0000 
     17 C6A       -35.2200   33.6780  -66.1770 C.ar      1 NAD3001     0.0000 
     18 N6A       -35.3710   33.0640  -67.3540 N.pl3     1 NAD3001     0.0000 
     19 N1A       -35.1690   35.0220  -66.0830 N.ar      1 NAD3001     0.0000 
     20 C2A       -35.0120   35.6320  -64.9070 C.ar      1 NAD3001     0.0000 
     21 N3A       -34.9070   34.9400  -63.7800 N.ar      1 NAD3001     0.0000 
     22 C4A       -34.9520   33.5890  -63.8080 C.ar      1 NAD3001     0.0000 
     23 O3        -30.7310   29.5140  -57.1540 O.3       1 NAD3001     0.0000 
     24 PN        -29.5820   30.3940  -56.4580 P.3       1 NAD3001     0.0000 
     25 O1N       -29.8860   31.8210  -56.6700 O.co2     1 NAD3001     0.0000 
     26 O2N       -29.3290   29.8930  -55.0840 O.co2     1 NAD3001     0.0000 
     27 O5D       -28.3780   30.0170  -57.4050 O.3       1 NAD3001     0.0000 
     28 C5D       -28.3930   30.4050  -58.7930 C.3       1 NAD3001     0.0000 
     29 C4D       -27.2810   29.7030  -59.5880 C.3       1 NAD3001     0.0000 
     30 O4D       -25.9750   30.0330  -59.0320 O.3       1 NAD3001     0.0000 
     31 C3D       -27.4040   28.1690  -59.5280 C.3       1 NAD3001     0.0000 
     32 O3D       -27.0590   27.6400  -60.8190 O.3       1 NAD3001     0.0000 
     33 C2D       -26.3330   27.7840  -58.5270 C.3       1 NAD3001     0.0000 
     34 O2D       -25.8810   26.4550  -58.7480 O.3       1 NAD3001     0.0000 
     35 C1D       -25.2340   28.7850  -58.9090 C.3       1 NAD3001     0.0000 
     36 N1N       -24.2530   29.1260  -57.8650 N.pl3     1 NAD3001     0.0000 
     37 C2N       -23.0440   29.7620  -58.2330 C.ar      1 NAD3001     0.0000 
     38 C3N       -22.1290   30.1010  -57.2390 C.ar      1 NAD3001     0.0000 
     39 C7N       -20.8090   30.8010  -57.5820 C.2       1 NAD3001     0.0000 
     40 O7N       -19.9260   30.9030  -56.7310 O.2       1 NAD3001     0.0000 
     41 N7N       -20.7240   31.3160  -58.8200 N.am      1 NAD3001     0.0000 
     42 C4N       -22.4120   29.8230  -55.8970 C.ar      1 NAD3001     0.0000 
     43 C5N       -23.6180   29.2250  -55.5310 C.ar      1 NAD3001     0.0000 
     44 C6N       -24.5390   28.8730  -56.5120 C.ar      1 NAD3001     0.0000 
     45 H         -33.3384   30.0553  -59.6172 H         1 NAD3001     0.0000 
     46 H         -31.7830   30.9034  -59.6551 H         1 NAD3001     0.0000 
     47 H         -33.0817   33.0079  -59.1768 H         1 NAD3001     0.0000 
     48 H         -35.1035   31.0678  -58.8727 H         1 NAD3001     0.0000 
     49 H         -35.8155   31.1757  -61.0049 H         1 NAD3001     0.0000 
     50 H         -34.7149   33.9105  -61.1988 H         1 NAD3001     0.0000 
     51 H         -34.9406   30.5946  -62.9938 H         1 NAD3001     0.0000 
     52 H         -34.6632   33.2427  -68.0374 H         1 NAD3001     0.0000 
     53 H         -36.1782   32.4809  -67.4457 H         1 NAD3001     0.0000 
     54 H         -34.9708   36.6879  -64.8760 H         1 NAD3001     0.0000 
     55 H         -28.2492   31.4907  -58.9080 H         1 NAD3001     0.0000 
     56 H         -29.3529   30.1526  -59.2701 H         1 NAD3001     0.0000 
     57 H         -27.3346   30.0032  -60.6157 H         1 NAD3001     0.0000 
     58 H         -28.3357   27.9108  -59.1816 H         1 NAD3001     0.0000 
     59 H         -26.6607   28.0012  -57.5677 H         1 NAD3001     0.0000 
     60 H         -24.8017   28.5429  -59.8170 H         1 NAD3001     0.0000 
     61 H         -22.8550   29.9644  -59.2116 H         1 NAD3001     0.0000 
     62 H         -19.8457   31.7254  -59.0669 H         1 NAD3001     0.0000 
     63 H         -21.5466   31.2439  -59.3840 H         1 NAD3001     0.0000 
     64 H         -21.7195   30.0638  -55.1714 H         1 NAD3001     0.0000 
     65 H         -23.8230   29.0464  -54.5421 H         1 NAD3001     0.0000 
     66 H         -25.4268   28.4295  -56.2557 H         1 NAD3001     0.0000 
     67 H         -34.7414   33.8617  -58.6239 H         1 NAD3001     0.0000 
     68 H         -36.7946   33.5013  -59.7230 H         1 NAD3001     0.0000 
     69 H         -27.6883   26.8762  -60.9622 H         1 NAD3001     0.0000 
     70 H         -25.4421   26.4770  -59.6463 H         1 NAD3001     0.0000 
@<TRIPOS>BOND
     1    2    1 ar   
     2    3    1 ar   
     3    4    1 1    
     4   23    1 1    
     5    5    4 1    
     6    6    5 1    
     7   45    5 1    
     8   46    5 1    
     9    7    6 1    
    10    8    6 1    
    11   47    6 1    
    12   12    7 1    
    13    9    8 1    
    14   10    8 1    
    15   48    8 1    
    16   67    9 1    
    17   11   10 1    
    18   12   10 1    
    19   49   10 1    
    20   68   11 1    
    21   13   12 1    
    22   50   12 1    
    23   14   13 1    
    24   22   13 1    
    25   15   14 2    
    26   51   14 1    
    27   16   15 1    
    28   17   16 ar   
    29   22   16 ar   
    30   18   17 1    
    31   19   17 ar   
    32   52   18 1    
    33   53   18 1    
    34   20   19 ar   
    35   21   20 ar   
    36   54   20 1    
    37   22   21 ar   
    38   24   23 1    
    39   25   24 ar   
    40   26   24 ar   
    41   27   24 1    
    42   28   27 1    
    43   29   28 1    
    44   55   28 1    
    45   56   28 1    
    46   30   29 1    
    47   31   29 1    
    48   57   29 1    
    49   35   30 1    
    50   32   31 1    
    51   33   31 1    
    52   58   31 1    
    53   69   32 1    
    54   34   33 1    
    55   35   33 1    
    56   59   33 1    
    57   70   34 1    
    58   36   35 1    
    59   60   35 1    
    60   37   36 ar   
    61   44   36 ar   
    62   38   37 ar   
    63   61   37 1    
    64   39   38 1    
    65   42   38 ar   
    66   40   39 2    
    67   41   39 am   
    68   62   41 1    
    69   63   41 1    
    70   43   42 ar   
    71   64   42 1    
    72   44   43 ar   
    73   65   43 1    
    74   66   44 1    
@<TRIPOS>SUBSTRUCTURE
     1 NAD3001     1 GROUP   
@<TRIPOS>SET

