#    Name: 2vtp_LZ9_1_INTS_M
#    Modification time : Tue Mar 25 02:54:50 2014

@<TRIPOS>MOLECULE
2vtp_LZ9_1_INTS_M
   60     0     9     0     0
SMALL
NO_CHARGES


@<TRIPOS>ATOM
      1 O          30.8165    5.4885   65.8870 O.2       1 ALC1        0.0000 
      2 O          29.9150    6.1840   65.3460 O.2       7 ALL1        0.0000 
      3 O          31.7180    4.7930   66.4280 O.2       4 ALP1        0.0000 
      4 N          29.3850    3.1150   65.9635 N.am      2 SEC2        0.0000 
      5 N          28.2450    3.8760   65.3680 N.am      8 SEL2        0.0000 
      6 N          30.5250    2.3540   66.5590 N.am      5 SEP2        0.0000 
      7 O          27.2430    1.8105   65.4160 O.2       1 ALC1        0.0000 
      8 O          27.3670    2.9370   64.9340 O.2       7 ALL1        0.0000 
      9 O          27.1190    0.6840   65.8980 O.2       4 ALP1        0.0000 
     10 CA         26.5730    1.7675   63.2760 C.3       3 GLC5        0.0000 
     11 CA         26.5290    3.4120   64.0370 C.3       9 GLL5        0.0000 
     12 CA         26.6170    0.1230   62.5150 C.3       6 GLP5        0.0000 
     13 CA         25.0730    2.3270   64.4410 C.3       3 GLC5        0.0000 
     14 CA         23.6170    1.2420   64.8450 C.3       6 GLP5        0.0000 
     15 CA         22.3415    4.5780   62.9285 C.3       3 GLC5        0.0000 
     16 CA         22.8030    6.6410   62.2940 C.3       9 GLL5        0.0000 
     17 CA         21.8800    2.5150   63.5630 C.3       6 GLP5        0.0000 
     18 CA         27.8005    6.8185   58.4850 C.3       3 GLC5        0.0000 
     19 CA         27.0490    6.7750   60.2190 C.3       9 GLL5        0.0000 
     20 CA         28.5520    6.8620   56.7510 C.3       6 GLP5        0.0000 
     21 CA         28.8260    6.2270   60.7880 C.3       3 GLC5        0.0000 
     22 CA         30.6030    5.6790   61.3570 C.3       6 GLP5        0.0000 
     23 CA         30.1975    9.6113   66.3295 C.3       3 GLC5        0.0000 
     24 CA         32.4260    9.5130   65.6500 C.3       9 GLL5        0.0000 
     25 CA         28.1550   10.0440   66.4330 C.3       6 GLP5        0.0000 
     26 CA         32.9938    6.7248   67.0157 C.3       3 GLC5        0.0000 
     27 CA         32.0540    8.8440   66.8020 C.3       9 GLL5        0.0000 
     28 CA         34.3430    5.1570   67.2800 C.3       6 GLP5        0.0000 
     29 CA         29.5813    8.7847   66.2533 C.3       3 GLC5        0.0000 
     30 CA         31.2350    7.7410   66.7010 C.3       9 GLL5        0.0000 
     31 CA         32.9973    7.3040   64.4417 C.3       3 GLC5        0.0000 
     32 CA         30.7800    7.3100   65.4460 C.3       9 GLL5        0.0000 
     33 CA         35.0250    6.9450   64.0140 C.3       6 GLP5        0.0000 
     34 CA         30.7863    6.6710   63.1133 C.3       3 GLC5        0.0000 
     35 CA         31.1590    8.0160   64.2930 C.3       9 GLL5        0.0000 
     36 CA         25.9160    4.1463   65.4988 C.3       3 GLC5        0.0000 
     37 CA         26.8610    4.7170   63.8500 C.3       9 GLL5        0.0000 
     38 CA         25.1370    4.2280   67.0540 C.3       6 GLP5        0.0000 
     39 CA         27.9505    3.8863   62.9493 C.3       3 GLC5        0.0000 
     40 CA         29.2060    3.7080   61.9550 C.3       6 GLP5        0.0000 
     41 CA         23.0553    8.3153   62.9205 C.3       3 GLC5        0.0000 
     42 CA         23.6620    7.2140   61.4280 C.3       9 GLL5        0.0000 
     43 CA         22.8780    9.7030   63.9800 C.3       6 GLP5        0.0000 
     44 CA         22.8805   10.4462   60.4497 C.3       3 GLC5        0.0000 
     45 CA         23.2730    8.3500   60.7090 C.3       9 GLL5        0.0000 
     46 CA         22.0410   12.2450   60.6350 C.3       6 GLP5        0.0000 
     47 CA         23.2990    9.1752   62.1222 C.3       3 GLC5        0.0000 
     48 CA         24.1670    8.9450   59.8200 C.3       9 GLL5        0.0000 
     49 CA         21.3964    7.1944   61.5860 C.3       3 GLC5        0.0000 
     50 CA         19.5400    6.7500   61.8870 C.3       6 GLP5        0.0000 
     51 CA         26.3807    7.2912   58.0772 C.3       3 GLC5        0.0000 
     52 CA         25.8140    7.2760   60.3750 C.3       9 GLL5        0.0000 
     53 CA         27.1350    6.7430   56.1440 C.3       6 GLP5        0.0000 
     54 CA         26.4722    5.2065   59.7401 C.3       3 GLC5        0.0000 
     55 CA         26.7330    3.5460   58.9580 C.3       6 GLP5        0.0000 
     56 CA         29.8648    9.3050   65.3890 C.3       3 GLC5        0.0000 
     57 CA         32.0858    8.4785   62.2520 C.3       3 GLC5        0.0000 
     58 CA         32.5970    8.3910   60.1590 C.3       6 GLP5        0.0000 
     59 CA         33.6205    8.1130   64.6693 C.3       3 GLC5        0.0000 
     60 CA         31.9900    9.1160   64.3970 C.3       9 GLL5        0.0000 
@<TRIPOS>BOND
@<TRIPOS>SUBSTRUCTURE
     1 ALC1        1 GROUP        1 X    ALC  0     ROOT ALC X 1
     2 SEC2        4 GROUP        1 X    SEC  0     **** SEC X 2
     3 GLC5       10 GROUP        1 X    GLC  0     **** GLC X 6
     4 ALP1        3 GROUP        1 Y    ALP  0     ROOT ALP Y 8
     5 SEP2        6 GROUP        1 Y    SEP  0     **** SEP Y 9
     6 GLP5       12 GROUP        1 Y    GLP  0     **** GLP Y 13
     7 ALL1        2 GROUP        1 Z    ALL  0     ROOT ALL Z 15
     8 SEL2        5 GROUP        1 Z    SEL  0     **** SEL Z 16
     9 GLL5       11 GROUP        1 Z    GLL  0     **** GLL Z 20
@<TRIPOS>SET

