#    Name: 2vtp_LZ9_1_ligand
#    Modification time : Tue Mar 25 02:54:50 2014

@<TRIPOS>MOLECULE
2vtp_LZ9_1_ligand
   37    39     1     0     0
SMALL
NO_CHARGES


@<TRIPOS>ATOM
      1 F1         33.2340   10.5830   65.7540 F         1 LZ91299     0.0000 
      2 C2         32.4260    9.5130   65.6500 C.ar      1 LZ91299     0.0000 
      3 C3         32.0540    8.8440   66.8020 C.ar      1 LZ91299     0.0000 
      4 C4         31.2350    7.7410   66.7010 C.ar      1 LZ91299     0.0000 
      5 C5         30.7800    7.3100   65.4460 C.ar      1 LZ91299     0.0000 
      6 N6         29.9150    6.1840   65.3460 N.am      1 LZ91299     0.0000 
      7 C7         28.6570    6.2390   64.8540 C.2       1 LZ91299     0.0000 
      8 O8         28.1460    7.2840   64.4760 O.2       1 LZ91299     0.0000 
      9 C9         27.9360    4.9630   64.7090 C.2       1 LZ91299     0.0000 
     10 N10        28.2450    3.8760   65.3680 N.2       1 LZ91299     0.0000 
     11 N11        27.3670    2.9370   64.9340 N.pl3     1 LZ91299     0.0000 
     12 C12        26.5290    3.4120   64.0370 C.2       1 LZ91299     0.0000 
     13 C13        26.8610    4.7170   63.8500 C.2       1 LZ91299     0.0000 
     14 N14        26.3230    5.6650   62.9980 N.am      1 LZ91299     0.0000 
     15 C15        25.3590    5.4440   62.0910 C.2       1 LZ91299     0.0000 
     16 O16        24.8160    4.3350   61.9680 O.2       1 LZ91299     0.0000 
     17 C17        24.9340    6.6420   61.2760 C.ar      1 LZ91299     0.0000 
     18 C18        23.6620    7.2140   61.4280 C.ar      1 LZ91299     0.0000 
     19 F19        22.8030    6.6410   62.2940 F         1 LZ91299     0.0000 
     20 C20        23.2730    8.3500   60.7090 C.ar      1 LZ91299     0.0000 
     21 C21        24.1670    8.9450   59.8200 C.ar      1 LZ91299     0.0000 
     22 C22        25.4390    8.4030   59.6460 C.ar      1 LZ91299     0.0000 
     23 C23        25.8140    7.2760   60.3750 C.ar      1 LZ91299     0.0000 
     24 F24        27.0490    6.7750   60.2190 F         1 LZ91299     0.0000 
     25 C25        31.1590    8.0160   64.2930 C.ar      1 LZ91299     0.0000 
     26 C26        31.9900    9.1160   64.3970 C.ar      1 LZ91299     0.0000 
     27 H          32.3846    9.1666   67.7174 H         1 LZ91299     0.0000 
     28 H          30.9490    7.2226   67.5445 H         1 LZ91299     0.0000 
     29 H          30.3070    5.2617   65.6846 H         1 LZ91299     0.0000 
     30 H          27.3738    1.9994   65.2699 H         1 LZ91299     0.0000 
     31 H          25.8175    2.9512   63.5893 H         1 LZ91299     0.0000 
     32 H          26.7232    6.6613   63.0825 H         1 LZ91299     0.0000 
     33 H          22.3349    8.7407   60.8371 H         1 LZ91299     0.0000 
     34 H          23.8883    9.7816   59.2942 H         1 LZ91299     0.0000 
     35 H          26.0953    8.8309   58.9854 H         1 LZ91299     0.0000 
     36 H          30.8134    7.7073   63.3758 H         1 LZ91299     0.0000 
     37 H          32.2795    9.6304   63.5603 H         1 LZ91299     0.0000 
@<TRIPOS>BOND
     1    2    1 1    
     2    3    2 ar   
     3   26    2 ar   
     4    4    3 ar   
     5   27    3 1    
     6    5    4 ar   
     7   28    4 1    
     8    6    5 1    
     9   25    5 ar   
    10    7    6 am   
    11   29    6 1    
    12    8    7 2    
    13    9    7 1    
    14   10    9 2    
    15   13    9 1    
    16   11   10 1    
    17   12   11 1    
    18   30   11 1    
    19   13   12 2    
    20   31   12 1    
    21   14   13 1    
    22   15   14 am   
    23   32   14 1    
    24   16   15 2    
    25   17   15 1    
    26   18   17 ar   
    27   23   17 ar   
    28   19   18 1    
    29   20   18 ar   
    30   21   20 ar   
    31   33   20 1    
    32   22   21 ar   
    33   34   21 1    
    34   23   22 ar   
    35   35   22 1    
    36   24   23 1    
    37   26   25 ar   
    38   36   25 1    
    39   37   26 1    
@<TRIPOS>SUBSTRUCTURE
     1 LZ91299     1 GROUP   
@<TRIPOS>SET

