#    Name: 3r22_D37_1_INTS_M
#    Modification time : Tue Mar 25 10:28:30 2014

@<TRIPOS>MOLECULE
3r22_D37_1_INTS_M
   57     0     6     0     0
SMALL
NO_CHARGES


@<TRIPOS>ATOM
      1 CA         -1.9280  -31.0000    6.2810 C.3       2 GLC5        0.0000 
      2 CA         -2.8240  -32.6810    5.8740 C.3       6 GLL5        0.0000 
      3 CA         -1.0320  -29.3190    6.6880 C.3       4 GLP5        0.0000 
      4 CA         -2.3485  -30.3655    7.2305 C.3       2 GLC5        0.0000 
      5 CA         -3.6650  -31.4120    7.7730 C.3       6 GLL5        0.0000 
      6 CA         -4.2380  -33.0685    8.8295 C.3       2 GLC5        0.0000 
      7 CA         -4.8110  -34.7250    9.8860 C.3       4 GLP5        0.0000 
      8 CA         -5.1575  -32.1295    7.4890 C.3       2 GLC5        0.0000 
      9 CA         -6.6500  -32.8470    7.2050 C.3       4 GLP5        0.0000 
     10 CA         -3.1095  -29.4900    7.1680 C.3       2 GLC5        0.0000 
     11 CA         -5.1870  -29.6610    7.6480 C.3       6 GLL5        0.0000 
     12 CA         -4.2485  -27.7125    7.5920 C.3       2 GLC5        0.0000 
     13 CA         -3.3100  -25.7640    7.5360 C.3       4 GLP5        0.0000 
     14 CA         -5.9185  -31.2540    7.4265 C.3       2 GLC5        0.0000 
     15 CA         -5.6880  -26.2800    6.0795 C.3       2 GLC5        0.0000 
     16 CA         -6.3870  -28.1910    5.8860 C.3       6 GLL5        0.0000 
     17 CA         -4.9890  -24.3690    6.2730 C.3       4 GLP5        0.0000 
     18 CA         -5.1990  -25.7305    5.0610 C.3       2 GLC5        0.0000 
     19 CA         -5.4090  -27.0920    3.8490 C.3       6 GLL5        0.0000 
     20 CA         -3.1665  -31.4130   11.0935 C.3       2 GLC5        0.0000 
     21 CA         -4.5590  -30.5200    9.7840 C.3       6 GLL5        0.0000 
     22 CA         -1.7740  -32.3060   12.4030 C.3       4 GLP5        0.0000 
     23 CA         -4.6850  -32.6225    9.8350 C.3       2 GLC5        0.0000 
     24 CA         -1.1135  -31.2725    5.3235 C.3       2 GLC5        0.0000 
     25 CA         -1.6610  -33.2780    5.3870 C.3       6 GLL5        0.0000 
     26 CA         -0.5660  -29.2670    5.2600 C.3       4 GLP5        0.0000 
     27 N          -3.2605  -32.5850    9.9470 N.am      1 SEC2        0.0000 
     28 N          -3.7640  -31.3850    9.1310 N.am      5 SEL2        0.0000 
     29 N          -2.7570  -33.7850   10.7630 N.am      3 SEP2        0.0000 
     30 CA         -4.3610  -26.4960    5.6460 C.3       2 GLC5        0.0000 
     31 CA         -5.1390  -28.0140    5.0280 C.3       6 GLL5        0.0000 
     32 CA         -3.5830  -24.9780    6.2640 C.3       4 GLP5        0.0000 
     33 CA         -7.0310  -31.0105    6.2575 C.3       2 GLC5        0.0000 
     34 CA         -7.4120  -29.1740    5.3100 C.3       6 GLL5        0.0000 
     35 CA         -5.5855  -32.8402    3.7953 C.3       2 GLC5        0.0000 
     36 CA         -3.9010  -32.5380    5.0170 C.3       6 GLL5        0.0000 
     37 CA         -7.3340  -32.9230    3.2320 C.3       4 GLP5        0.0000 
     38 CA         -5.0062  -32.7282    6.3253 C.3       2 GLC5        0.0000 
     39 CA         -7.3260  -31.1483    3.9045 C.3       2 GLC5        0.0000 
     40 CA         -3.2610  -27.8455    4.4668 C.3       2 GLC5        0.0000 
     41 CA         -1.2480  -28.1380    4.4950 C.3       4 GLP5        0.0000 
     42 CA         -4.5630  -26.7132    2.1270 C.3       2 GLC5        0.0000 
     43 CA         -3.4640  -25.9490    1.0110 C.3       4 GLP5        0.0000 
     44 CA         -3.5300  -29.0600   10.0380 C.3       2 GLC5        0.0000 
     45 CA         -5.2950  -29.6280    9.0220 C.3       6 GLL5        0.0000 
     46 CA         -2.1330  -28.0460   10.6730 C.3       4 GLP5        0.0000 
     47 CA         -6.1105  -30.2645   10.9190 C.3       2 GLC5        0.0000 
     48 CA         -7.2940  -30.4550   12.4350 C.3       4 GLP5        0.0000 
     49 CA         -6.5085  -31.0100    9.1970 C.3       2 GLC5        0.0000 
     50 CA         -8.0900  -31.9460    8.9910 C.3       4 GLP5        0.0000 
     51 CA         -3.6783  -34.6467    4.0060 C.3       2 GLC5        0.0000 
     52 CA         -3.7730  -32.9770    3.7000 C.3       6 GLL5        0.0000 
     53 CA         -4.1810  -36.0250    4.5330 C.3       4 GLP5        0.0000 
     54 CA         -3.3464  -34.4844    4.9746 C.3       2 GLC5        0.0000 
     55 CA         -6.7575  -26.2101    2.4660 C.3       2 GLC5        0.0000 
     56 CA         -5.9150  -27.8630    2.6370 C.3       6 GLL5        0.0000 
     57 CA         -7.0270  -24.4840    1.8630 C.3       4 GLP5        0.0000 
@<TRIPOS>BOND
@<TRIPOS>SUBSTRUCTURE
     1 SEC2       27 GROUP        1 X    SEC  0     ROOT SEC X 2
     2 GLC5        1 GROUP        1 X    GLC  0     **** GLC X 6
     3 SEP2       29 GROUP        1 Y    SEP  0     ROOT SEP Y 9
     4 GLP5        3 GROUP        1 Y    GLP  0     **** GLP Y 13
     5 SEL2       28 GROUP        1 Z    SEL  0     ROOT SEL Z 16
     6 GLL5        2 GROUP        1 Z    GLL  0     **** GLL Z 20
@<TRIPOS>SET

