#    Name: 3r22_D37_1_ligand
#    Modification time : Tue Mar 25 10:28:30 2014

@<TRIPOS>MOLECULE
3r22_D37_1_ligand
   51    54     1     0     0
SMALL
NO_CHARGES


@<TRIPOS>ATOM
      1 N1         -2.4140  -34.0080    1.9930 N.pl3     1 D371        0.0000 
      2 N3         -4.3690  -30.5460    7.0330 N.ar      1 D371        0.0000 
      3 C4         -3.9010  -32.5380    5.0170 C.ar      1 D371        0.0000 
      4 C5         -2.8240  -32.6810    5.8740 C.ar      1 D371        0.0000 
      5 C6         -3.6650  -31.4120    7.7730 C.ar      1 D371        0.0000 
      6 C7         -5.1870  -29.6610    7.6480 C.ar      1 D371        0.0000 
      7 C8         -6.3870  -28.1910    5.8860 C.3       1 D371        0.0000 
      8 C10        -7.2240  -29.5730    3.8440 C.3       1 D371        0.0000 
      9 C13        -5.4090  -27.0920    3.8490 C.3       1 D371        0.0000 
     10 C15        -6.2030  -28.6230    9.4640 C.2       1 D371        0.0000 
     11 C17        -4.5590  -30.5200    9.7840 C.ar      1 D371        0.0000 
     12 O2         -4.7290  -33.4170    1.1380 O.2       1 D371        0.0000 
     13 S          -3.3540  -33.6170    0.7430 S.o2      1 D371        0.0000 
     14 O1         -3.3450  -34.7190   -0.1920 O.2       1 D371        0.0000 
     15 C1         -2.7430  -32.2310    0.0410 C.3       1 D371        0.0000 
     16 C2         -2.5780  -33.5600    3.2580 C.ar      1 D371        0.0000 
     17 N7         -1.5530  -33.7020    4.1200 N.ar      1 D371        0.0000 
     18 C18        -1.6610  -33.2780    5.3870 C.ar      1 D371        0.0000 
     19 C3         -3.7730  -32.9770    3.7000 C.ar      1 D371        0.0000 
     20 N2         -2.8470  -32.2980    7.1730 N.pl3     1 D371        0.0000 
     21 N6         -3.7640  -31.3850    9.1310 N.ar      1 D371        0.0000 
     22 C16        -5.2950  -29.6280    9.0220 C.ar      1 D371        0.0000 
     23 N5         -6.6400  -28.0590    8.3030 N.2       1 D371        0.0000 
     24 N4         -6.0070  -28.7000    7.2240 N.pl3     1 D371        0.0000 
     25 C14        -5.1390  -28.0140    5.0280 C.3       1 D371        0.0000 
     26 C12        -5.9150  -27.8630    2.6370 C.3       1 D371        0.0000 
     27 C11        -7.3140  -28.3950    2.8950 C.3       1 D371        0.0000 
     28 C9         -7.4120  -29.1740    5.3100 C.3       1 D371        0.0000 
     29 H          -1.6536  -34.6579    1.7013 H         1 D371        0.0000 
     30 H          -4.7743  -32.1198    5.3383 H         1 D371        0.0000 
     31 H          -6.8736  -27.2297    6.0092 H         1 D371        0.0000 
     32 H          -6.2438  -30.0571    3.7324 H         1 D371        0.0000 
     33 H          -7.9903  -30.3145    3.5785 H         1 D371        0.0000 
     34 H          -4.4870  -26.5680    3.5822 H         1 D371        0.0000 
     35 H          -6.1550  -26.3463    4.1376 H         1 D371        0.0000 
     36 H          -6.4166  -28.4314   10.3345 H         1 D371        0.0000 
     37 H          -4.6311  -30.5055   10.8013 H         1 D371        0.0000 
     38 H          -0.8559  -33.3884    6.0538 H         1 D371        0.0000 
     39 H          -4.5604  -32.8735    3.0451 H         1 D371        0.0000 
     40 H          -2.0967  -32.7757    7.8221 H         1 D371        0.0000 
     41 H          -4.8168  -28.9889    4.6581 H         1 D371        0.0000 
     42 H          -4.3395  -27.5933    5.6402 H         1 D371        0.0000 
     43 H          -5.2429  -28.6946    2.4338 H         1 D371        0.0000 
     44 H          -5.9324  -27.2022    1.7723 H         1 D371        0.0000 
     45 H          -7.9202  -27.6155    3.3398 H         1 D371        0.0000 
     46 H          -7.7567  -28.7148    1.9597 H         1 D371        0.0000 
     47 H          -8.4282  -28.7376    5.4317 H         1 D371        0.0000 
     48 H          -7.4067  -30.0962    5.9325 H         1 D371        0.0000 
     49 H          -1.8076  -32.3623   -0.2874 H         1 D371        0.0000 
     50 H          -3.2907  -31.9394   -0.7432 H         1 D371        0.0000 
     51 H          -2.7229  -31.4663    0.6851 H         1 D371        0.0000 
@<TRIPOS>BOND
     1   13    1 1    
     2   16    1 1    
     3   29    1 1    
     4    5    2 ar   
     5    6    2 ar   
     6    4    3 ar   
     7   19    3 ar   
     8   30    3 1    
     9   18    4 ar   
    10   20    4 1    
    11   20    5 1    
    12   21    5 ar   
    13   22    6 ar   
    14   24    6 1    
    15   24    7 1    
    16   25    7 1    
    17   28    7 1    
    18   31    7 1    
    19   27    8 1    
    20   28    8 1    
    21   32    8 1    
    22   33    8 1    
    23   25    9 1    
    24   26    9 1    
    25   34    9 1    
    26   35    9 1    
    27   22   10 1    
    28   23   10 2    
    29   36   10 1    
    30   21   11 ar   
    31   22   11 ar   
    32   37   11 1    
    33   13   12 2    
    34   14   13 2    
    35   15   13 1    
    36   49   15 1    
    37   50   15 1    
    38   51   15 1    
    39   17   16 ar   
    40   19   16 ar   
    41   18   17 ar   
    42   38   18 1    
    43   39   19 1    
    44   40   20 1    
    45   24   23 1    
    46   41   25 1    
    47   42   25 1    
    48   27   26 1    
    49   43   26 1    
    50   44   26 1    
    51   45   27 1    
    52   46   27 1    
    53   47   28 1    
    54   48   28 1    
@<TRIPOS>SUBSTRUCTURE
     1 D371        1 GROUP   
@<TRIPOS>SET

