#    Name: 4ask_K0I_1_INTS_M
#    Modification time : Tue Mar 25 06:06:57 2014

@<TRIPOS>MOLECULE
4ask_K0I_1_INTS_M
   62     0    12     0     0
SMALL
NO_CHARGES


@<TRIPOS>ATOM
      1 NZ         47.3110   19.7745  -23.0095 N.4       2 LYC4        0.0000 
      2 NZ         47.7830   19.3300  -21.8310 N.4      10 LYL4        0.0000 
      3 NZ         46.8390   20.2190  -24.1880 N.4       6 LYP4        0.0000 
      4 N          46.9580   18.5590  -21.1510 N.am      1 SEC2        0.0000 
      5 N          47.7830   19.3300  -21.8310 N.am      9 SEL2        0.0000 
      6 N          46.1330   17.7880  -20.4710 N.am      5 SEP2        0.0000 
      7 NZ         48.1840   20.2885  -23.5005 N.4       2 LYC4        0.0000 
      8 NZ         49.5290   20.3580  -22.8130 N.4      10 LYL4        0.0000 
      9 N          48.1840   20.2885  -23.5005 N.am      1 SEC2        0.0000 
     10 N          49.5290   20.3580  -22.8130 N.am      9 SEL2        0.0000 
     11 N          46.8390   20.2190  -24.1880 N.am      5 SEP2        0.0000 
     12 N          50.7325   21.0930  -22.4690 N.am      1 SEC2        0.0000 
     13 N          51.9360   21.8280  -22.1250 N.am      5 SEP2        0.0000 
     14 CA         51.2130   17.9190  -21.8375 C.3       4 GLC5        0.0000 
     15 CA         49.9300   19.2240  -20.7590 C.3      12 GLL5        0.0000 
     16 CA         52.4960   16.6140  -22.9160 C.3       8 GLP5        0.0000 
     17 CA         50.9710   16.6550  -21.2320 C.3       4 GLC5        0.0000 
     18 CA         49.7830   17.7690  -20.3450 C.3      12 GLL5        0.0000 
     19 CA         52.1590   15.5410  -22.1190 C.3       8 GLP5        0.0000 
     20 Zn         51.6800   16.8220  -16.7700 Zn        3 ZIC7        0.0000 
     21 Zn         51.2090   16.0710  -17.4480 Zn       11 ZIL7        0.0000 
     22 Zn         52.1510   17.5730  -16.0920 Zn        7 ZIP7        0.0000 
     23 Zn         52.4285   16.6390  -15.6545 Zn        3 ZIC7        0.0000 
     24 Zn         52.7060   15.7050  -15.2170 Zn       11 ZIL7        0.0000 
     25 CA         53.9840   16.9425  -12.8470 C.3       4 GLC5        0.0000 
     26 CA         53.4840   15.5340  -14.1440 C.3      12 GLL5        0.0000 
     27 CA         54.4840   18.3510  -11.5500 C.3       8 GLP5        0.0000 
     28 CA         49.6195   13.8425  -21.2440 C.3       4 GLC5        0.0000 
     29 CA         48.1710   12.9280  -20.0620 C.3      12 GLL5        0.0000 
     30 CA         51.0680   14.7570  -22.4260 C.3       8 GLP5        0.0000 
     31 CA         45.9825   14.3305  -21.0675 C.3       4 GLC5        0.0000 
     32 CA         46.8740   13.5550  -19.5460 C.3      12 GLL5        0.0000 
     33 CA         45.0910   15.1060  -22.5890 C.3       8 GLP5        0.0000 
     34 CA         45.6870   15.3565  -19.1750 C.3       4 GLC5        0.0000 
     35 CA         44.5000   17.1580  -18.8040 C.3       8 GLP5        0.0000 
     36 CA         48.3612   18.1262  -19.3500 C.3       4 GLC5        0.0000 
     37 CA         46.8660   17.7560  -18.1480 C.3       8 GLP5        0.0000 
     38 CA         48.4760   16.7400  -18.4795 C.3       4 GLC5        0.0000 
     39 CA         50.4570   16.2390  -18.5450 C.3      12 GLL5        0.0000 
     40 CA         51.0395   16.0422  -14.9177 C.3       4 GLC5        0.0000 
     41 CA         51.2000   14.8370  -16.8940 C.3      12 GLL5        0.0000 
     42 CA         50.4590   17.3500  -13.5470 C.3       8 GLP5        0.0000 
     43 CA         52.0063   16.1397  -13.6785 C.3       4 GLC5        0.0000 
     44 CA         47.2808   12.5383  -21.5125 C.3       4 GLC5        0.0000 
     45 CA         47.0390   11.8350  -23.2210 C.3       8 GLP5        0.0000 
     46 CA         44.9550   10.9325  -20.2782 C.3       4 GLC5        0.0000 
     47 CA         45.9530   12.5770  -18.8320 C.3      12 GLL5        0.0000 
     48 CA         44.6110    9.3520  -21.4810 C.3       8 GLP5        0.0000 
     49 CA         45.1944   13.6648  -17.7267 C.3       4 GLC5        0.0000 
     50 CA         46.3640   11.8330  -17.7160 C.3      12 GLL5        0.0000 
     51 CA         44.0000   14.8800  -17.0010 C.3       8 GLP5        0.0000 
     52 CA         44.0978   13.4490  -18.0068 C.3       4 GLC5        0.0000 
     53 CA         44.6450   12.4490  -19.3190 C.3      12 GLL5        0.0000 
     54 CA         42.2855    9.9605  -18.6525 C.3       4 GLC5        0.0000 
     55 CA         43.7460   11.5870  -18.7060 C.3      12 GLL5        0.0000 
     56 CA         40.6270    8.7050  -19.1520 C.3       8 GLP5        0.0000 
     57 CA         43.9748   12.5407  -16.6658 C.3       4 GLC5        0.0000 
     58 CA         44.1420   10.8450  -17.6000 C.3      12 GLL5        0.0000 
     59 CA         43.1580   14.1730  -15.9780 C.3       8 GLP5        0.0000 
     60 CA         44.4977    9.7500  -18.9805 C.3       4 GLC5        0.0000 
     61 CA         45.4410   10.9720  -17.1070 C.3      12 GLL5        0.0000 
     62 CA         44.3030    8.4060  -20.3310 C.3       8 GLP5        0.0000 
@<TRIPOS>BOND
@<TRIPOS>SUBSTRUCTURE
     1 SEC2        4 GROUP        1 X    SEC  0     ROOT SEC X 2
     2 LYC4        1 GROUP        1 X    LYC  0     **** LYC X 4
     3 ZIC7       20 GROUP        1 X    ZIC  0     **** ZIC X 5
     4 GLC5       14 GROUP        1 X    GLC  0     **** GLC X 6
     5 SEP2        6 GROUP        1 Y    SEP  0     ROOT SEP Y 9
     6 LYP4        3 GROUP        1 Y    LYP  0     **** LYP Y 11
     7 ZIP7       22 GROUP        1 Y    ZIP  0     **** ZIP Y 12
     8 GLP5       16 GROUP        1 Y    GLP  0     **** GLP Y 13
     9 SEL2        5 GROUP        1 Z    SEL  0     ROOT SEL Z 16
    10 LYL4        2 GROUP        1 Z    LYL  0     **** LYL Z 18
    11 ZIL7       21 GROUP        1 Z    ZIL  0     **** ZIL Z 19
    12 GLL5       15 GROUP        1 Z    GLL  0     **** GLL Z 20
@<TRIPOS>SET

