#    Name: 4ask_K0I_1_ligand
#    Modification time : Tue Mar 25 06:06:57 2014

@<TRIPOS>MOLECULE
4ask_K0I_1_ligand
   51    54     1     0     0
SMALL
NO_CHARGES


@<TRIPOS>ATOM
      1 O2         47.7830   19.3300  -21.8310 O.co2     1 K0I2639     0.0000 
      2 C1         48.9660   19.6350  -21.8470 C.2       1 K0I2639     0.0000 
      3 O1         49.5290   20.3580  -22.8130 O.co2     1 K0I2639     0.0000 
      4 C2         49.9300   19.2240  -20.7590 C.3       1 K0I2639     0.0000 
      5 C3         49.7830   17.7690  -20.3450 C.3       1 K0I2639     0.0000 
      6 N1         50.4600   17.4790  -19.0920 N.pl3     1 K0I2639     0.0000 
      7 C4         50.4570   16.2390  -18.5450 C.ar      1 K0I2639     0.0000 
      8 N3         51.2090   16.0710  -17.4480 N.ar      1 K0I2639     0.0000 
      9 C7         51.2000   14.8370  -16.8940 C.ar      1 K0I2639     0.0000 
     10 C8         52.0400   14.6320  -15.6830 C.ar      1 K0I2639     0.0000 
     11 N4         52.7060   15.7050  -15.2170 N.ar      1 K0I2639     0.0000 
     12 C12        53.4840   15.5340  -14.1440 C.ar      1 K0I2639     0.0000 
     13 C11        53.6230   14.3250  -13.4760 C.ar      1 K0I2639     0.0000 
     14 C10        52.9260   13.2320  -13.9630 C.ar      1 K0I2639     0.0000 
     15 C9         52.1220   13.3710  -15.0790 C.ar      1 K0I2639     0.0000 
     16 N2         50.5060   13.7770  -17.3420 N.ar      1 K0I2639     0.0000 
     17 C6         49.7810   13.9730  -18.4460 C.ar      1 K0I2639     0.0000 
     18 C5         49.7150   15.2090  -19.0770 C.ar      1 K0I2639     0.0000 
     19 N5         49.0270   12.8880  -18.8750 N.3       1 K0I2639     0.0000 
     20 C22        48.1710   12.9280  -20.0620 C.3       1 K0I2639     0.0000 
     21 C21        46.8740   13.5550  -19.5460 C.3       1 K0I2639     0.0000 
     22 C20        45.9530   12.5770  -18.8320 C.ar      1 K0I2639     0.0000 
     23 C15        46.3640   11.8330  -17.7160 C.ar      1 K0I2639     0.0000 
     24 C14        47.7490   11.9360  -17.1090 C.3       1 K0I2639     0.0000 
     25 C13        48.9310   11.6860  -18.0540 C.3       1 K0I2639     0.0000 
     26 C19        44.6450   12.4490  -19.3190 C.ar      1 K0I2639     0.0000 
     27 C18        43.7460   11.5870  -18.7060 C.ar      1 K0I2639     0.0000 
     28 C17        44.1420   10.8450  -17.6000 C.ar      1 K0I2639     0.0000 
     29 C16        45.4410   10.9720  -17.1070 C.ar      1 K0I2639     0.0000 
     30 H          49.7756   19.8640  -19.8753 H         1 K0I2639     0.0000 
     31 H          50.9625   19.3944  -21.1044 H         1 K0I2639     0.0000 
     32 H          50.1820   17.1387  -21.1600 H         1 K0I2639     0.0000 
     33 H          48.7045   17.5416  -20.2684 H         1 K0I2639     0.0000 
     34 H          50.9485   18.2733  -18.6346 H         1 K0I2639     0.0000 
     35 H          54.0376   16.3592  -13.7632 H         1 K0I2639     0.0000 
     36 H          54.2170   14.2463  -12.6568 H         1 K0I2639     0.0000 
     37 H          53.0070   12.3190  -13.4946 H         1 K0I2639     0.0000 
     38 H          51.6016   12.5852  -15.4571 H         1 K0I2639     0.0000 
     39 H          49.1379   15.3416  -19.9012 H         1 K0I2639     0.0000 
     40 H          47.9582   11.9475  -20.4236 H         1 K0I2639     0.0000 
     41 H          48.5804   13.5591  -20.8180 H         1 K0I2639     0.0000 
     42 H          46.3339   14.0036  -20.3971 H         1 K0I2639     0.0000 
     43 H          47.1279   14.3795  -18.8582 H         1 K0I2639     0.0000 
     44 H          47.8254   11.2210  -16.2575 H         1 K0I2639     0.0000 
     45 H          47.8718   12.9469  -16.6561 H         1 K0I2639     0.0000 
     46 H          49.8150   11.5408  -17.4624 H         1 K0I2639     0.0000 
     47 H          48.7141   10.8186  -18.6484 H         1 K0I2639     0.0000 
     48 H          44.3542   13.0016  -20.1387 H         1 K0I2639     0.0000 
     49 H          42.7884   11.4973  -19.0694 H         1 K0I2639     0.0000 
     50 H          43.4819   10.2038  -17.1446 H         1 K0I2639     0.0000 
     51 H          45.7296   10.4240  -16.2803 H         1 K0I2639     0.0000 
@<TRIPOS>BOND
     1    2    1 ar   
     2    3    2 ar   
     3    4    2 1    
     4    5    4 1    
     5   30    4 1    
     6   31    4 1    
     7    6    5 1    
     8   32    5 1    
     9   33    5 1    
    10    7    6 1    
    11   34    6 1    
    12    8    7 ar   
    13   18    7 ar   
    14    9    8 ar   
    15   10    9 1    
    16   16    9 ar   
    17   11   10 ar   
    18   15   10 ar   
    19   12   11 ar   
    20   13   12 ar   
    21   35   12 1    
    22   14   13 ar   
    23   36   13 1    
    24   15   14 ar   
    25   37   14 1    
    26   38   15 1    
    27   17   16 ar   
    28   18   17 ar   
    29   19   17 1    
    30   39   18 1    
    31   20   19 1    
    32   25   19 1    
    33   21   20 1    
    34   40   20 1    
    35   41   20 1    
    36   22   21 1    
    37   42   21 1    
    38   43   21 1    
    39   23   22 ar   
    40   26   22 ar   
    41   24   23 1    
    42   29   23 ar   
    43   25   24 1    
    44   44   24 1    
    45   45   24 1    
    46   46   25 1    
    47   47   25 1    
    48   27   26 ar   
    49   48   26 1    
    50   28   27 ar   
    51   49   27 1    
    52   29   28 ar   
    53   50   28 1    
    54   51   29 1    
@<TRIPOS>SUBSTRUCTURE
     1 K0I2639     1 GROUP   
@<TRIPOS>SET

