#    Name: 3uy4_AMP_1_INTS_M
#    Modification time : Mon Mar 24 23:43:53 2014

@<TRIPOS>MOLECULE
3uy4_AMP_1_INTS_M
   59     0     9     0     0
SMALL
NO_CHARGES


@<TRIPOS>ATOM
      1 N          12.5050   80.3250   12.8740 N.am      2 SEC2        0.0000 
      2 N          13.2600   81.0020   14.2760 N.am      8 SEL2        0.0000 
      3 N          11.7500   79.6480   11.4720 N.am      5 SEP2        0.0000 
      4 N          15.4185   78.0780   15.6255 N.am      2 SEC2        0.0000 
      5 N          14.9820   79.4930   15.4650 N.am      8 SEL2        0.0000 
      6 N          15.8550   76.6630   15.7860 N.am      5 SEP2        0.0000 
      7 N          12.4300   79.1105   12.8170 N.am      2 SEC2        0.0000 
      8 N          13.1100   78.5730   14.1620 N.am      8 SEL2        0.0000 
      9 N          12.6970   77.3575   14.6650 N.am      2 SEC2        0.0000 
     10 N          12.2840   76.1420   15.1680 N.am      5 SEP2        0.0000 
     11 CA         10.4180   79.6910   14.3965 C.3       3 GLC5        0.0000 
     12 CA         11.1790   79.7090   16.1040 C.3       9 GLL5        0.0000 
     13 CA          9.6570   79.6730   12.6890 C.3       6 GLP5        0.0000 
     14 N           9.5340   80.9800   20.5735 N.am      2 SEC2        0.0000 
     15 N           9.7810   81.2440   19.1740 N.am      8 SEL2        0.0000 
     16 N           9.2870   80.7160   21.9730 N.am      5 SEP2        0.0000 
     17 N          10.7405   80.8020   21.2250 N.am      2 SEC2        0.0000 
     18 N          12.1940   80.8880   20.4770 N.am      8 SEL2        0.0000 
     19 O          13.4315   81.3190   20.1540 O.2       1 ALC1        0.0000 
     20 O          12.1940   80.8880   20.4770 O.2       7 ALL1        0.0000 
     21 O          14.6690   81.7500   19.8310 O.2       4 ALP1        0.0000 
     22 CA          9.5975   78.3305   19.3525 C.3       3 GLC5        0.0000 
     23 CA         11.4320   78.8410   19.4110 C.3       9 GLL5        0.0000 
     24 CA          7.7630   77.8200   19.2940 C.3       6 GLP5        0.0000 
     25 CA         14.8950   75.6595   24.0440 C.3       3 GLC5        0.0000 
     26 CA         13.9490   75.4910   22.0150 C.3       9 GLL5        0.0000 
     27 CA         15.8410   75.8280   26.0730 C.3       6 GLP5        0.0000 
     28 CA         13.2770   73.6535   22.9520 C.3       3 GLC5        0.0000 
     29 CA         12.6050   71.8160   23.8890 C.3       6 GLP5        0.0000 
     30 O          15.3465   73.7105   23.0320 O.2       1 ALC1        0.0000 
     31 O          15.0840   74.7580   22.0690 O.2       7 ALL1        0.0000 
     32 O          15.6090   72.6630   23.9950 O.2       4 ALP1        0.0000 
     33 O          16.1170   74.8715   21.1295 O.2       1 ALC1        0.0000 
     34 O          17.1500   74.9850   20.1900 O.2       4 ALP1        0.0000 
     35 N          13.1840   74.5860   24.1045 N.am      2 SEC2        0.0000 
     36 N          12.9980   75.4230   22.9790 N.am      8 SEL2        0.0000 
     37 N          13.3700   73.7490   25.2300 N.am      5 SEP2        0.0000 
     38 CA         11.7430   74.4740   21.6320 C.3       3 GLC5        0.0000 
     39 CA         11.8710   76.1570   22.9220 C.3       9 GLL5        0.0000 
     40 CA         11.6150   72.7910   20.3420 C.3       6 GLP5        0.0000 
     41 CA         11.0045   78.0950   22.9245 C.3       3 GLC5        0.0000 
     42 CA         10.1380   80.0330   22.9270 C.3       6 GLP5        0.0000 
     43 CA         12.6120   75.9865   24.7110 C.3       3 GLC5        0.0000 
     44 CA         13.3530   75.8160   26.5000 C.3       6 GLP5        0.0000 
     45 CA         11.5095   74.1920   23.5295 C.3       3 GLC5        0.0000 
     46 CA         11.1480   72.2270   24.1370 C.3       6 GLP5        0.0000 
     47 CA         11.2990   78.5960   21.9065 C.3       3 GLC5        0.0000 
     48 CA         12.4600   77.1590   20.8860 C.3       9 GLL5        0.0000 
     49 CA         13.8850   78.1665   22.0855 C.3       3 GLC5        0.0000 
     50 CA         15.3100   79.1740   23.2850 C.3       6 GLP5        0.0000 
     51 CA         10.9350   77.8388   16.2415 C.3       3 GLC5        0.0000 
     52 CA         10.4970   79.7120   17.4480 C.3       9 GLL5        0.0000 
     53 CA         11.0320   75.9670   15.7070 C.3       6 GLP5        0.0000 
     54 CA          9.2287   79.0570   18.5998 C.3       3 GLC5        0.0000 
     55 CA         10.9205   79.7887   21.1250 C.3       3 GLC5        0.0000 
     56 CA         15.4515   77.0333   21.6340 C.3       3 GLC5        0.0000 
     57 CA         17.0740   78.1240   21.8230 C.3       6 GLP5        0.0000 
     58 CA         12.3798   74.6709   20.7537 C.3       3 GLC5        0.0000 
     59 CA         13.7090   76.3940   20.8750 C.3       9 GLL5        0.0000 
@<TRIPOS>BOND
@<TRIPOS>SUBSTRUCTURE
     1 ALC1       19 GROUP        1 X    ALC  0     ROOT ALC X 1
     2 SEC2        1 GROUP        1 X    SEC  0     **** SEC X 2
     3 GLC5       11 GROUP        1 X    GLC  0     **** GLC X 6
     4 ALP1       21 GROUP        1 Y    ALP  0     ROOT ALP Y 8
     5 SEP2        3 GROUP        1 Y    SEP  0     **** SEP Y 9
     6 GLP5       13 GROUP        1 Y    GLP  0     **** GLP Y 13
     7 ALL1       20 GROUP        1 Z    ALL  0     ROOT ALL Z 15
     8 SEL2        2 GROUP        1 Z    SEL  0     **** SEL Z 16
     9 GLL5       12 GROUP        1 Z    GLL  0     **** GLL Z 20
@<TRIPOS>SET

