#    Name: 3uy4_AMP_1_ligand
#    Modification time : Mon Mar 24 23:43:53 2014

@<TRIPOS>MOLECULE
3uy4_AMP_1_ligand
   35    37     1     0     0
SMALL
NO_CHARGES


@<TRIPOS>ATOM
      1 P          13.5690   79.7230   15.0080 P.3       1 AMP301      0.0000 
      2 O1P        13.2600   81.0020   14.2760 O.co2     1 AMP301      0.0000 
      3 O2P        14.9820   79.4930   15.4650 O.co2     1 AMP301      0.0000 
      4 O3P        13.1100   78.5730   14.1620 O.co2     1 AMP301      0.0000 
      5 O5'        12.5880   79.5770   16.2520 O.3       1 AMP301      0.0000 
      6 C5'        11.1790   79.7090   16.1040 C.3       1 AMP301      0.0000 
      7 C4'        10.4970   79.7120   17.4480 C.3       1 AMP301      0.0000 
      8 O4'        10.8730   78.4960   18.1590 O.3       1 AMP301      0.0000 
      9 C3'        10.8920   80.8760   18.3630 C.3       1 AMP301      0.0000 
     10 O3'         9.7810   81.2440   19.1740 O.3       1 AMP301      0.0000 
     11 C2'        11.9740   80.2480   19.2350 C.3       1 AMP301      0.0000 
     12 O2'        12.1940   80.8880   20.4770 O.3       1 AMP301      0.0000 
     13 C1'        11.4320   78.8410   19.4110 C.3       1 AMP301      0.0000 
     14 N9         12.4620   77.8700   19.7600 N.pl3     1 AMP301      0.0000 
     15 C8         13.6160   77.6450   19.1000 C.2       1 AMP301      0.0000 
     16 N7         14.3770   76.7330   19.7580 N.2       1 AMP301      0.0000 
     17 C5         13.7090   76.3940   20.8750 C.ar      1 AMP301      0.0000 
     18 C6         13.9490   75.4910   22.0150 C.ar      1 AMP301      0.0000 
     19 N6         15.0840   74.7580   22.0690 N.pl3     1 AMP301      0.0000 
     20 N1         12.9980   75.4230   22.9790 N.ar      1 AMP301      0.0000 
     21 C2         11.8710   76.1570   22.9220 C.ar      1 AMP301      0.0000 
     22 N3         11.5900   77.0080   21.9130 N.ar      1 AMP301      0.0000 
     23 C4         12.4600   77.1590   20.8860 C.ar      1 AMP301      0.0000 
     24 H          10.7568   78.8819   15.5082 H         1 AMP301      0.0000 
     25 H          10.9140   80.6453   15.5840 H         1 AMP301      0.0000 
     26 H           9.4282   79.7281   17.3178 H         1 AMP301      0.0000 
     27 H          11.3018   81.6367   17.7942 H         1 AMP301      0.0000 
     28 H          12.8609   80.1602   18.6253 H         1 AMP301      0.0000 
     29 H          10.6635   78.8739   20.1649 H         1 AMP301      0.0000 
     30 H          13.8749   78.0776   18.2604 H         1 AMP301      0.0000 
     31 H          15.8952   75.1719   21.6559 H         1 AMP301      0.0000 
     32 H          15.0115   73.8670   22.5171 H         1 AMP301      0.0000 
     33 H          11.1638   76.0623   23.7133 H         1 AMP301      0.0000 
     34 H           8.9886   81.1918   18.5663 H         1 AMP301      0.0000 
     35 H          13.1019   81.2998   20.3986 H         1 AMP301      0.0000 
@<TRIPOS>BOND
     1    2    1 ar   
     2    3    1 ar   
     3    4    1 ar   
     4    5    1 1    
     5    6    5 1    
     6    7    6 1    
     7   24    6 1    
     8   25    6 1    
     9    8    7 1    
    10    9    7 1    
    11   26    7 1    
    12   13    8 1    
    13   10    9 1    
    14   11    9 1    
    15   27    9 1    
    16   34   10 1    
    17   12   11 1    
    18   13   11 1    
    19   28   11 1    
    20   35   12 1    
    21   14   13 1    
    22   29   13 1    
    23   15   14 1    
    24   23   14 1    
    25   16   15 2    
    26   30   15 1    
    27   17   16 1    
    28   18   17 ar   
    29   23   17 ar   
    30   19   18 1    
    31   20   18 ar   
    32   31   19 1    
    33   32   19 1    
    34   21   20 ar   
    35   22   21 ar   
    36   33   21 1    
    37   23   22 ar   
@<TRIPOS>SUBSTRUCTURE
     1 AMP301      1 GROUP   
@<TRIPOS>SET

