#    Name: 3ffi_3OB_1_INTS_M
#    Modification time : Tue Mar 25 03:52:35 2014

@<TRIPOS>MOLECULE
3ffi_3OB_1_INTS_M
   95     0     9     0     0
SMALL
NO_CHARGES


@<TRIPOS>ATOM
      1 CA         49.5730   61.1520   18.4800 C.3       3 GLC5        0.0000 
      2 CA         48.1230   61.7030   19.8270 C.3       9 GLL5        0.0000 
      3 CA         51.0230   60.6010   17.1330 C.3       6 GLP5        0.0000 
      4 CA         48.3790   60.9710   17.4010 C.3       3 GLC5        0.0000 
      5 CA         47.8470   62.2710   18.5980 C.3       9 GLL5        0.0000 
      6 CA         48.9110   59.6710   16.2040 C.3       6 GLP5        0.0000 
      7 CA         48.1370   66.0930   18.0010 C.3       3 GLC5        0.0000 
      8 CA         48.3460   64.4440   19.4940 C.3       9 GLL5        0.0000 
      9 CA         47.9280   67.7420   16.5080 C.3       6 GLP5        0.0000 
     10 CA         47.5850   65.2030   22.3470 C.3       3 GLC5        0.0000 
     11 CA         49.0150   64.6880   21.8260 C.3       9 GLL5        0.0000 
     12 CA         46.1550   65.7180   22.8680 C.3       6 GLP5        0.0000 
     13 CA         50.4380   66.0865   22.1400 C.3       3 GLC5        0.0000 
     14 CA         51.8610   67.4850   22.4540 C.3       6 GLP5        0.0000 
     15 CA         49.8920   64.0935   23.4390 C.3       3 GLC5        0.0000 
     16 CA         50.7690   63.4990   25.0520 C.3       6 GLP5        0.0000 
     17 CA         50.4720   63.9875   21.1455 C.3       3 GLC5        0.0000 
     18 CA         51.9290   63.2870   20.4650 C.3       6 GLP5        0.0000 
     19 CA         47.7370   58.0315   19.7845 C.3       3 GLC5        0.0000 
     20 CA         47.9750   59.9890   20.0030 C.3       9 GLL5        0.0000 
     21 CA         47.4990   56.0740   19.5660 C.3       6 GLP5        0.0000 
     22 CA         48.4430   59.8300   18.1035 C.3       3 GLC5        0.0000 
     23 CA         46.2375   60.2400   20.2870 C.3       3 GLC5        0.0000 
     24 CA         44.5000   60.4910   20.5710 C.3       6 GLP5        0.0000 
     25 CA         48.4250   59.4335   21.5410 C.3       3 GLC5        0.0000 
     26 CA         48.8750   58.8780   23.0790 C.3       6 GLP5        0.0000 
     27 CA         48.1185   65.7765   16.2960 C.3       3 GLC5        0.0000 
     28 CA         48.3090   63.8110   16.0840 C.3       9 GLL5        0.0000 
     29 O          50.0840   62.5070   12.5780 O.2       1 ALC1        0.0000 
     30 O          49.5540   63.0090   13.7630 O.2       7 ALL1        0.0000 
     31 O          50.6140   62.0050   11.3930 O.2       4 ALP1        0.0000 
     32 CA         48.0835   65.2890   14.5825 C.3       3 GLC5        0.0000 
     33 CA         47.5530   63.2930   15.0290 C.3       9 GLL5        0.0000 
     34 CA         48.6140   67.2850   14.1360 C.3       6 GLP5        0.0000 
     35 CA         47.2195   60.8105   15.9145 C.3       3 GLC5        0.0000 
     36 CA         45.5280   61.9500   15.6250 C.3       9 GLL5        0.0000 
     37 CA         44.5310   62.0785   14.1030 C.3       3 GLC5        0.0000 
     38 CA         43.5340   62.2070   12.5810 C.3       6 GLP5        0.0000 
     39 CA         44.4440   61.5405   17.0065 C.3       3 GLC5        0.0000 
     40 CA         43.3600   61.1310   18.3880 C.3       6 GLP5        0.0000 
     41 CA         46.9645   65.8075   14.4640 C.3       3 GLC5        0.0000 
     42 CA         45.3150   64.3300   14.7920 C.3       9 GLL5        0.0000 
     43 CA         44.4245   63.2685   13.6865 C.3       3 GLC5        0.0000 
     44 CA         44.0500   66.0070   15.2490 C.3       3 GLC5        0.0000 
     45 CA         42.7850   67.6840   15.7060 C.3       6 GLP5        0.0000 
     46 CA         45.2035   65.8405   13.7505 C.3       3 GLC5        0.0000 
     47 CA         45.0920   67.3510   12.7090 C.3       6 GLP5        0.0000 
     48 CA         51.3725   61.6740   14.7015 C.3       3 GLC5        0.0000 
     49 CA         51.7860   63.6210   14.6200 C.3       9 GLL5        0.0000 
     50 CA         50.9590   59.7270   14.7830 C.3       6 GLP5        0.0000 
     51 CA         53.2400   62.7495   15.1420 C.3       3 GLC5        0.0000 
     52 CA         54.6940   61.8780   15.6640 C.3       6 GLP5        0.0000 
     53 N          51.4200   64.9995   11.2300 N.am      2 SEC2        0.0000 
     54 N          51.7240   64.7630   12.5780 N.am      8 SEL2        0.0000 
     55 N          51.1160   65.2360    9.8820 N.am      5 SEP2        0.0000 
     56 CA         51.4070   68.2360   17.8230 C.3       3 GLC5        0.0000 
     57 CA         52.2280   67.3180   16.3390 C.3       9 GLL5        0.0000 
     58 CA         50.5860   69.1540   19.3070 C.3       6 GLP5        0.0000 
     59 CA         53.3650   65.4260   17.7730 C.3       3 GLC5        0.0000 
     60 CA         52.8750   66.0950   15.6860 C.3       9 GLL5        0.0000 
     61 CA         53.8550   64.7570   19.8600 C.3       6 GLP5        0.0000 
     62 CA         54.0195   64.6355   15.6595 C.3       3 GLC5        0.0000 
     63 CA         55.1640   63.1760   15.6330 C.3       6 GLP5        0.0000 
     64 CA         52.9440   71.8335   16.7400 C.3       3 GLC5        0.0000 
     65 CA         52.1160   70.9380   15.2590 C.3       9 GLL5        0.0000 
     66 CA         53.7720   72.7290   18.2210 C.3       6 GLP5        0.0000 
     67 CA         53.0790   70.6155   17.4640 C.3       3 GLC5        0.0000 
     68 CA         52.0900   69.7860   16.0290 C.3       9 GLL5        0.0000 
     69 CA         54.0680   71.4450   18.8990 C.3       6 GLP5        0.0000 
     70 CA         46.6887   64.7353   19.7105 C.3       3 GLC5        0.0000 
     71 CA         44.8950   65.3170   19.3080 C.3       6 GLP5        0.0000 
     72 CA         50.1361   62.8625   20.3930 C.3       3 GLC5        0.0000 
     73 CA         48.6190   63.8630   20.7320 C.3       9 GLL5        0.0000 
     74 CA         46.3997   64.1372   18.9108 C.3       3 GLC5        0.0000 
     75 CA         50.0415   63.6655   19.7133 C.3       3 GLC5        0.0000 
     76 CA         47.9620   63.6440   18.4290 C.3       9 GLL5        0.0000 
     77 CA         48.4210   61.6115   15.8803 C.3       3 GLC5        0.0000 
     78 CA         50.5138   62.1577   16.2500 C.3       3 GLC5        0.0000 
     79 CA         49.7140   63.9190   15.9430 C.3       9 GLL5        0.0000 
     80 CA         49.3092   65.4998   14.7515 C.3       3 GLC5        0.0000 
     81 CA         50.6025   67.5370   13.9250 C.3       3 GLC5        0.0000 
     82 CA         52.6990   67.1310   13.3600 C.3       9 GLL5        0.0000 
     83 CA         54.3585   68.3590   14.0170 C.3       3 GLC5        0.0000 
     84 CA         52.4830   68.4470   14.0680 C.3       9 GLL5        0.0000 
     85 CA         56.1260   68.9290   14.3200 C.3       6 GLP5        0.0000 
     86 CA         50.4002   68.1300   15.5657 C.3       3 GLC5        0.0000 
     87 CA         52.2750   68.5340   15.4360 C.3       9 GLL5        0.0000 
     88 CA         48.5490   68.3340   15.2440 C.3       6 GLP5        0.0000 
     89 CA         54.1543   69.0445   15.0263 C.3       3 GLC5        0.0000 
     90 CA         50.7793   70.7260   12.5888 C.3       3 GLC5        0.0000 
     91 CA         52.5140   69.6100   13.2950 C.3       9 GLL5        0.0000 
     92 CA         49.1370   71.2210   11.5860 C.3       6 GLP5        0.0000 
     93 CA         54.2737   69.5800   13.9558 C.3       3 GLC5        0.0000 
     94 CA         52.3290   70.8520   13.8880 C.3       9 GLL5        0.0000 
     95 CA         50.3260   69.3480   15.4440 C.3       3 GLC5        0.0000 
@<TRIPOS>BOND
@<TRIPOS>SUBSTRUCTURE
     1 ALC1       29 GROUP        1 X    ALC  0     ROOT ALC X 1
     2 SEC2       53 GROUP        1 X    SEC  0     **** SEC X 2
     3 GLC5        1 GROUP        1 X    GLC  0     **** GLC X 6
     4 ALP1       31 GROUP        1 Y    ALP  0     ROOT ALP Y 8
     5 SEP2       55 GROUP        1 Y    SEP  0     **** SEP Y 9
     6 GLP5        3 GROUP        1 Y    GLP  0     **** GLP Y 13
     7 ALL1       30 GROUP        1 Z    ALL  0     ROOT ALL Z 15
     8 SEL2       54 GROUP        1 Z    SEL  0     **** SEL Z 16
     9 GLL5        2 GROUP        1 Z    GLL  0     **** GLL Z 20
@<TRIPOS>SET

