#    Name: 3ffi_3OB_1_ligand
#    Modification time : Tue Mar 25 03:52:36 2014

@<TRIPOS>MOLECULE
3ffi_3OB_1_ligand
   56    59     1     0     0
SMALL
NO_CHARGES


@<TRIPOS>ATOM
      1 C1         48.6190   63.8630   20.7320 C.ar      1 3OB561      0.0000 
      2 C2         48.5080   62.4830   20.8980 C.ar      1 3OB561      0.0000 
      3 C3         48.1230   61.7030   19.8270 C.ar      1 3OB561      0.0000 
      4 C4         47.8470   62.2710   18.5980 C.ar      1 3OB561      0.0000 
      5 C5         47.9620   63.6440   18.4290 C.ar      1 3OB561      0.0000 
      6 C6         48.3460   64.4440   19.4940 C.ar      1 3OB561      0.0000 
      7 O7         47.6850   64.2140   17.2260 O.3       1 3OB561      0.0000 
      8 C8         49.0150   64.6880   21.8260 C.1       1 3OB561      0.0000 
      9 CL9        47.9750   59.9890   20.0030 Cl        1 3OB561      0.0000 
     10 C10        48.3090   63.8110   16.0840 C.2       1 3OB561      0.0000 
     11 C11        49.7140   63.9190   15.9430 C.2       1 3OB561      0.0000 
     12 C12        50.2950   63.5100   14.7910 C.2       1 3OB561      0.0000 
     13 N13        49.5540   63.0090   13.7630 N.am      1 3OB561      0.0000 
     14 C14        48.2120   62.8890   13.8460 C.2       1 3OB561      0.0000 
     15 C15        47.5530   63.2930   15.0290 C.2       1 3OB561      0.0000 
     16 N16        46.1530   63.1870   15.1500 N.pl3     1 3OB561      0.0000 
     17 O17        47.5830   62.4340   12.8970 O.2       1 3OB561      0.0000 
     18 C18        45.5280   61.9500   15.6250 C.3       1 3OB561      0.0000 
     19 C19        45.3150   64.3300   14.7920 C.3       1 3OB561      0.0000 
     20 C20        51.7860   63.6210   14.6200 C.3       1 3OB561      0.0000 
     21 N21        49.3260   65.3520   22.6920 N.1       1 3OB561      0.0000 
     22 C22        52.0170   64.8270   13.7520 C.2       1 3OB561      0.0000 
     23 O23        51.7240   64.7630   12.5780 O.2       1 3OB561      0.0000 
     24 N24        52.5050   65.9780   14.2560 N.am      1 3OB561      0.0000 
     25 C25        52.6990   67.1310   13.3600 C.3       1 3OB561      0.0000 
     26 C26        52.2280   67.3180   16.3390 C.3       1 3OB561      0.0000 
     27 C27        52.8750   66.0950   15.6860 C.3       1 3OB561      0.0000 
     28 C28        52.2750   68.5340   15.4360 C.ar      1 3OB561      0.0000 
     29 C29        52.4830   68.4470   14.0680 C.ar      1 3OB561      0.0000 
     30 C30        52.5140   69.6100   13.2950 C.ar      1 3OB561      0.0000 
     31 C31        52.3290   70.8520   13.8880 C.ar      1 3OB561      0.0000 
     32 C32        52.1160   70.9380   15.2590 C.ar      1 3OB561      0.0000 
     33 C33        52.0900   69.7860   16.0290 C.ar      1 3OB561      0.0000 
     34 H          48.7116   62.0591   21.8082 H         1 3OB561      0.0000 
     35 H          47.5564   61.6795   17.8073 H         1 3OB561      0.0000 
     36 H          48.4301   65.4601   19.3756 H         1 3OB561      0.0000 
     37 H          50.2589   64.3059   16.7201 H         1 3OB561      0.0000 
     38 H          50.0464   62.7091   12.8830 H         1 3OB561      0.0000 
     39 H          52.1641   62.7413   14.1323 H         1 3OB561      0.0000 
     40 H          52.2536   63.7638   15.5768 H         1 3OB561      0.0000 
     41 H          52.0020   67.0705   12.5075 H         1 3OB561      0.0000 
     42 H          53.7193   67.1189   12.9416 H         1 3OB561      0.0000 
     43 H          52.7509   67.5382   17.2752 H         1 3OB561      0.0000 
     44 H          51.1864   67.0820   16.5795 H         1 3OB561      0.0000 
     45 H          53.9639   66.1817   15.7918 H         1 3OB561      0.0000 
     46 H          52.5570   65.2002   16.2361 H         1 3OB561      0.0000 
     47 H          52.6752   69.5422   12.2799 H         1 3OB561      0.0000 
     48 H          52.3494   71.7049   13.3159 H         1 3OB561      0.0000 
     49 H          51.9779   71.8572   15.7001 H         1 3OB561      0.0000 
     50 H          51.9336   69.8475   17.0461 H         1 3OB561      0.0000 
     51 H          45.7424   61.1740   15.0318 H         1 3OB561      0.0000 
     52 H          45.8348   61.7086   16.5457 H         1 3OB561      0.0000 
     53 H          44.5315   62.0266   15.6588 H         1 3OB561      0.0000 
     54 H          45.5254   65.1336   15.3488 H         1 3OB561      0.0000 
     55 H          45.4379   64.5956   13.8358 H         1 3OB561      0.0000 
     56 H          44.3430   64.1320   14.9186 H         1 3OB561      0.0000 
@<TRIPOS>BOND
     1    2    1 ar   
     2    6    1 ar   
     3    8    1 1    
     4    3    2 ar   
     5   34    2 1    
     6    4    3 ar   
     7    9    3 1    
     8    5    4 ar   
     9   35    4 1    
    10    6    5 ar   
    11    7    5 1    
    12   36    6 1    
    13   10    7 1    
    14   21    8 3    
    15   11   10 1    
    16   15   10 2    
    17   12   11 2    
    18   37   11 1    
    19   13   12 1    
    20   20   12 1    
    21   14   13 am   
    22   38   13 1    
    23   15   14 1    
    24   17   14 2    
    25   16   15 1    
    26   18   16 1    
    27   19   16 1    
    28   51   18 1    
    29   52   18 1    
    30   53   18 1    
    31   54   19 1    
    32   55   19 1    
    33   56   19 1    
    34   22   20 1    
    35   39   20 1    
    36   40   20 1    
    37   23   22 2    
    38   24   22 am   
    39   25   24 1    
    40   27   24 1    
    41   29   25 1    
    42   41   25 1    
    43   42   25 1    
    44   27   26 1    
    45   28   26 1    
    46   43   26 1    
    47   44   26 1    
    48   45   27 1    
    49   46   27 1    
    50   29   28 ar   
    51   33   28 ar   
    52   30   29 ar   
    53   31   30 ar   
    54   47   30 1    
    55   32   31 ar   
    56   48   31 1    
    57   33   32 ar   
    58   49   32 1    
    59   50   33 1    
@<TRIPOS>SUBSTRUCTURE
     1 3OB561      1 GROUP   
@<TRIPOS>SET

