#    Name: 4aqc_88A_2_INTS_M
#    Modification time : Tue Mar 25 06:01:22 2014

@<TRIPOS>MOLECULE
4aqc_88A_2_INTS_M
   52     0     9     0     0
SMALL
NO_CHARGES


@<TRIPOS>ATOM
      1 CA         77.0610  109.8700   25.0830 C.3       3 GLC5        0.0000 
      2 CA         78.3510  109.8170   23.3520 C.3       9 GLL5        0.0000 
      3 CA         75.7710  109.9230   26.8140 C.3       6 GLP5        0.0000 
      4 CA         78.9245  111.4910   24.2025 C.3       3 GLC5        0.0000 
      5 CA         79.4980  113.1650   25.0530 C.3       6 GLP5        0.0000 
      6 CA         76.8740  112.0385   22.9860 C.3       3 GLC5        0.0000 
      7 CA         78.4970  110.7830   22.3470 C.3       9 GLL5        0.0000 
      8 CA         75.2510  113.2940   23.6250 C.3       6 GLP5        0.0000 
      9 CA         78.8505  110.0125   19.7485 C.3       3 GLC5        0.0000 
     10 CA         79.6880  110.8860   21.5860 C.3       9 GLL5        0.0000 
     11 CA         78.0130  109.1390   17.9110 C.3       6 GLP5        0.0000 
     12 N          77.5445  114.4240   16.8700 N.am      2 SEC2        0.0000 
     13 N          77.7550  113.6340   18.2270 N.am      8 SEL2        0.0000 
     14 N          77.3340  115.2140   15.5130 N.am      5 SEP2        0.0000 
     15 CA         79.1830  115.5290   17.5110 C.3       3 GLC5        0.0000 
     16 CA         80.1540  113.8140   18.4780 C.3       9 GLL5        0.0000 
     17 CA         78.2120  117.2440   16.5440 C.3       6 GLP5        0.0000 
     18 O          75.2605  113.2755   17.3085 O.2       1 ALC1        0.0000 
     19 O          75.5770  112.8710   18.6400 O.2       7 ALL1        0.0000 
     20 O          74.9440  113.6800   15.9770 O.2       4 ALP1        0.0000 
     21 CA         74.9270  112.3620   21.9645 C.3       3 GLC5        0.0000 
     22 CA         74.6030  111.4300   20.3040 C.3       9 GLL5        0.0000 
     23 CA         79.3073  112.4363   22.8923 C.3       3 GLC5        0.0000 
     24 CA         79.5220  114.0380   23.8180 C.3       6 GLP5        0.0000 
     25 CA         82.4010  108.3997   22.0380 C.3       3 GLC5        0.0000 
     26 CA         80.7300  109.9920   21.8870 C.3       9 GLL5        0.0000 
     27 CA         84.1400  107.2870   21.6900 C.3       6 GLP5        0.0000 
     28 CA         80.5678  110.9239   23.8660 C.3       3 GLC5        0.0000 
     29 CA         80.7690  112.3560   25.1610 C.3       6 GLP5        0.0000 
     30 CA         80.0055  113.0998   22.0888 C.3       3 GLC5        0.0000 
     31 CA         79.8670  111.8970   20.5330 C.3       9 GLL5        0.0000 
     32 CA         80.2090  111.3888   18.6762 C.3       3 GLC5        0.0000 
     33 CA         79.9290  110.6160   16.9930 C.3       6 GLP5        0.0000 
     34 CA         81.8515  113.4240   17.3195 C.3       3 GLC5        0.0000 
     35 CA         82.9940  113.2460   15.8230 C.3       6 GLP5        0.0000 
     36 CA         80.3190  112.1090   17.9045 C.3       3 GLC5        0.0000 
     37 CA         81.2640  113.3900   19.1540 C.3       9 GLL5        0.0000 
     38 CA         82.4137  113.7085   20.6805 C.3       3 GLC5        0.0000 
     39 CA         83.6400  114.5090   21.6910 C.3       6 GLP5        0.0000 
     40 CA         80.3490  114.7685   20.0025 C.3       3 GLC5        0.0000 
     41 CA         81.1110  112.4260   20.1860 C.3       9 GLL5        0.0000 
     42 CA         79.7880  116.5230   20.5040 C.3       6 GLP5        0.0000 
     43 CA         73.9715  110.7315   18.5018 C.3       3 GLC5        0.0000 
     44 CA         74.5050  112.3360   19.2430 C.3       9 GLL5        0.0000 
     45 CA         73.3890  109.5800   17.2300 C.3       6 GLP5        0.0000 
     46 CA         73.0970  110.3425   18.9635 C.3       3 GLC5        0.0000 
     47 CA         73.4520  110.9120   20.9030 C.3       9 GLL5        0.0000 
     48 CA         73.0173  111.0290   18.1800 C.3       3 GLC5        0.0000 
     49 CA         73.2190  112.7350   18.8210 C.3       9 GLL5        0.0000 
     50 CA         73.2140  113.2078   21.0971 C.3       3 GLC5        0.0000 
     51 CA         72.0720  112.2210   19.4390 C.3       9 GLL5        0.0000 
     52 CA         73.5420  114.6740   22.2280 C.3       6 GLP5        0.0000 
@<TRIPOS>BOND
@<TRIPOS>SUBSTRUCTURE
     1 ALC1       18 GROUP        1 X    ALC  0     ROOT ALC X 1
     2 SEC2       12 GROUP        1 X    SEC  0     **** SEC X 2
     3 GLC5        1 GROUP        1 X    GLC  0     **** GLC X 6
     4 ALP1       20 GROUP        1 Y    ALP  0     ROOT ALP Y 8
     5 SEP2       14 GROUP        1 Y    SEP  0     **** SEP Y 9
     6 GLP5        3 GROUP        1 Y    GLP  0     **** GLP Y 13
     7 ALL1       19 GROUP        1 Z    ALL  0     ROOT ALL Z 15
     8 SEL2       13 GROUP        1 Z    SEL  0     **** SEL Z 16
     9 GLL5        2 GROUP        1 Z    GLL  0     **** GLL Z 20
@<TRIPOS>SET

