#    Name: 4aqc_88A_2_ligand
#    Modification time : Tue Mar 25 06:01:22 2014

@<TRIPOS>MOLECULE
4aqc_88A_2_ligand
   55    59     1     0     0
SMALL
NO_CHARGES


@<TRIPOS>ATOM
      1 O2         77.8930  107.6730   25.4290 O.2       1 88A2001     0.0000 
      2 S          79.2710  107.6810   24.8820 S.o2      1 88A2001     0.0000 
      3 O1         80.3860  107.7980   25.8300 O.2       1 88A2001     0.0000 
      4 C1         79.4840  106.1270   23.9180 C.3       1 88A2001     0.0000 
      5 C21        79.4120  108.9500   23.6250 C.ar      1 88A2001     0.0000 
      6 C20        78.3510  109.8170   23.3520 C.ar      1 88A2001     0.0000 
      7 C19        78.4970  110.7830   22.3470 C.ar      1 88A2001     0.0000 
      8 C22        80.5940  109.0330   22.8850 C.ar      1 88A2001     0.0000 
      9 C23        80.7300  109.9920   21.8870 C.ar      1 88A2001     0.0000 
     10 C18        79.6880  110.8860   21.5860 C.ar      1 88A2001     0.0000 
     11 C2         79.8670  111.8970   20.5330 C.2       1 88A2001     0.0000 
     12 C6         78.7370  112.3500   19.7980 C.2       1 88A2001     0.0000 
     13 N3         77.4390  112.0770   19.8610 N.2       1 88A2001     0.0000 
     14 C7         76.9380  112.8630   18.8940 C.2       1 88A2001     0.0000 
     15 N2         77.7550  113.6340   18.2270 N.2       1 88A2001     0.0000 
     16 N1         78.9460  113.2960   18.8140 N.pl3     1 88A2001     0.0000 
     17 C5         80.1540  113.8140   18.4780 C.2       1 88A2001     0.0000 
     18 C4         81.2640  113.3900   19.1540 C.2       1 88A2001     0.0000 
     19 C3         81.1110  112.4260   20.1860 C.2       1 88A2001     0.0000 
     20 N4         75.5770  112.8710   18.6400 N.pl3     1 88A2001     0.0000 
     21 C8         74.5050  112.3360   19.2430 C.ar      1 88A2001     0.0000 
     22 C13        74.6030  111.4300   20.3040 C.ar      1 88A2001     0.0000 
     23 C12        73.4520  110.9120   20.9030 C.ar      1 88A2001     0.0000 
     24 C11        72.1580  111.2980   20.4910 C.ar      1 88A2001     0.0000 
     25 C10        72.0720  112.2210   19.4390 C.ar      1 88A2001     0.0000 
     26 C9         73.2190  112.7350   18.8210 C.ar      1 88A2001     0.0000 
     27 N5         71.0630  110.7710   21.1260 N.3       1 88A2001     0.0000 
     28 C17        71.1370  110.0970   22.4410 C.3       1 88A2001     0.0000 
     29 C16        69.7700  110.0180   23.1640 C.3       1 88A2001     0.0000 
     30 O3         69.0920  111.2730   22.9790 O.3       1 88A2001     0.0000 
     31 C15        68.7510  111.5150   21.6060 C.3       1 88A2001     0.0000 
     32 C14        69.6830  110.7700   20.6140 C.3       1 88A2001     0.0000 
     33 H          77.4790  109.7494   23.8771 H         1 88A2001     0.0000 
     34 H          77.7226  111.4379   22.1515 H         1 88A2001     0.0000 
     35 H          81.3653  108.3808   23.0812 H         1 88A2001     0.0000 
     36 H          81.6137  110.0538   21.3516 H         1 88A2001     0.0000 
     37 H          80.2384  114.5144   17.7278 H         1 88A2001     0.0000 
     38 H          82.1955  113.7443   18.9398 H         1 88A2001     0.0000 
     39 H          81.9606  112.1107   20.6936 H         1 88A2001     0.0000 
     40 H          75.3237  113.4715   17.7040 H         1 88A2001     0.0000 
     41 H          75.5307  111.1430   20.6457 H         1 88A2001     0.0000 
     42 H          73.5442  110.2235   21.6733 H         1 88A2001     0.0000 
     43 H          71.1393  112.5291   19.1121 H         1 88A2001     0.0000 
     44 H          73.1278  113.4105   18.0512 H         1 88A2001     0.0000 
     45 H          71.8388  110.6261   23.1065 H         1 88A2001     0.0000 
     46 H          71.5162  109.0682   22.3261 H         1 88A2001     0.0000 
     47 H          69.9650  109.8110   24.2124 H         1 88A2001     0.0000 
     48 H          69.2175  109.1888   22.7312 H         1 88A2001     0.0000 
     49 H          68.8072  112.5909   21.3560 H         1 88A2001     0.0000 
     50 H          67.7169  111.1942   21.3806 H         1 88A2001     0.0000 
     51 H          69.3077  109.7540   20.5015 H         1 88A2001     0.0000 
     52 H          69.6216  111.2773   19.6525 H         1 88A2001     0.0000 
     53 H          80.3962  106.0631   23.5132 H         1 88A2001     0.0000 
     54 H          79.3593  105.3156   24.4891 H         1 88A2001     0.0000 
     55 H          78.8254  106.0618   23.1683 H         1 88A2001     0.0000 
@<TRIPOS>BOND
     1    2    1 2    
     2    3    2 2    
     3    4    2 1    
     4    5    2 1    
     5   53    4 1    
     6   54    4 1    
     7   55    4 1    
     8    6    5 ar   
     9    8    5 ar   
    10    7    6 ar   
    11   33    6 1    
    12   10    7 ar   
    13   34    7 1    
    14    9    8 ar   
    15   35    8 1    
    16   10    9 ar   
    17   36    9 1    
    18   11   10 1    
    19   12   11 1    
    20   19   11 2    
    21   13   12 2    
    22   16   12 1    
    23   14   13 1    
    24   15   14 2    
    25   20   14 1    
    26   16   15 1    
    27   17   16 1    
    28   18   17 2    
    29   37   17 1    
    30   19   18 1    
    31   38   18 1    
    32   39   19 1    
    33   21   20 1    
    34   40   20 1    
    35   22   21 ar   
    36   26   21 ar   
    37   23   22 ar   
    38   41   22 1    
    39   24   23 ar   
    40   42   23 1    
    41   25   24 ar   
    42   27   24 1    
    43   26   25 ar   
    44   43   25 1    
    45   44   26 1    
    46   28   27 1    
    47   32   27 1    
    48   29   28 1    
    49   45   28 1    
    50   46   28 1    
    51   30   29 1    
    52   47   29 1    
    53   48   29 1    
    54   31   30 1    
    55   32   31 1    
    56   49   31 1    
    57   50   31 1    
    58   51   32 1    
    59   52   32 1    
@<TRIPOS>SUBSTRUCTURE
     1 88A2001     1 GROUP   
@<TRIPOS>SET

