#    Name: 2hz0_GIN_2_INTS_M
#    Modification time : Tue Mar 25 17:13:57 2014

@<TRIPOS>MOLECULE
2hz0_GIN_2_INTS_M
  101     0     9     0     0
SMALL
NO_CHARGES


@<TRIPOS>ATOM
      1 CA          7.9175  103.6385   54.4115 C.3       3 GLC5        0.0000 
      2 CA          6.5770  102.1250   54.4920 C.3       9 GLL5        0.0000 
      3 CA          9.2580  105.1520   54.3310 C.3       6 GLP5        0.0000 
      4 CA          4.0110  101.5025   53.0775 C.3       3 GLC5        0.0000 
      5 CA          5.0840  101.8480   54.7760 C.3       9 GLL5        0.0000 
      6 CA          2.9380  101.1570   51.3790 C.3       6 GLP5        0.0000 
      7 CA          3.7110  104.1925   53.7185 C.3       3 GLC5        0.0000 
      8 CA          4.4490  103.1160   55.3370 C.3       9 GLL5        0.0000 
      9 CA          2.9730  105.2690   52.1000 C.3       6 GLP5        0.0000 
     10 CA          2.7100  104.0695   55.4355 C.3       3 GLC5        0.0000 
     11 CA          0.9710  105.0230   55.5340 C.3       6 GLP5        0.0000 
     12 CA          5.8580  104.3215   56.3425 C.3       3 GLC5        0.0000 
     13 CA          7.2670  105.5270   57.3480 C.3       6 GLP5        0.0000 
     14 CA         13.2030   99.0260   49.7810 C.3       3 GLC5        0.0000 
     15 CA         14.1940   97.0590   50.1230 C.3       9 GLL5        0.0000 
     16 CA         12.2120  100.9930   49.4390 C.3       6 GLP5        0.0000 
     17 CA         14.6815   97.5870   52.0485 C.3       3 GLC5        0.0000 
     18 CA         15.1690   98.1150   53.9740 C.3       6 GLP5        0.0000 
     19 CA          8.6780   96.2590   50.6260 C.3       3 GLC5        0.0000 
     20 CA         10.6490   96.1090   51.2490 C.3       9 GLL5        0.0000 
     21 CA          6.7070   96.4090   50.0030 C.3       6 GLP5        0.0000 
     22 CA          8.0600   95.5095   51.6415 C.3       3 GLC5        0.0000 
     23 CA          9.8810   95.0140   51.5190 C.3       9 GLL5        0.0000 
     24 CA          6.2390   96.0050   51.7640 C.3       6 GLP5        0.0000 
     25 CA         14.3180   93.9975   50.3270 C.3       3 GLC5        0.0000 
     26 CA         12.3100   94.7030   50.2510 C.3       9 GLL5        0.0000 
     27 CA         16.3260   93.2920   50.4030 C.3       6 GLP5        0.0000 
     28 CA         13.1935   94.0280   48.3895 C.3       3 GLC5        0.0000 
     29 CA         14.0770   93.3530   46.5280 C.3       6 GLP5        0.0000 
     30 O           9.1100   96.4700   53.5915 O.2       1 ALC1        0.0000 
     31 O           9.2120   97.4040   52.5620 O.2       7 ALL1        0.0000 
     32 O           9.0080   95.5360   54.6210 O.2       4 ALP1        0.0000 
     33 N          11.2390   99.5715   51.6860 N.am      2 SEC2        0.0000 
     34 N          10.6490   98.4380   51.0900 N.am      8 SEL2        0.0000 
     35 N          11.8290  100.7050   52.2820 N.am      5 SEP2        0.0000 
     36 CA          7.5010   98.0155   51.0605 C.3       3 GLC5        0.0000 
     37 CA          8.2950   99.6220   52.1180 C.3       9 GLL5        0.0000 
     38 CA          8.7850   99.3945   50.0205 C.3       3 GLC5        0.0000 
     39 CA          9.2750   99.1670   47.9230 C.3       6 GLP5        0.0000 
     40 CA          8.4665  100.3610   49.1080 C.3       3 GLC5        0.0000 
     41 CA          7.6580  101.5550   50.2930 C.3       9 GLL5        0.0000 
     42 CA          4.4795  103.7610   51.8025 C.3       3 GLC5        0.0000 
     43 CA          5.9860  102.2530   51.5050 C.3       9 GLL5        0.0000 
     44 CA          6.5525  104.7425   52.2715 C.3       3 GLC5        0.0000 
     45 CA          7.9270  103.0350   51.8030 C.3       9 GLL5        0.0000 
     46 CA          5.1780  106.4500   52.7400 C.3       6 GLP5        0.0000 
     47 CA          8.5925  104.0935   53.0670 C.3       3 GLC5        0.0000 
     48 CA          8.8045  104.5690   51.3440 C.3       3 GLC5        0.0000 
     49 CA          9.6820  106.1030   50.8850 C.3       6 GLP5        0.0000 
     50 O          13.1865   96.0365   45.1835 O.2       1 ALC1        0.0000 
     51 O          14.1530   96.5610   46.3110 O.2       7 ALL1        0.0000 
     52 O          12.2200   95.5120   44.0560 O.2       4 ALP1        0.0000 
     53 CA         13.8990   95.0325   47.0815 C.3       3 GLC5        0.0000 
     54 CA         13.7210   96.7120   47.6350 C.3       9 GLL5        0.0000 
     55 CA         12.0530   97.6760   46.6215 C.3       3 GLC5        0.0000 
     56 CA         10.3850   98.6400   45.6080 C.3       6 GLP5        0.0000 
     57 N          15.5745   96.8415   43.3980 N.am      2 SEC2        0.0000 
     58 N          15.8220   96.4650   44.7230 N.am      8 SEL2        0.0000 
     59 N          15.3270   97.2180   42.0730 N.am      5 SEP2        0.0000 
     60 CA          7.3235   97.3180   52.7218 C.3       3 GLC5        0.0000 
     61 CA          8.2170   98.6920   54.3630 C.3       9 GLL5        0.0000 
     62 CA          9.8210   99.6965   54.1938 C.3       3 GLC5        0.0000 
     63 CA          8.5990   98.5700   52.9960 C.3       9 GLL5        0.0000 
     64 CA         11.2340  100.7620   54.7080 C.3       6 GLP5        0.0000 
     65 CA          9.3355  100.5675   54.5430 C.3       3 GLC5        0.0000 
     66 CA          7.5800   99.8350   54.8220 C.3       9 GLL5        0.0000 
     67 CA          7.4065   97.5020   54.9224 C.3       3 GLC5        0.0000 
     68 CA          6.8190   95.7710   55.5940 C.3       6 GLP5        0.0000 
     69 CA          3.2447  101.0715   55.0203 C.3       3 GLC5        0.0000 
     70 CA          1.7230   99.6610   54.9840 C.3       6 GLP5        0.0000 
     71 CA         14.0615   98.4133   47.4140 C.3       3 GLC5        0.0000 
     72 CA         13.9520  100.0310   46.6870 C.3       6 GLP5        0.0000 
     73 CA         17.5210   95.3288   47.3430 C.3       3 GLC5        0.0000 
     74 CA         16.0450   96.8730   48.2860 C.3       9 GLL5        0.0000 
     75 CA         18.7820   93.8610   47.0620 C.3       6 GLP5        0.0000 
     76 CA         15.7761   95.1065   49.6192 C.3       3 GLC5        0.0000 
     77 CA         16.3745   98.6238   47.3700 C.3       3 GLC5        0.0000 
     78 CA         16.4890  100.4510   47.1160 C.3       6 GLP5        0.0000 
     79 CA         14.9905   95.0755   47.1211 C.3       3 GLC5        0.0000 
     80 CA         16.4750   96.7200   46.9620 C.3       9 GLL5        0.0000 
     81 CA          9.6095   95.1407   49.6940 C.3       3 GLC5        0.0000 
     82 CA          8.9540   94.7200   48.0040 C.3       6 GLP5        0.0000 
     83 CA          8.5748   93.3460   51.4980 C.3       3 GLC5        0.0000 
     84 CA          7.0570   92.3200   51.6540 C.3       6 GLP5        0.0000 
     85 CA          9.9365   94.1880   49.4215 C.3       3 GLC5        0.0000 
     86 CA         11.5340   93.5820   50.5130 C.3       9 GLL5        0.0000 
     87 CA         11.8957   92.9617   51.8910 C.3       3 GLC5        0.0000 
     88 CA         10.3040   93.7300   51.1650 C.3       9 GLL5        0.0000 
     89 CA         12.1770   91.7440   53.2370 C.3       6 GLP5        0.0000 
     90 CA         10.5293   95.0230   49.2122 C.3       3 GLC5        0.0000 
     91 CA         11.7225   95.2421   52.8520 C.3       3 GLC5        0.0000 
     92 CA         11.8990   95.9490   50.5900 C.3       9 GLL5        0.0000 
     93 CA         12.3630   94.7290   54.7170 C.3       6 GLP5        0.0000 
     94 CA          9.5652  101.0615   51.2905 C.3       3 GLC5        0.0000 
     95 CA         11.1540  101.9080   50.2350 C.3       6 GLP5        0.0000 
     96 CA          9.6052  100.4885   53.5270 C.3       3 GLC5        0.0000 
     97 CA          4.7920  101.6180   51.4560 C.3       3 GLC5        0.0000 
     98 CA          7.3060  101.9050   51.5610 C.3       9 GLL5        0.0000 
     99 CA          6.8012  103.6261   50.3738 C.3       3 GLC5        0.0000 
    100 CA          6.2720  104.7390   49.2380 C.3       6 GLP5        0.0000 
    101 CA          9.4292  102.1453   50.8000 C.3       3 GLC5        0.0000 
@<TRIPOS>BOND
@<TRIPOS>SUBSTRUCTURE
     1 ALC1       30 GROUP        1 X    ALC  0     ROOT ALC X 1
     2 SEC2       33 GROUP        1 X    SEC  0     **** SEC X 2
     3 GLC5        1 GROUP        1 X    GLC  0     **** GLC X 6
     4 ALP1       32 GROUP        1 Y    ALP  0     ROOT ALP Y 8
     5 SEP2       35 GROUP        1 Y    SEP  0     **** SEP Y 9
     6 GLP5        3 GROUP        1 Y    GLP  0     **** GLP Y 13
     7 ALL1       31 GROUP        1 Z    ALL  0     ROOT ALL Z 15
     8 SEL2       34 GROUP        1 Z    SEL  0     **** SEL Z 16
     9 GLL5        2 GROUP        1 Z    GLL  0     **** GLL Z 20
@<TRIPOS>SET

