#    Name: 2hz0_GIN_2_ligand
#    Modification time : Tue Mar 25 17:13:58 2014

@<TRIPOS>MOLECULE
2hz0_GIN_2_ligand
   53    55     1     0     0
SMALL
NO_CHARGES


@<TRIPOS>ATOM
      1 C12        10.1730   97.4190   51.6240 C.2       1 GIN600      0.0000 
      2 C16         8.5990   98.5700   52.9960 C.ar      1 GIN600      0.0000 
      3 C19         7.2940  100.9110   53.9340 C.ar      1 GIN600      0.0000 
      4 C20         7.5800   99.8350   54.8220 C.ar      1 GIN600      0.0000 
      5 C21         8.2170   98.6920   54.3630 C.ar      1 GIN600      0.0000 
      6 C24         6.5770  102.1250   54.4920 C.3       1 GIN600      0.0000 
      7 C30         5.0840  101.8480   54.7760 C.3       1 GIN600      0.0000 
      8 C31         4.4490  103.1160   55.3370 C.3       1 GIN600      0.0000 
      9 C32        14.1940   97.0590   50.1230 C.3       1 GIN600      0.0000 
     10 C33        14.6210   96.8790   48.6470 C.2       1 GIN600      0.0000 
     11 C34        16.0450   96.8730   48.2860 C.2       1 GIN600      0.0000 
     12 C35        16.4750   96.7200   46.9620 C.2       1 GIN600      0.0000 
     13 C01        10.6490   96.1090   51.2490 C.ar      1 GIN600      0.0000 
     14 C02         9.8810   95.0140   51.5190 C.ar      1 GIN600      0.0000 
     15 C03        10.3040   93.7300   51.1650 C.ar      1 GIN600      0.0000 
     16 C04        11.5340   93.5820   50.5130 C.ar      1 GIN600      0.0000 
     17 C05        12.3100   94.7030   50.2510 C.ar      1 GIN600      0.0000 
     18 C06        11.8990   95.9490   50.5900 C.ar      1 GIN600      0.0000 
     19 N11        12.7120   97.0810   50.2830 N.pl3     1 GIN600      0.0000 
     20 N13         9.2120   97.4040   52.5620 N.am      1 GIN600      0.0000 
     21 O14        10.6490   98.4380   51.0900 O.2       1 GIN600      0.0000 
     22 C17         8.2950   99.6220   52.1180 C.ar      1 GIN600      0.0000 
     23 C18         7.6580  100.8080   52.5740 C.ar      1 GIN600      0.0000 
     24 C23         7.3060  101.9050   51.5610 C.3       1 GIN600      0.0000 
     25 F27         7.6580  101.5550   50.2930 F         1 GIN600      0.0000 
     26 F28         5.9860  102.2530   51.5050 F         1 GIN600      0.0000 
     27 F29         7.9270  103.0350   51.8030 F         1 GIN600      0.0000 
     28 C36        15.5150   96.5730   45.8800 C.2       1 GIN600      0.0000 
     29 N37        14.1530   96.5610   46.3110 N.am      1 GIN600      0.0000 
     30 C38        13.7210   96.7120   47.6350 C.2       1 GIN600      0.0000 
     31 O41        15.8220   96.4650   44.7230 O.2       1 GIN600      0.0000 
     32 H           7.3054   99.9222   55.8083 H         1 GIN600      0.0000 
     33 H           8.4234   97.9141   55.0038 H         1 GIN600      0.0000 
     34 H           6.6475  102.9537   53.7798 H         1 GIN600      0.0000 
     35 H           7.0560  102.4387   55.4253 H         1 GIN600      0.0000 
     36 H           5.0059  101.0504   55.4976 H         1 GIN600      0.0000 
     37 H           4.5965  101.5724   53.8544 H         1 GIN600      0.0000 
     38 H          14.6305   97.9955   50.4916 H         1 GIN600      0.0000 
     39 H          14.6274   96.2364   50.7052 H         1 GIN600      0.0000 
     40 H          16.7246   96.9866   49.0499 H         1 GIN600      0.0000 
     41 H          17.4702   96.7086   46.7296 H         1 GIN600      0.0000 
     42 H           8.9635   95.1216   51.9955 H         1 GIN600      0.0000 
     43 H           9.7300   92.9177   51.3765 H         1 GIN600      0.0000 
     44 H          11.8547   92.6505   50.2332 H         1 GIN600      0.0000 
     45 H          13.2341   94.5672   49.7789 H         1 GIN600      0.0000 
     46 H          12.2545   98.0121   50.1553 H         1 GIN600      0.0000 
     47 H           8.9038   96.4971   52.9889 H         1 GIN600      0.0000 
     48 H           8.5360   99.5400   51.1185 H         1 GIN600      0.0000 
     49 H          13.4184   96.4264   45.5605 H         1 GIN600      0.0000 
     50 H          12.7039   96.6944   47.8314 H         1 GIN600      0.0000 
     51 H           4.8880  103.4064   56.1873 H         1 GIN600      0.0000 
     52 H           4.5172  103.8805   54.6960 H         1 GIN600      0.0000 
     53 H           3.4778  102.9875   55.5376 H         1 GIN600      0.0000 
@<TRIPOS>BOND
     1   13    1 1    
     2   20    1 am   
     3   21    1 2    
     4    5    2 ar   
     5   20    2 1    
     6   22    2 ar   
     7    4    3 ar   
     8    6    3 1    
     9   23    3 ar   
    10    5    4 ar   
    11   32    4 1    
    12   33    5 1    
    13    7    6 1    
    14   34    6 1    
    15   35    6 1    
    16    8    7 1    
    17   36    7 1    
    18   37    7 1    
    19   51    8 1    
    20   52    8 1    
    21   53    8 1    
    22   10    9 1    
    23   19    9 1    
    24   38    9 1    
    25   39    9 1    
    26   11   10 1    
    27   30   10 2    
    28   12   11 2    
    29   40   11 1    
    30   28   12 1    
    31   41   12 1    
    32   14   13 ar   
    33   18   13 ar   
    34   15   14 ar   
    35   42   14 1    
    36   16   15 ar   
    37   43   15 1    
    38   17   16 ar   
    39   44   16 1    
    40   18   17 ar   
    41   45   17 1    
    42   19   18 1    
    43   46   19 1    
    44   47   20 1    
    45   23   22 ar   
    46   48   22 1    
    47   24   23 1    
    48   25   24 1    
    49   26   24 1    
    50   27   24 1    
    51   29   28 am   
    52   31   28 2    
    53   30   29 1    
    54   49   29 1    
    55   50   30 1    
@<TRIPOS>SUBSTRUCTURE
     1 GIN600      1 GROUP   
@<TRIPOS>SET

