#    Name: 3emg_685_1_INTS_M
#    Modification time : Tue Mar 25 02:10:13 2014

@<TRIPOS>MOLECULE
3emg_685_1_INTS_M
   72     0     9     0     0
SMALL
NO_CHARGES


@<TRIPOS>ATOM
      1 CA         14.3810   37.8905    5.3130 C.3       3 GLC5        0.0000 
      2 CA         15.1970   37.6190    7.2780 C.3       9 GLL5        0.0000 
      3 CA         13.5650   38.1620    3.3480 C.3       6 GLP5        0.0000 
      4 N          11.2875   38.5775    6.6245 N.am      2 SEC2        0.0000 
      5 N          12.1050   39.2640    7.2770 N.am      8 SEL2        0.0000 
      6 N          10.4700   37.8910    5.9720 N.am      5 SEP2        0.0000 
      7 CA         12.5230   41.4980    7.7720 C.3       3 GLC5        0.0000 
      8 CA         12.1660   40.3430    9.3120 C.3       9 GLL5        0.0000 
      9 CA         12.8800   42.6530    6.2320 C.3       6 GLP5        0.0000 
     10 CA         12.8315   43.2845    8.9145 C.3       3 GLC5        0.0000 
     11 CA         12.7940   41.7140   10.0650 C.3       9 GLL5        0.0000 
     12 CA         12.8690   44.8550    7.7640 C.3       6 GLP5        0.0000 
     13 CA          9.5485   39.2620    7.8405 C.3       3 GLC5        0.0000 
     14 CA         10.1970   38.8610    9.8350 C.3       9 GLL5        0.0000 
     15 CA          8.9000   39.6630    5.8460 C.3       6 GLP5        0.0000 
     16 CA          8.7445   40.2025   10.4620 C.3       3 GLC5        0.0000 
     17 CA          7.2920   41.5440   11.0890 C.3       6 GLP5        0.0000 
     18 CA         10.1310   37.1665   10.6890 C.3       3 GLC5        0.0000 
     19 CA         10.0650   35.4720   11.5430 C.3       6 GLP5        0.0000 
     20 CA         10.2795   45.5735   14.7470 C.3       3 GLC5        0.0000 
     21 CA         10.6700   43.4750   14.1260 C.3       9 GLL5        0.0000 
     22 CA          9.8890   47.6720   15.3680 C.3       6 GLP5        0.0000 
     23 CA         11.6665   43.9135   15.9840 C.3       3 GLC5        0.0000 
     24 CA         12.6630   44.3520   17.8420 C.3       6 GLP5        0.0000 
     25 N          11.5590   45.2635   15.4535 N.am      2 SEC2        0.0000 
     26 N          11.6530   44.2590   14.2790 N.am      8 SEL2        0.0000 
     27 N          11.4650   46.2680   16.6280 N.am      5 SEP2        0.0000 
     28 CA         11.6505   45.2570   12.4720 C.3       3 GLC5        0.0000 
     29 CA         12.6110   44.1580   13.4980 C.3       9 GLL5        0.0000 
     30 CA         10.6900   46.3560   11.4460 C.3       6 GLP5        0.0000 
     31 CA         13.1040   46.2375   13.1480 C.3       3 GLC5        0.0000 
     32 CA         13.5970   48.3170   12.7980 C.3       6 GLP5        0.0000 
     33 CA         12.6370   44.2550   15.6700 C.3       3 GLC5        0.0000 
     34 CA         12.7380   42.5665   14.1855 C.3       3 GLC5        0.0000 
     35 CA         12.8650   40.9750   14.8730 C.3       6 GLP5        0.0000 
     36 O          14.0060   45.5090   15.1505 O.2       1 ALC1        0.0000 
     37 O          13.6640   44.9360   13.7070 O.2       7 ALL1        0.0000 
     38 O          14.3480   46.0820   16.5940 O.2       4 ALP1        0.0000 
     39 CA         17.3890   43.5400    8.0270 C.3       3 GLC5        0.0000 
     40 CA         16.7570   43.4330   10.1780 C.3       9 GLL5        0.0000 
     41 CA         18.0210   43.6470    5.8760 C.3       6 GLP5        0.0000 
     42 CA         14.2980   39.3780    5.1508 C.3       3 GLC5        0.0000 
     43 CA         14.5590   38.8840    6.9040 C.3       9 GLL5        0.0000 
     44 CA         13.4570   39.4970    3.6810 C.3       6 GLP5        0.0000 
     45 CA         14.0095   40.9560    6.4262 C.3       3 GLC5        0.0000 
     46 CA         10.1222   41.5836   10.0449 C.3       3 GLC5        0.0000 
     47 CA         11.1030   39.9920   10.0550 C.3       9 GLL5        0.0000 
     48 CA          8.4530   42.6570   10.2180 C.3       6 GLP5        0.0000 
     49 CA          9.7572   42.6300   11.4552 C.3       3 GLC5        0.0000 
     50 CA         11.5740   42.6030   12.2620 C.3       9 GLL5        0.0000 
     51 CA          8.9082   42.5340   14.5302 C.3       3 GLC5        0.0000 
     52 CA         10.5490   42.6030   13.1230 C.3       9 GLL5        0.0000 
     53 CA          7.2070   42.0290   15.4360 C.3       6 GLP5        0.0000 
     54 CA         10.7779   44.6975   12.4276 C.3       3 GLC5        0.0000 
     55 CA         11.8654   42.0070   14.1411 C.3       3 GLC5        0.0000 
     56 CA         14.2860   46.4343   12.6445 C.3       3 GLC5        0.0000 
     57 CA         14.8490   44.9240   13.0370 C.3       9 GLL5        0.0000 
     58 CA         16.4888   44.6050   14.6178 C.3       3 GLC5        0.0000 
     59 CA         17.6380   43.8740   15.9540 C.3       6 GLP5        0.0000 
     60 CA         16.7029   45.6687   10.0816 C.3       3 GLC5        0.0000 
     61 CA         16.6360   46.8900    8.7910 C.3       6 GLP5        0.0000 
     62 CA         15.6359   46.9755   11.6371 C.3       3 GLC5        0.0000 
     63 CA         17.0420   45.8220   12.9190 C.3       9 GLL5        0.0000 
     64 CA         15.0810   48.3720   10.1740 C.3       6 GLP5        0.0000 
     65 CA         15.0165   47.0510   13.0102 C.3       3 GLC5        0.0000 
     66 CA         17.8690   43.6460   13.2890 C.3       3 GLC5        0.0000 
     67 CA         18.8040   42.0530   14.3220 C.3       6 GLP5        0.0000 
     68 CA         17.6431   44.9695   14.4361 C.3       3 GLC5        0.0000 
     69 CA         17.2970   45.0740   11.8300 C.3       9 GLL5        0.0000 
     70 CA         15.2458   43.4689   14.0467 C.3       3 GLC5        0.0000 
     71 CA         15.8300   45.7480   13.5260 C.3       9 GLL5        0.0000 
     72 CA         15.0890   41.7880   15.0850 C.3       6 GLP5        0.0000 
@<TRIPOS>BOND
@<TRIPOS>SUBSTRUCTURE
     1 ALC1       36 GROUP        1 X    ALC  0     ROOT ALC X 1
     2 SEC2        4 GROUP        1 X    SEC  0     **** SEC X 2
     3 GLC5        1 GROUP        1 X    GLC  0     **** GLC X 6
     4 ALP1       38 GROUP        1 Y    ALP  0     ROOT ALP Y 8
     5 SEP2        6 GROUP        1 Y    SEP  0     **** SEP Y 9
     6 GLP5        3 GROUP        1 Y    GLP  0     **** GLP Y 13
     7 ALL1       37 GROUP        1 Z    ALL  0     ROOT ALL Z 15
     8 SEL2        5 GROUP        1 Z    SEL  0     **** SEL Z 16
     9 GLL5        2 GROUP        1 Z    GLL  0     **** GLL Z 20
@<TRIPOS>SET

