#    Name: 3emg_685_1_ligand
#    Modification time : Tue Mar 25 02:10:13 2014

@<TRIPOS>MOLECULE
3emg_685_1_ligand
   51    53     1     0     0
SMALL
NO_CHARGES


@<TRIPOS>ATOM
      1 C1         15.7190   39.6340    6.3370 C.3       1 685685      0.0000 
      2 C2         14.5590   38.8840    6.9040 C.3       1 685685      0.0000 
      3 C4         15.1970   37.6190    7.2780 C.3       1 685685      0.0000 
      4 O5         15.2430   37.1750    5.9480 O.3       1 685685      0.0000 
      5 N6         13.9660   39.5200    8.0260 N.am      1 685685      0.0000 
      6 C7         12.7120   39.6910    8.1220 C.2       1 685685      0.0000 
      7 O8         12.1050   39.2640    7.2770 O.2       1 685685      0.0000 
      8 C9         12.1660   40.3430    9.3120 C.2       1 685685      0.0000 
      9 S10        12.7940   41.7140   10.0650 S.3       1 685685      0.0000 
     10 C11        11.6680   41.7020   11.1760 C.2       1 685685      0.0000 
     11 N12        10.9430   40.7210   11.0000 N.2       1 685685      0.0000 
     12 C13        11.1030   39.9920   10.0550 C.2       1 685685      0.0000 
     13 C14        10.1970   38.8610    9.8350 C.3       1 685685      0.0000 
     14 C15        11.5740   42.6030   12.2620 C.ar      1 685685      0.0000 
     15 C16        10.5490   42.6030   13.1230 C.ar      1 685685      0.0000 
     16 C17        10.6700   43.4750   14.1260 C.ar      1 685685      0.0000 
     17 N18        11.6530   44.2590   14.2790 N.ar      1 685685      0.0000 
     18 C19        12.6110   44.1580   13.4980 C.ar      1 685685      0.0000 
     19 N20        13.6640   44.9360   13.7070 N.pl3     1 685685      0.0000 
     20 C21        14.8490   44.9240   13.0370 C.ar      1 685685      0.0000 
     21 C22        15.1010   44.1790   11.9450 C.ar      1 685685      0.0000 
     22 C23        16.3550   44.2380   11.3560 C.ar      1 685685      0.0000 
     23 C24        16.7570   43.4330   10.1780 C.3       1 685685      0.0000 
     24 C25        17.2970   45.0740   11.8300 C.ar      1 685685      0.0000 
     25 C26        17.0420   45.8220   12.9190 C.ar      1 685685      0.0000 
     26 C27        18.1270   46.6820   13.4620 C.3       1 685685      0.0000 
     27 C28        15.8300   45.7480   13.5260 C.ar      1 685685      0.0000 
     28 N29        12.5870   43.3520   12.5060 N.ar      1 685685      0.0000 
     29 H          13.8678   38.6914    6.1079 H         1 685685      0.0000 
     30 H          14.5498   37.0530    7.8692 H         1 685685      0.0000 
     31 H          16.1449   37.8000    7.6750 H         1 685685      0.0000 
     32 H          14.6474   39.8395    8.7736 H         1 685685      0.0000 
     33 H           9.7513   41.9930   13.0203 H         1 685685      0.0000 
     34 H           9.8546   43.4923   14.8463 H         1 685685      0.0000 
     35 H          13.5845   45.6787   14.5086 H         1 685685      0.0000 
     36 H          14.3804   43.5637   11.5356 H         1 685685      0.0000 
     37 H          18.2220   45.1419   11.3546 H         1 685685      0.0000 
     38 H          15.6368   46.3221   14.3745 H         1 685685      0.0000 
     39 H          16.5026   39.6311    6.9583 H         1 685685      0.0000 
     40 H          16.0293   39.2396    5.4720 H         1 685685      0.0000 
     41 H          15.4907   40.5909    6.1576 H         1 685685      0.0000 
     42 H          10.6814   37.9865    9.8613 H         1 685685      0.0000 
     43 H           9.4792   38.8195   10.5300 H         1 685685      0.0000 
     44 H           9.7417   38.9172    8.9464 H         1 685685      0.0000 
     45 H          17.7000   43.6214    9.9037 H         1 685685      0.0000 
     46 H          16.6953   42.4517   10.3602 H         1 685685      0.0000 
     47 H          16.1779   43.6208    9.3847 H         1 685685      0.0000 
     48 H          18.9253   46.1450   13.7346 H         1 685685      0.0000 
     49 H          18.4406   47.3529   12.7900 H         1 685685      0.0000 
     50 H          17.8280   47.1925   14.2682 H         1 685685      0.0000 
     51 H          16.1817   37.3479    5.6499 H         1 685685      0.0000 
@<TRIPOS>BOND
     1    2    1 1    
     2   39    1 1    
     3   40    1 1    
     4   41    1 1    
     5    3    2 1    
     6    5    2 1    
     7   29    2 1    
     8    4    3 1    
     9   30    3 1    
    10   31    3 1    
    11   51    4 1    
    12    6    5 am   
    13   32    5 1    
    14    7    6 2    
    15    8    6 1    
    16    9    8 1    
    17   12    8 2    
    18   10    9 1    
    19   11   10 2    
    20   14   10 1    
    21   12   11 1    
    22   13   12 1    
    23   42   13 1    
    24   43   13 1    
    25   44   13 1    
    26   15   14 ar   
    27   28   14 ar   
    28   16   15 ar   
    29   33   15 1    
    30   17   16 ar   
    31   34   16 1    
    32   18   17 ar   
    33   19   18 1    
    34   28   18 ar   
    35   20   19 1    
    36   35   19 1    
    37   21   20 ar   
    38   27   20 ar   
    39   22   21 ar   
    40   36   21 1    
    41   23   22 1    
    42   24   22 ar   
    43   45   23 1    
    44   46   23 1    
    45   47   23 1    
    46   25   24 ar   
    47   37   24 1    
    48   26   25 1    
    49   27   25 ar   
    50   48   26 1    
    51   49   26 1    
    52   50   26 1    
    53   38   27 1    
@<TRIPOS>SUBSTRUCTURE
     1 685685      1 GROUP   
@<TRIPOS>SET

