#    Name: 3t9d_ANP_1_INTS_M
#    Modification time : Mon Mar 24 19:23:40 2014

@<TRIPOS>MOLECULE
3t9d_ANP_1_INTS_M
   87     0    18     0     0
SMALL
NO_CHARGES


@<TRIPOS>ATOM
      1 NZ          4.1705   14.7395    7.7770 N.4       4 LYC4        0.0000 
      2 NZ          3.2750   13.5720    8.3410 N.4      16 LYL4        0.0000 
      3 NZ          5.0660   15.9070    7.2130 N.4      10 LYP4        0.0000 
      4 Zn          3.7070   12.7800    8.0270 Zn        5 ZIC7        0.0000 
      5 Zn          3.2750   13.5720    8.3410 Zn       17 ZIL7        0.0000 
      6 Zn          4.1390   11.9880    7.7130 Zn       11 ZIP7        0.0000 
      7 N           2.4970   14.0735    6.8920 N.am      2 SEC2        0.0000 
      8 N           3.2750   13.5720    8.3410 N.am     14 SEL2        0.0000 
      9 N           1.7190   14.5750    5.4430 N.am      8 SEP2        0.0000 
     10 NZ          0.5620   15.0965   10.7255 N.4       4 LYC4        0.0000 
     11 NZ          1.8290   14.3350   10.3430 N.4      16 LYL4        0.0000 
     12 NZ         -0.3150   15.8800   12.3770 N.4      10 LYP4        0.0000 
     13 N           1.3110   14.7875   11.5400 N.am      2 SEC2        0.0000 
     14 N           1.8290   14.3350   10.3430 N.am     14 SEL2        0.0000 
     15 N           0.7930   15.2400   12.7370 N.am      8 SEP2        0.0000 
     16 N           0.5620   15.0965   10.7255 N.am      2 SEC2        0.0000 
     17 N          -0.7050   15.8580   11.1080 N.am      8 SEP2        0.0000 
     18 Zn          0.4785   12.4585    7.7920 Zn        5 ZIC7        0.0000 
     19 Zn          0.7270   13.0730    8.3870 Zn       17 ZIL7        0.0000 
     20 Zn          0.2300   11.8440    7.1970 Zn       11 ZIP7        0.0000 
     21 N          -0.1185    8.8335   10.6670 N.am      2 SEC2        0.0000 
     22 N           0.8580   10.1220   11.1360 N.am     14 SEL2        0.0000 
     23 N          -1.0950    7.5450   10.1980 N.am      8 SEP2        0.0000 
     24 N          -0.1895   11.0185   11.4180 N.am      2 SEC2        0.0000 
     25 N          -1.2370   11.9150   11.7000 N.am      8 SEP2        0.0000 
     26 NZ          0.4705    8.9520    8.4325 N.4       4 LYC4        0.0000 
     27 NZ          0.8530   10.4480    8.6320 N.4      16 LYL4        0.0000 
     28 NZ         -0.8460    6.9570    9.0400 N.4      10 LYP4        0.0000 
     29 Zn          0.5415   11.1460    7.9145 Zn        5 ZIC7        0.0000 
     30 Zn          0.8530   10.4480    8.6320 Zn       17 ZIL7        0.0000 
     31 N           0.4705    8.9520    8.4325 N.am      2 SEC2        0.0000 
     32 N           0.8530   10.4480    8.6320 N.am     14 SEL2        0.0000 
     33 N           0.0880    7.4560    8.2330 N.am      8 SEP2        0.0000 
     34 OD1         2.3745   11.7145    8.3180 O.co2     3 ASC3        0.0000 
     35 OD1         2.4340   11.8420   10.1390 O.co2    15 ASL3        0.0000 
     36 OD1         2.3150   11.5870    6.4970 O.co2     9 ASP3        0.0000 
     37 NZ          3.9770    6.5530    7.5555 N.4       4 LYC4        0.0000 
     38 NZ          3.6200    7.8510    8.0260 N.4      16 LYL4        0.0000 
     39 NZ          4.3340    5.2550    7.0850 N.4      10 LYP4        0.0000 
     40 N           3.9770    6.5530    7.5555 N.am      2 SEC2        0.0000 
     41 N           3.6200    7.8510    8.0260 N.am     14 SEL2        0.0000 
     42 N           4.3340    5.2550    7.0850 N.am      8 SEP2        0.0000 
     43 Zn          4.3180   11.0915    8.0570 Zn        5 ZIC7        0.0000 
     44 Zn          4.4970   10.1950    8.4010 Zn       17 ZIL7        0.0000 
     45 CA          8.3285   10.6675   12.1755 C.3       6 GLC5        0.0000 
     46 CA          6.9960    9.2430   11.0780 C.3      18 GLL5        0.0000 
     47 CA          9.6610   12.0920   13.2730 C.3      12 GLP5        0.0000 
     48 CA          7.3770    8.9415    7.6965 C.3       6 GLC5        0.0000 
     49 CA          7.6020    9.5980    9.7390 C.3      18 GLL5        0.0000 
     50 CA          7.1520    8.2850    5.6540 C.3      12 GLP5        0.0000 
     51 O           8.9255   11.7850    9.8220 O.2       1 ALC1        0.0000 
     52 O           7.7740   11.0030    9.6660 O.2      13 ALL1        0.0000 
     53 O          10.0770   12.5670    9.9780 O.2       7 ALP1        0.0000 
     54 CA         10.0630    8.5665    8.0185 C.3       6 GLC5        0.0000 
     55 CA          8.9400    8.8990    9.8080 C.3      18 GLL5        0.0000 
     56 CA         11.1860    8.2340    6.2290 C.3      12 GLP5        0.0000 
     57 N          10.9865    9.6790   11.6175 N.am      2 SEC2        0.0000 
     58 N           9.8850    9.6450   10.6180 N.am     14 SEL2        0.0000 
     59 N          12.0880    9.7130   12.6170 N.am      8 SEP2        0.0000 
     60 O          10.6540   10.3370    9.8805 O.2       1 ALC1        0.0000 
     61 O           9.8850    9.6450   10.6180 O.2      13 ALL1        0.0000 
     62 O          11.4230   11.0290    9.1430 O.2       7 ALP1        0.0000 
     63 CA         10.5080    2.0005    8.3830 C.3       6 GLC5        0.0000 
     64 CA          9.3610    3.7130    7.8600 C.3      18 GLL5        0.0000 
     65 CA         11.6550    0.2880    8.9060 C.3      12 GLP5        0.0000 
     66 CA         10.7235    3.1375    6.2350 C.3       6 GLC5        0.0000 
     67 CA         12.0860    2.5620    4.6100 C.3      12 GLP5        0.0000 
     68 O           7.3935    2.7940    6.6640 O.2       1 ALC1        0.0000 
     69 O           8.7320    2.8220    7.0780 O.2      13 ALL1        0.0000 
     70 O           6.0550    2.7660    6.2500 O.2       7 ALP1        0.0000 
     71 O           9.2570    1.4365    6.9700 O.2       1 ALC1        0.0000 
     72 O           9.7820    0.0510    6.8620 O.2       7 ALP1        0.0000 
     73 N          11.7295    2.7325    7.7625 N.am      2 SEC2        0.0000 
     74 N          10.6730    3.6110    8.0920 N.am     14 SEL2        0.0000 
     75 N          12.7860    1.8540    7.4330 N.am      8 SEP2        0.0000 
     76 CA         11.4825    2.4225    8.8930 C.3       6 GLC5        0.0000 
     77 CA         11.3100    4.5570    8.8800 C.3      18 GLL5        0.0000 
     78 CA         12.5715    3.4285    7.6940 C.3       6 GLC5        0.0000 
     79 CA         13.8330    2.3000    6.5080 C.3      12 GLP5        0.0000 
     80 CA         10.8900    5.2540    7.1205 C.3       6 GLC5        0.0000 
     81 CA         10.4700    5.9510    5.3610 C.3      12 GLP5        0.0000 
     82 CA          6.3712    8.7593   12.7770 C.3       6 GLC5        0.0000 
     83 CA          6.5120    8.2560   14.4940 C.3      12 GLP5        0.0000 
     84 CA          8.6721    3.3087    9.7065 C.3       6 GLC5        0.0000 
     85 CA          8.6300    4.7030    8.3940 C.3      18 GLL5        0.0000 
     86 CA          8.2420    1.7040   10.7530 C.3      12 GLP5        0.0000 
     87 CA          9.7861    5.4322    7.0105 C.3       6 GLC5        0.0000 
@<TRIPOS>BOND
@<TRIPOS>SUBSTRUCTURE
     1 ALC1       51 GROUP        1 X    ALC  0     ROOT ALC X 1
     2 SEC2        7 GROUP        1 X    SEC  0     **** SEC X 2
     3 ASC3       34 GROUP        1 X    ASC  0     **** ASC X 3
     4 LYC4        1 GROUP        1 X    LYC  0     **** LYC X 4
     5 ZIC7        4 GROUP        1 X    ZIC  0     **** ZIC X 5
     6 GLC5       45 GROUP        1 X    GLC  0     **** GLC X 6
     7 ALP1       53 GROUP        1 Y    ALP  0     ROOT ALP Y 8
     8 SEP2        9 GROUP        1 Y    SEP  0     **** SEP Y 9
     9 ASP3       36 GROUP        1 Y    ASP  0     **** ASP Y 10
    10 LYP4        3 GROUP        1 Y    LYP  0     **** LYP Y 11
    11 ZIP7        6 GROUP        1 Y    ZIP  0     **** ZIP Y 12
    12 GLP5       47 GROUP        1 Y    GLP  0     **** GLP Y 13
    13 ALL1       52 GROUP        1 Z    ALL  0     ROOT ALL Z 15
    14 SEL2        8 GROUP        1 Z    SEL  0     **** SEL Z 16
    15 ASL3       35 GROUP        1 Z    ASL  0     **** ASL Z 17
    16 LYL4        2 GROUP        1 Z    LYL  0     **** LYL Z 18
    17 ZIL7        5 GROUP        1 Z    ZIL  0     **** ZIL Z 19
    18 GLL5       46 GROUP        1 Z    GLL  0     **** GLL Z 20
@<TRIPOS>SET

