#    Name: 3t9d_ANP_1_ligand
#    Modification time : Mon Mar 24 19:23:40 2014

@<TRIPOS>MOLECULE
3t9d_ANP_1_ligand
   43    45     1     0     0
SMALL
NO_CHARGES


@<TRIPOS>ATOM
      1 PG          2.0690   13.3150    9.3300 P.3       1 ANP401      0.0000 
      2 O1G         3.2750   13.5720    8.3410 O.co2     1 ANP401      0.0000 
      3 O2G         1.8290   14.3350   10.3430 O.co2     1 ANP401      0.0000 
      4 O3G         0.7270   13.0730    8.3870 O.co2     1 ANP401      0.0000 
      5 PB          1.6110   10.4670    9.9170 P.3       1 ANP401      0.0000 
      6 O1B         0.8580   10.1220   11.1360 O.co2     1 ANP401      0.0000 
      7 O2B         0.8530   10.4480    8.6320 O.co2     1 ANP401      0.0000 
      8 N3B         2.4340   11.8420   10.1390 N.4       1 ANP401      0.0000 
      9 PA          3.9420    8.9550    8.9590 P.3       1 ANP401      0.0000 
     10 O1A         3.6200    7.8510    8.0260 O.co2     1 ANP401      0.0000 
     11 O2A         4.4970   10.1950    8.4010 O.co2     1 ANP401      0.0000 
     12 O3A         2.7000    9.2590    9.9280 O.3       1 ANP401      0.0000 
     13 O5'         4.9340    8.3950   10.0540 O.3       1 ANP401      0.0000 
     14 C5'         5.4650    9.2820   11.0420 C.3       1 ANP401      0.0000 
     15 C4'         6.9960    9.2430   11.0780 C.3       1 ANP401      0.0000 
     16 O4'         7.4080    7.8970   11.3350 O.3       1 ANP401      0.0000 
     17 C3'         7.6020    9.5980    9.7390 C.3       1 ANP401      0.0000 
     18 O3'         7.7740   11.0030    9.6660 O.3       1 ANP401      0.0000 
     19 C2'         8.9400    8.8990    9.8080 C.3       1 ANP401      0.0000 
     20 O2'         9.8850    9.6450   10.6180 O.3       1 ANP401      0.0000 
     21 C1'         8.5930    7.6240   10.5520 C.3       1 ANP401      0.0000 
     22 N9          8.3030    6.5000    9.6240 N.pl3     1 ANP401      0.0000 
     23 C8          7.0080    6.1410    9.0620 C.2       1 ANP401      0.0000 
     24 N7          7.3230    4.9610    8.2910 N.2       1 ANP401      0.0000 
     25 C5          8.6300    4.7030    8.3940 C.ar      1 ANP401      0.0000 
     26 C6          9.3610    3.7130    7.8600 C.ar      1 ANP401      0.0000 
     27 N6          8.7320    2.8220    7.0780 N.pl3     1 ANP401      0.0000 
     28 N1         10.6730    3.6110    8.0920 N.ar      1 ANP401      0.0000 
     29 C2         11.3100    4.5570    8.8800 C.ar      1 ANP401      0.0000 
     30 N3         10.5320    5.5750    9.4450 N.ar      1 ANP401      0.0000 
     31 C4          9.2090    5.6190    9.1930 C.ar      1 ANP401      0.0000 
     32 H           5.1030    9.0260   12.0532 H         1 ANP401      0.0000 
     33 H           5.1644   10.3273   10.8520 H         1 ANP401      0.0000 
     34 H           7.3559    9.9055   11.8197 H         1 ANP401      0.0000 
     35 H           7.0264    9.1801    8.9801 H         1 ANP401      0.0000 
     36 H           9.2772    8.6639    8.8593 H         1 ANP401      0.0000 
     37 H           9.4104    7.3687   11.1974 H         1 ANP401      0.0000 
     38 H           6.2293    6.5482    9.1703 H         1 ANP401      0.0000 
     39 H           7.9205    3.1541    6.5972 H         1 ANP401      0.0000 
     40 H           9.1311    1.9056    7.0460 H         1 ANP401      0.0000 
     41 H          12.3093    4.5187    9.0463 H         1 ANP401      0.0000 
     42 H           8.7427   11.1556    9.8620 H         1 ANP401      0.0000 
     43 H          10.6947    9.7492   10.0406 H         1 ANP401      0.0000 
@<TRIPOS>BOND
     1    2    1 ar   
     2    3    1 ar   
     3    4    1 ar   
     4    8    1 1    
     5    6    5 ar   
     6    7    5 ar   
     7    8    5 1    
     8   12    5 1    
     9   10    9 ar   
    10   11    9 ar   
    11   12    9 1    
    12   13    9 1    
    13   14   13 1    
    14   15   14 1    
    15   32   14 1    
    16   33   14 1    
    17   16   15 1    
    18   17   15 1    
    19   34   15 1    
    20   21   16 1    
    21   18   17 1    
    22   19   17 1    
    23   35   17 1    
    24   42   18 1    
    25   20   19 1    
    26   21   19 1    
    27   36   19 1    
    28   43   20 1    
    29   22   21 1    
    30   37   21 1    
    31   23   22 1    
    32   31   22 1    
    33   24   23 2    
    34   38   23 1    
    35   25   24 1    
    36   26   25 ar   
    37   31   25 ar   
    38   27   26 1    
    39   28   26 ar   
    40   39   27 1    
    41   40   27 1    
    42   29   28 ar   
    43   30   29 ar   
    44   41   29 1    
    45   31   30 ar   
@<TRIPOS>SUBSTRUCTURE
     1 ANP401      1 GROUP   
@<TRIPOS>SET

