#    Name: 2HBU_1_CAVITY_N1_6.mol2
#    Modification time : Mon Mar 10 16:25:39 2014

@<TRIPOS>MOLECULE
2HBU_1_CAVITY_N1_6.mol2
   67     0     7     0     0
SMALL
NO_CHARGES


@<TRIPOS>ATOM
      1 NZ        -47.6199  -18.3917    2.5717 N.2       4 LYS4        0.0000 
      2 NZ        -45.5480  -18.0158    2.3148 N.2       4 LYS4        0.0000 
      3 CZ        -45.2299  -19.0803    3.3227 C.ar      5 PHE5        0.0000 
      4 OG        -44.2756  -22.2737    6.3462 O.2       1 SER1        0.0000 
      5 CA        -46.5488  -18.9271    1.6683 C.3       6 GLY6        0.0000 
      6 OG        -46.2307  -19.9915    2.6761 O.2       1 SER1        0.0000 
      7 OG        -45.9126  -21.0560    3.6840 O.2       1 SER1        0.0000 
      8 OG        -45.5945  -22.1204    4.6918 O.2       1 SER1        0.0000 
      9 OG        -45.2765  -23.1849    5.6997 O.2       1 SER1        0.0000 
     10 CA        -47.5496  -19.8383    1.0217 C.3       6 GLY6        0.0000 
     11 OG        -42.1572  -17.7932    3.7123 O.2       1 SER1        0.0000 
     12 CZ        -41.8391  -18.8576    4.7202 C.ar      5 PHE5        0.0000 
     13 NZ        -43.4761  -17.6399    2.0579 N.2       4 LYS4        0.0000 
     14 CZ        -43.1580  -18.7044    3.0658 C.ar      5 PHE5        0.0000 
     15 CZ        -42.8399  -19.7688    4.0736 C.ar      5 PHE5        0.0000 
     16 N         -42.5218  -20.8333    5.0815 N.2       2 ALA2        0.0000 
     17 CA        -44.4769  -18.5512    1.4114 C.3       6 GLY6        0.0000 
     18 CA        -44.1588  -19.6156    2.4192 C.3       6 GLY6        0.0000 
     19 OG        -43.8407  -20.6801    3.4271 O.2       1 SER1        0.0000 
     20 OG        -43.5227  -21.7445    4.4349 O.2       1 SER1        0.0000 
     21 CA        -43.2046  -22.8090    5.4428 C.3       6 GLY6        0.0000 
     22 CA        -45.4777  -19.4624    0.7648 C.3       6 GLY6        0.0000 
     23 CA        -45.1596  -20.5269    1.7727 C.3       6 GLY6        0.0000 
     24 OG        -44.8416  -21.5913    2.7805 O.2       1 SER1        0.0000 
     25 OG        -44.5235  -22.6558    3.7884 O.2       1 SER1        0.0000 
     26 NZ        -44.2054  -23.7202    4.7962 N.2       4 LYS4        0.0000 
     27 CA        -46.1605  -21.4381    1.1261 C.3       6 GLY6        0.0000 
     28 DU        -45.8424  -22.5026    2.1340 H         7 CUB7        0.0000 
     29 DU        -45.5243  -23.5670    3.1418 H         7 CUB7        0.0000 
     30 N         -45.2062  -24.6315    4.1497 N.2       2 ALA2        0.0000 
     31 CA        -38.4483  -18.6349    6.1177 C.3       6 GLY6        0.0000 
     32 CZ        -40.4034  -16.3528    2.4476 C.ar      5 PHE5        0.0000 
     33 OG        -39.7672  -18.4817    4.4633 O.2       1 SER1        0.0000 
     34 OD1       -39.4492  -19.5462    5.4711 O.3       3 ASP3        0.0000 
     35 CA        -41.4042  -17.2640    1.8010 C.3       6 GLY6        0.0000 
     36 OG        -41.0861  -18.3285    2.8089 O.2       1 SER1        0.0000 
     37 OD1       -40.7681  -19.3929    3.8167 O.3       3 ASP3        0.0000 
     38 CA        -42.0870  -19.2397    2.1623 C.3       6 GLY6        0.0000 
     39 CA        -41.7689  -20.3042    3.1702 C.3       6 GLY6        0.0000 
     40 CA        -42.7697  -21.2154    2.5236 C.3       6 GLY6        0.0000 
     41 OD1       -42.4516  -22.2799    3.5315 O.3       3 ASP3        0.0000 
     42 CZ        -43.7705  -22.1267    1.8771 C.ar      5 PHE5        0.0000 
     43 CZ        -43.4524  -23.1911    2.8849 C.ar      5 PHE5        0.0000 
     44 NZ        -43.1343  -24.2556    3.8928 N.2       4 LYS4        0.0000 
     45 CZ        -44.7713  -23.0379    1.2305 C.ar      5 PHE5        0.0000 
     46 CZ        -44.4532  -24.1023    2.2384 C.ar      5 PHE5        0.0000 
     47 O         -45.4540  -25.0136    1.5918 O.2       2 ALA2        0.0000 
     48 CA        -36.6945  -17.1946    4.8529 C.3       6 GLY6        0.0000 
     49 CA        -36.3765  -18.2590    5.8608 C.3       6 GLY6        0.0000 
     50 O         -38.0134  -17.0414    3.1985 O.2       2 ALA2        0.0000 
     51 CA        -37.6954  -18.1058    4.2064 C.3       6 GLY6        0.0000 
     52 CA        -37.3773  -19.1703    5.2142 C.3       6 GLY6        0.0000 
     53 CA        -39.3323  -16.8881    1.5441 C.3       6 GLY6        0.0000 
     54 OG        -39.0143  -17.9526    2.5520 O.2       1 SER1        0.0000 
     55 DU        -38.6962  -19.0170    3.5598 H         7 CUB7        0.0000 
     56 OD1       -38.3781  -20.0815    4.5677 O.3       3 ASP3        0.0000 
     57 CA        -40.3332  -17.7994    0.8976 C.3       6 GLY6        0.0000 
     58 CA        -40.0151  -18.8638    1.9054 C.3       6 GLY6        0.0000 
     59 OD1       -39.6970  -19.9283    2.9133 O.3       3 ASP3        0.0000 
     60 CA        -40.6978  -20.8395    2.2667 C.3       6 GLY6        0.0000 
     61 OD1       -40.3797  -21.9040    3.2746 O.3       3 ASP3        0.0000 
     62 CZ        -41.6986  -21.7508    1.6202 C.ar      5 PHE5        0.0000 
     63 CA        -36.9424  -17.5767    2.2951 C.3       6 GLY6        0.0000 
     64 CA        -36.6243  -18.6411    3.3029 C.3       6 GLY6        0.0000 
     65 OG        -37.9432  -18.4879    1.6485 O.2       1 SER1        0.0000 
     66 CA        -37.6251  -19.5524    2.6564 C.3       6 GLY6        0.0000 
     67 OG        -38.6259  -20.4636    2.0098 O.2       1 SER1        0.0000 
@<TRIPOS>BOND
@<TRIPOS>SUBSTRUCTURE
     1 SER1        4 GROUP   
     2 ALA2       16 GROUP   
     3 ASP3       34 GROUP   
     4 LYS4        1 GROUP   
     5 PHE5        3 GROUP   
     6 GLY6        5 GROUP   
     7 CUB7       28 GROUP   
@<TRIPOS>SET

