#    Name: 2hbu_UN9_1_INTS_M
#    Modification time : Tue Mar 25 15:51:01 2014

@<TRIPOS>MOLECULE
2hbu_UN9_1_INTS_M
   49     0    15     0     0
SMALL
NO_CHARGES


@<TRIPOS>ATOM
      1 NZ        -36.4765  -15.6855    3.4320 N.4       3 LYC4        0.0000 
      2 NZ        -36.9050  -17.0500    3.3600 N.4      13 LYL4        0.0000 
      3 NZ        -35.1830  -13.9670    4.4570 N.4       8 LYP4        0.0000 
      4 N         -36.4765  -15.6855    3.4320 N.am      2 SEC2        0.0000 
      5 N         -36.9050  -17.0500    3.3600 N.am     12 SEL2        0.0000 
      6 N         -36.0480  -14.3210    3.5040 N.am      7 SEP2        0.0000 
      7 NZ        -34.8225  -16.2160    4.8885 N.4       3 LYC4        0.0000 
      8 NZ        -35.1120  -17.5330    4.6060 N.4      13 LYL4        0.0000 
      9 N         -33.9865  -18.0035    4.1110 N.am      2 SEC2        0.0000 
     10 N         -35.1120  -17.5330    4.6060 N.am     12 SEL2        0.0000 
     11 N         -32.8610  -18.4740    3.6160 N.am      7 SEP2        0.0000 
     12 N         -34.8225  -16.2160    4.8885 N.am      2 SEC2        0.0000 
     13 N         -34.5330  -14.8990    5.1710 N.am      7 SEP2        0.0000 
     14 CA        -36.2350  -19.9735    3.7715 C.3       5 GLC5        0.0000 
     15 CA        -37.0570  -18.7560    5.0040 C.3      15 GLL5        0.0000 
     16 CA        -35.4130  -21.1910    2.5390 C.3      10 GLP5        0.0000 
     17 CA        -35.9815  -19.1550    6.4025 C.3       5 GLC5        0.0000 
     18 CA        -34.9060  -19.5540    7.8010 C.3      10 GLP5        0.0000 
     19 CA        -37.4995  -17.5230    6.0075 C.3       5 GLC5        0.0000 
     20 CA        -37.9420  -16.2900    7.0110 C.3      10 GLP5        0.0000 
     21 Zn        -39.4440  -21.5525    5.7070 Zn        4 ZIC7        0.0000 
     22 Zn        -38.9910  -20.6250    5.6850 Zn       14 ZIL7        0.0000 
     23 Zn        -39.8970  -22.4800    5.7290 Zn        9 ZIP7        0.0000 
     24 Zn        -40.5430  -21.7855    5.1340 Zn        4 ZIC7        0.0000 
     25 Zn        -41.1890  -21.0910    4.5390 Zn       14 ZIL7        0.0000 
     26 CA        -42.5425  -24.8705    5.2385 C.3       5 GLC5        0.0000 
     27 CA        -43.0990  -22.9290    4.3570 C.3      15 GLL5        0.0000 
     28 CA        -41.9860  -26.8120    6.1200 C.3      10 GLP5        0.0000 
     29 CA        -42.2570  -23.5700    2.6505 C.3       5 GLC5        0.0000 
     30 CA        -41.4150  -24.2110    0.9440 C.3      10 GLP5        0.0000 
     31 O         -40.7590  -16.6965    4.1730 O.2       1 ALC1        0.0000 
     32 O         -40.6100  -17.6990    3.4440 O.2      11 ALL1        0.0000 
     33 O         -40.9080  -15.6940    4.9020 O.2       6 ALP1        0.0000 
     34 CA        -44.4100  -19.9650    0.5000 C.3       5 GLC5        0.0000 
     35 CA        -45.1440  -19.7350    2.1860 C.3      15 GLL5        0.0000 
     36 CA        -43.6760  -20.1950   -1.1860 C.3      10 GLP5        0.0000 
     37 CA        -43.2735  -20.3025    1.2955 C.3       5 GLC5        0.0000 
     38 CA        -44.4320  -20.7030    2.9100 C.3      15 GLL5        0.0000 
     39 CA        -42.1150  -19.9020   -0.3190 C.3      10 GLP5        0.0000 
     40 CA        -42.3962  -22.5053    6.0715 C.3       5 GLC5        0.0000 
     41 CA        -42.4160  -21.3140    4.0650 C.3      15 GLL5        0.0000 
     42 CA        -42.0350  -22.8890    7.9320 C.3      10 GLP5        0.0000 
     43 CA        -42.0985  -19.6001    1.5493 C.3       5 GLC5        0.0000 
     44 CA        -43.1490  -20.3560    3.3570 C.3      15 GLL5        0.0000 
     45 CA        -44.4145  -17.3295    0.5208 C.3       5 GLC5        0.0000 
     46 CA        -43.3360  -18.1600    2.4050 C.3      15 GLL5        0.0000 
     47 CA        -44.8510  -16.3400   -1.1360 C.3      10 GLP5        0.0000 
     48 CA        -43.0465  -19.1105    0.9292 C.3       5 GLC5        0.0000 
     49 CA        -44.6200  -18.4780    1.9500 C.3      15 GLL5        0.0000 
@<TRIPOS>BOND
@<TRIPOS>SUBSTRUCTURE
     1 ALC1       31 GROUP        1 X    ALC  0     ROOT ALC X 1
     2 SEC2        4 GROUP        1 X    SEC  0     **** SEC X 2
     3 LYC4        1 GROUP        1 X    LYC  0     **** LYC X 4
     4 ZIC7       21 GROUP        1 X    ZIC  0     **** ZIC X 5
     5 GLC5       14 GROUP        1 X    GLC  0     **** GLC X 6
     6 ALP1       33 GROUP        1 Y    ALP  0     ROOT ALP Y 8
     7 SEP2        6 GROUP        1 Y    SEP  0     **** SEP Y 9
     8 LYP4        3 GROUP        1 Y    LYP  0     **** LYP Y 11
     9 ZIP7       23 GROUP        1 Y    ZIP  0     **** ZIP Y 12
    10 GLP5       16 GROUP        1 Y    GLP  0     **** GLP Y 13
    11 ALL1       32 GROUP        1 Z    ALL  0     ROOT ALL Z 15
    12 SEL2        5 GROUP        1 Z    SEL  0     **** SEL Z 16
    13 LYL4        2 GROUP        1 Z    LYL  0     **** LYL Z 18
    14 ZIL7       22 GROUP        1 Z    ZIL  0     **** ZIL Z 19
    15 GLL5       15 GROUP        1 Z    GLL  0     **** GLL Z 20
@<TRIPOS>SET

