#    Name: 2hbu_UN9_1_ligand
#    Modification time : Tue Mar 25 15:51:01 2014

@<TRIPOS>MOLECULE
2hbu_UN9_1_ligand
   27    28     1     0     0
SMALL
NO_CHARGES


@<TRIPOS>ATOM
      1 O18       -36.9050  -17.0500    3.3600 O.co2     1 UN91        0.0000 
      2 C16       -36.2920  -17.7030    4.2480 C.2       1 UN91        0.0000 
      3 O17       -35.1120  -17.5330    4.6060 O.co2     1 UN91        0.0000 
      4 C15       -37.0570  -18.7560    5.0040 C.3       1 UN91        0.0000 
      5 N14       -38.4230  -18.7710    4.4950 N.am      1 UN91        0.0000 
      6 C12       -39.2850  -19.7370    4.8740 C.2       1 UN91        0.0000 
      7 O13       -38.9910  -20.6250    5.6850 O.2       1 UN91        0.0000 
      8 C9        -40.6440  -19.8540    4.3190 C.ar      1 UN91        0.0000 
      9 N8        -41.1890  -21.0910    4.5390 N.ar      1 UN91        0.0000 
     10 C7        -42.4160  -21.3140    4.0650 C.ar      1 UN91        0.0000 
     11 CL1       -43.0990  -22.9290    4.3570 Cl        1 UN91        0.0000 
     12 C2        -43.1490  -20.3560    3.3570 C.ar      1 UN91        0.0000 
     13 C10       -41.2900  -18.8650    3.5990 C.ar      1 UN91        0.0000 
     14 O19       -40.6100  -17.6990    3.4440 O.3       1 UN91        0.0000 
     15 C3        -42.5990  -19.1070    3.1150 C.ar      1 UN91        0.0000 
     16 C4        -43.3360  -18.1600    2.4050 C.ar      1 UN91        0.0000 
     17 C5        -44.6200  -18.4780    1.9500 C.ar      1 UN91        0.0000 
     18 C6        -45.1440  -19.7350    2.1860 C.ar      1 UN91        0.0000 
     19 C1        -44.4320  -20.7030    2.9100 C.ar      1 UN91        0.0000 
     20 H         -37.0408  -18.5123    6.0635 H         1 UN91        0.0000 
     21 H         -36.5762  -19.7194    4.8523 H         1 UN91        0.0000 
     22 H         -38.6853  -18.0184    3.8443 H         1 UN91        0.0000 
     23 H         -42.9404  -17.2339    2.2161 H         1 UN91        0.0000 
     24 H         -45.1674  -17.7722    1.4412 H         1 UN91        0.0000 
     25 H         -46.0863  -19.9773    1.8226 H         1 UN91        0.0000 
     26 H         -44.8257  -21.6080    3.1003 H         1 UN91        0.0000 
     27 H         -41.2122  -16.9960    3.8225 H         1 UN91        0.0000 
@<TRIPOS>BOND
     1    2    1 ar   
     2    3    2 ar   
     3    4    2 1    
     4    5    4 1    
     5   20    4 1    
     6   21    4 1    
     7    6    5 am   
     8   22    5 1    
     9    7    6 2    
    10    8    6 1    
    11    9    8 ar   
    12   13    8 ar   
    13   10    9 ar   
    14   11   10 1    
    15   12   10 ar   
    16   15   12 ar   
    17   19   12 ar   
    18   14   13 1    
    19   15   13 ar   
    20   27   14 1    
    21   16   15 ar   
    22   17   16 ar   
    23   23   16 1    
    24   18   17 ar   
    25   24   17 1    
    26   19   18 ar   
    27   25   18 1    
    28   26   19 1    
@<TRIPOS>SUBSTRUCTURE
     1 UN91        1 GROUP   
@<TRIPOS>SET

