#    Name: 1ke9_LS5_1_INTS_M
#    Modification time : Tue Mar 25 09:51:52 2014

@<TRIPOS>MOLECULE
1ke9_LS5_1_INTS_M
   51     0     9     0     0
SMALL
NO_CHARGES


@<TRIPOS>ATOM
      1 O         -10.3420   54.0155   13.5720 O.2       1 ALC1        0.0000 
      2 O          -9.5700   52.7640   13.5930 O.2       7 ALL1        0.0000 
      3 O         -11.1140   55.2670   13.5510 O.2       4 ALP1        0.0000 
      4 CA         -8.0690   48.8930   16.9085 C.3       3 GLC5        0.0000 
      5 CA         -7.0590   50.4430   16.0050 C.3       9 GLL5        0.0000 
      6 CA         -9.0790   47.3430   17.8120 C.3       6 GLP5        0.0000 
      7 N         -11.3380   52.9320   10.7355 N.am      2 SEC2        0.0000 
      8 N         -10.8660   52.0250   11.8180 N.am      8 SEL2        0.0000 
      9 N         -11.8100   53.8390    9.6530 N.am      5 SEP2        0.0000 
     10 CA        -10.4035   47.8100   12.4165 C.3       3 GLC5        0.0000 
     11 CA         -9.3980   49.4830   12.1580 C.3       9 GLL5        0.0000 
     12 CA        -11.4090   46.1370   12.6750 C.3       6 GLP5        0.0000 
     13 CA         -8.3140   50.1030   10.8310 C.3       3 GLC5        0.0000 
     14 CA         -7.2300   50.7230    9.5040 C.3       6 GLP5        0.0000 
     15 N          -8.8970   47.0125    5.7580 N.am      2 SEC2        0.0000 
     16 N         -10.2260   45.9490    5.6880 N.am      8 SEL2        0.0000 
     17 N          -7.5680   48.0760    5.8280 N.am      5 SEP2        0.0000 
     18 CA        -10.5738   51.4398   14.4180 C.3       3 GLC5        0.0000 
     19 CA         -9.3120   50.5910   12.9160 C.3       9 GLL5        0.0000 
     20 CA        -12.2340   52.1640   15.3300 C.3       6 GLP5        0.0000 
     21 CA         -9.5572   49.4715   15.6140 C.3       3 GLC5        0.0000 
     22 CA         -8.5150   50.8400   14.0960 C.3       9 GLL5        0.0000 
     23 CA        -11.0070   48.5480   16.7600 C.3       6 GLP5        0.0000 
     24 CA         -5.8667   51.3128   14.5797 C.3       3 GLC5        0.0000 
     25 CA         -7.7000   49.9500   14.8400 C.3       9 GLL5        0.0000 
     26 CA         -4.3540   52.4290   13.7370 C.3       6 GLP5        0.0000 
     27 CA         -5.9785   52.3295   14.8502 C.3       3 GLC5        0.0000 
     28 CA         -7.9970   52.6630   15.5720 C.3       9 GLL5        0.0000 
     29 CA        -10.2868   52.2865   15.1715 C.3       3 GLC5        0.0000 
     30 CA         -8.0382   54.2780   14.4145 C.3       3 GLC5        0.0000 
     31 CA         -8.6820   52.1550   14.4540 C.3       9 GLL5        0.0000 
     32 CA         -7.7370   56.1470   13.8160 C.3       6 GLP5        0.0000 
     33 CA         -9.0818   53.6342   16.1389 C.3       3 GLC5        0.0000 
     34 CA        -10.0210   55.0760   17.0690 C.3       6 GLP5        0.0000 
     35 CA         -7.9719   52.0926   12.4470 C.3       3 GLC5        0.0000 
     36 CA         -7.1460   52.7500   10.9140 C.3       6 GLP5        0.0000 
     37 CA         -6.4763   51.9633   14.0060 C.3       3 GLC5        0.0000 
     38 CA        -11.1368   47.2972   11.1535 C.3       3 GLC5        0.0000 
     39 CA        -10.3340   48.4460   10.0880 C.3       9 GLL5        0.0000 
     40 CA         -8.5542   49.3167    9.7888 C.3       3 GLC5        0.0000 
     41 CA        -12.0785   49.5230    7.3250 C.3       3 GLC5        0.0000 
     42 CA        -11.3950   48.4690    9.1760 C.3       9 GLL5        0.0000 
     43 CA        -12.7050   51.0720    5.9650 C.3       6 GLP5        0.0000 
     44 CA        -10.3670   47.9525    6.5995 C.3       3 GLC5        0.0000 
     45 CA        -11.5090   47.4790    8.1940 C.3       9 GLL5        0.0000 
     46 CA         -9.6960   48.9440    5.0290 C.3       6 GLP5        0.0000 
     47 CA        -10.4473   46.5063   11.1270 C.3       3 GLC5        0.0000 
     48 CA         -9.5480   46.3760    9.0990 C.3       9 GLL5        0.0000 
     49 CA         -7.6993   47.0977    8.5650 C.3       3 GLC5        0.0000 
     50 CA         -9.4230   47.3750   10.0590 C.3       9 GLL5        0.0000 
     51 CA         -5.9130   47.3200    7.5510 C.3       6 GLP5        0.0000 
@<TRIPOS>BOND
@<TRIPOS>SUBSTRUCTURE
     1 ALC1        1 GROUP        1 X    ALC  0     ROOT ALC X 1
     2 SEC2        7 GROUP        1 X    SEC  0     **** SEC X 2
     3 GLC5        4 GROUP        1 X    GLC  0     **** GLC X 6
     4 ALP1        3 GROUP        1 Y    ALP  0     ROOT ALP Y 8
     5 SEP2        9 GROUP        1 Y    SEP  0     **** SEP Y 9
     6 GLP5        6 GROUP        1 Y    GLP  0     **** GLP Y 13
     7 ALL1        2 GROUP        1 Z    ALL  0     ROOT ALL Z 15
     8 SEL2        8 GROUP        1 Z    SEL  0     **** SEL Z 16
     9 GLL5        5 GROUP        1 Z    GLL  0     **** GLL Z 20
@<TRIPOS>SET

