#    Name: 1ke9_LS5_1_ligand
#    Modification time : Tue Mar 25 09:51:52 2014

@<TRIPOS>MOLECULE
1ke9_LS5_1_ligand
   41    43     1     0     0
SMALL
NO_CHARGES


@<TRIPOS>ATOM
      1 N1         -9.5700   52.7640   13.5930 N.am      1 LS5299      0.0000 
      2 C2        -10.0190   51.8650   12.6860 C.2       1 LS5299      0.0000 
      3 C3         -9.3120   50.5910   12.9160 C.2       1 LS5299      0.0000 
      4 C4         -7.7000   49.9500   14.8400 C.ar      1 LS5299      0.0000 
      5 C5         -7.0590   50.4430   16.0050 C.ar      1 LS5299      0.0000 
      6 C6         -7.2090   51.7970   16.3550 C.ar      1 LS5299      0.0000 
      7 C7         -7.9970   52.6630   15.5720 C.ar      1 LS5299      0.0000 
      8 C8         -8.6820   52.1550   14.4540 C.ar      1 LS5299      0.0000 
      9 C9         -8.5150   50.8400   14.0960 C.ar      1 LS5299      0.0000 
     10 O11       -10.8660   52.0250   11.8180 O.2       1 LS5299      0.0000 
     11 C12        -9.3980   49.4830   12.1580 C.2       1 LS5299      0.0000 
     12 N17       -10.2490   49.4850   10.9500 N.pl3     1 LS5299      0.0000 
     13 C20       -10.3340   48.4460   10.0880 C.ar      1 LS5299      0.0000 
     14 C21       -11.3950   48.4690    9.1760 C.ar      1 LS5299      0.0000 
     15 C22       -11.5090   47.4790    8.1940 C.ar      1 LS5299      0.0000 
     16 C23       -10.5670   46.4430    8.1460 C.ar      1 LS5299      0.0000 
     17 C24        -9.5480   46.3760    9.0990 C.ar      1 LS5299      0.0000 
     18 C25        -9.4230   47.3750   10.0590 C.ar      1 LS5299      0.0000 
     19 S30       -10.7040   45.2560    6.8260 S.o2      1 LS5299      0.0000 
     20 O31       -10.2000   43.9530    7.1760 O.2       1 LS5299      0.0000 
     21 O32       -10.2260   45.9490    5.6880 O.2       1 LS5299      0.0000 
     22 N33       -12.3310   45.0510    6.7050 N.pl3     1 LS5299      0.0000 
     23 C35       -13.0290   44.3140    7.6640 C.cat     1 LS5299      0.0000 
     24 N36       -12.4570   43.3530    8.4190 N.pl3     1 LS5299      0.0000 
     25 N37       -14.3340   44.5470    7.8660 N.pl3     1 LS5299      0.0000 
     26 H          -9.8252   53.6966   13.6416 H         1 LS5299      0.0000 
     27 H          -7.5795   48.9940   14.5494 H         1 LS5299      0.0000 
     28 H          -6.4972   49.8192   16.5786 H         1 LS5299      0.0000 
     29 H          -6.7372   52.1606   17.1939 H         1 LS5299      0.0000 
     30 H          -8.0694   53.6501   15.8148 H         1 LS5299      0.0000 
     31 H          -8.9011   48.6153   12.3660 H         1 LS5299      0.0000 
     32 H         -10.7985   50.3650   10.7968 H         1 LS5299      0.0000 
     33 H         -12.0967   49.2198    9.2280 H         1 LS5299      0.0000 
     34 H         -12.2731   47.5105    7.5166 H         1 LS5299      0.0000 
     35 H          -8.8904   45.5859    9.0888 H         1 LS5299      0.0000 
     36 H          -8.6656   47.3364   10.7514 H         1 LS5299      0.0000 
     37 H         -12.7234   45.4963    5.9053 H         1 LS5299      0.0000 
     38 H         -13.0655   42.8640    9.0439 H         1 LS5299      0.0000 
     39 H         -11.4754   43.2153    8.2865 H         1 LS5299      0.0000 
     40 H         -14.7691   44.0136    8.5914 H         1 LS5299      0.0000 
     41 H         -14.7554   45.2333    7.2731 H         1 LS5299      0.0000 
@<TRIPOS>BOND
     1    2    1 am   
     2    8    1 1    
     3   26    1 1    
     4    3    2 1    
     5   10    2 2    
     6    9    3 1    
     7   11    3 2    
     8    5    4 ar   
     9    9    4 ar   
    10   27    4 1    
    11    6    5 ar   
    12   28    5 1    
    13    7    6 ar   
    14   29    6 1    
    15    8    7 ar   
    16   30    7 1    
    17    9    8 ar   
    18   12   11 1    
    19   31   11 1    
    20   13   12 1    
    21   32   12 1    
    22   14   13 ar   
    23   18   13 ar   
    24   15   14 ar   
    25   33   14 1    
    26   16   15 ar   
    27   34   15 1    
    28   17   16 ar   
    29   19   16 1    
    30   18   17 ar   
    31   35   17 1    
    32   36   18 1    
    33   20   19 2    
    34   21   19 2    
    35   22   19 1    
    36   23   22 ar   
    37   37   22 1    
    38   24   23 ar   
    39   25   23 ar   
    40   38   24 1    
    41   39   24 1    
    42   40   25 1    
    43   41   25 1    
@<TRIPOS>SUBSTRUCTURE
     1 LS5299      1 GROUP   
@<TRIPOS>SET

