#    Name: 3m8s_HXB_1_INTS_M
#    Modification time : Mon Mar 24 22:52:13 2014

@<TRIPOS>MOLECULE
3m8s_HXB_1_INTS_M
   67     0    12     0     0
SMALL
NO_CHARGES


@<TRIPOS>ATOM
      1 CA         19.9685  -20.8780  -13.4660 C.3       4 GLC5        0.0000 
      2 CA         19.1760  -21.3230  -11.6890 C.3      12 GLL5        0.0000 
      3 CA         20.7610  -20.4330  -15.2430 C.3       8 GLP5        0.0000 
      4 N          18.2165  -22.3875   -6.0380 N.am      1 SEC2        0.0000 
      5 N          18.4130  -20.8830   -5.8010 N.am      9 SEL2        0.0000 
      6 N          18.0200  -23.8920   -6.2750 N.am      5 SEP2        0.0000 
      7 N          15.5055  -15.5355  -13.8105 N.am      1 SEC2        0.0000 
      8 N          16.3830  -14.9140  -12.7580 N.am      9 SEL2        0.0000 
      9 N          14.6280  -16.1570  -14.8630 N.am      5 SEP2        0.0000 
     10 NZ         15.3250  -12.3200  -14.1250 N.4       2 LYC4        0.0000 
     11 NZ         16.1230  -13.4210  -14.7280 N.4      10 LYL4        0.0000 
     12 NZ         15.1040  -10.2120  -12.8840 N.4       6 LYP4        0.0000 
     13 N          15.3755  -14.7890  -14.7955 N.am      1 SEC2        0.0000 
     14 N          16.1230  -13.4210  -14.7280 N.am      9 SEL2        0.0000 
     15 N          15.3250  -12.3200  -14.1250 N.am      1 SEC2        0.0000 
     16 N          14.5270  -11.2190  -13.5220 N.am      5 SEP2        0.0000 
     17 Zn         18.6160  -15.5530  -14.6595 Zn        3 ZIC7        0.0000 
     18 Zn         18.2790  -14.7060  -14.5100 Zn       11 ZIL7        0.0000 
     19 Zn         18.9530  -16.4000  -14.8090 Zn        7 ZIP7        0.0000 
     20 NZ         17.0810  -11.5055  -12.8090 N.4       2 LYC4        0.0000 
     21 NZ         17.7530  -12.7700  -12.9690 N.4      10 LYL4        0.0000 
     22 NZ         18.5380  -12.6820  -11.8805 N.4       2 LYC4        0.0000 
     23 NZ         19.3230  -12.5940  -10.7920 N.4       6 LYP4        0.0000 
     24 N          17.0810  -11.5055  -12.8090 N.am      1 SEC2        0.0000 
     25 N          17.7530  -12.7700  -12.9690 N.am      9 SEL2        0.0000 
     26 N          16.4090  -10.2410  -12.6490 N.am      5 SEP2        0.0000 
     27 N          18.5380  -12.6820  -11.8805 N.am      1 SEC2        0.0000 
     28 N          19.3230  -12.5940  -10.7920 N.am      5 SEP2        0.0000 
     29 N          14.9680  -15.9385  -10.8725 N.am      1 SEC2        0.0000 
     30 N          15.9240  -17.0070  -11.4630 N.am      9 SEL2        0.0000 
     31 N          14.0120  -14.8700  -10.2820 N.am      5 SEP2        0.0000 
     32 Zn         18.2245  -16.7635  -14.1180 Zn        3 ZIC7        0.0000 
     33 Zn         17.4960  -17.1270  -13.4270 Zn       11 ZIL7        0.0000 
     34 N          16.1700  -18.0565  -13.8490 N.am      1 SEC2        0.0000 
     35 N          17.4960  -17.1270  -13.4270 N.am      9 SEL2        0.0000 
     36 N          14.8440  -18.9860  -14.2710 N.am      5 SEP2        0.0000 
     37 CA         17.2580  -18.9170   -8.4060 C.3       4 GLC5        0.0000 
     38 CA         18.9290  -20.1890   -8.4640 C.3      12 GLL5        0.0000 
     39 CA         15.5870  -17.6450   -8.3480 C.3       8 GLP5        0.0000 
     40 Zn         21.1765  -16.4255  -13.3570 Zn        3 ZIC7        0.0000 
     41 Zn         19.9760  -16.2710  -12.9730 Zn       11 ZIL7        0.0000 
     42 Zn         22.3770  -16.5800  -13.7410 Zn        7 ZIP7        0.0000 
     43 Zn         19.4645  -16.3355  -13.8910 Zn        3 ZIC7        0.0000 
     44 NZ         19.9360  -13.9250  -10.7640 N.4       2 LYC4        0.0000 
     45 NZ         20.5490  -15.2560  -10.7360 N.4      10 LYL4        0.0000 
     46 N          19.9360  -13.9250  -10.7640 N.am      1 SEC2        0.0000 
     47 N          20.5490  -15.2560  -10.7360 N.am      9 SEL2        0.0000 
     48 N          15.6335  -20.6400  -12.0275 N.am      1 SEC2        0.0000 
     49 N          16.7160  -19.8470  -11.3740 N.am      9 SEL2        0.0000 
     50 N          14.5510  -21.4330  -12.6810 N.am      5 SEP2        0.0000 
     51 CA         20.2765  -19.6810  -13.4260 C.3       4 GLC5        0.0000 
     52 CA         19.7920  -18.9290  -11.6090 C.3      12 GLL5        0.0000 
     53 CA         18.5395  -14.4760   -6.8445 C.3       4 GLC5        0.0000 
     54 CA         20.3110  -15.7160   -6.7060 C.3      12 GLL5        0.0000 
     55 CA         16.7680  -13.2360   -6.9830 C.3       8 GLP5        0.0000 
     56 CA         17.6785  -22.0175  -11.0175 C.3       4 GLC5        0.0000 
     57 CA         16.1840  -23.3310  -10.7640 C.3       8 GLP5        0.0000 
     58 CA         17.7260  -17.6758   -6.9990 C.3       4 GLC5        0.0000 
     59 CA         19.6180  -18.0210   -7.5710 C.3      12 GLL5        0.0000 
     60 CA         15.7440  -17.7870   -6.9820 C.3       8 GLP5        0.0000 
     61 CA         16.9195  -21.6878  -10.2770 C.3       4 GLC5        0.0000 
     62 CA         17.5680  -20.3680   -9.1360 C.3      12 GLL5        0.0000 
     63 CA         16.1750  -19.2482   -9.4080 C.3       4 GLC5        0.0000 
     64 CA         14.6950  -18.4520   -9.0260 C.3       8 GLP5        0.0000 
     65 CA         17.7527  -20.7197  -12.6678 C.3       4 GLC5        0.0000 
     66 CA         17.7420  -19.7210  -10.4440 C.3      12 GLL5        0.0000 
     67 CA         17.0480  -21.2270  -14.4780 C.3       8 GLP5        0.0000 
@<TRIPOS>BOND
@<TRIPOS>SUBSTRUCTURE
     1 SEC2        4 GROUP        1 X    SEC  0     ROOT SEC X 2
     2 LYC4       10 GROUP        1 X    LYC  0     **** LYC X 4
     3 ZIC7       17 GROUP        1 X    ZIC  0     **** ZIC X 5
     4 GLC5        1 GROUP        1 X    GLC  0     **** GLC X 6
     5 SEP2        6 GROUP        1 Y    SEP  0     ROOT SEP Y 9
     6 LYP4       12 GROUP        1 Y    LYP  0     **** LYP Y 11
     7 ZIP7       19 GROUP        1 Y    ZIP  0     **** ZIP Y 12
     8 GLP5        3 GROUP        1 Y    GLP  0     **** GLP Y 13
     9 SEL2        5 GROUP        1 Z    SEL  0     ROOT SEL Z 16
    10 LYL4       11 GROUP        1 Z    LYL  0     **** LYL Z 18
    11 ZIL7       18 GROUP        1 Z    ZIL  0     **** ZIL Z 19
    12 GLL5        2 GROUP        1 Z    GLL  0     **** GLL Z 20
@<TRIPOS>SET

