#    Name: 3m8s_HXB_1_ligand
#    Modification time : Mon Mar 24 22:52:13 2014

@<TRIPOS>MOLECULE
3m8s_HXB_1_ligand
   45    46     1     0     0
SMALL
NO_CHARGES


@<TRIPOS>ATOM
      1 C1         19.1760  -21.3230  -11.6890 C.3       1 HXB113      0.0000 
      2 N1         19.1540  -19.2830   -7.3410 N.am      1 HXB113      0.0000 
      3 O1         18.1530  -15.9420  -11.2270 O.3       1 HXB113      0.0000 
      4 P1         19.6540  -16.3050  -11.4920 P.3       1 HXB113      0.0000 
      5 C2         18.8200  -19.7310   -5.9860 C.2       1 HXB113      0.0000 
      6 O2         18.4130  -20.8830   -5.8010 O.2       1 HXB113      0.0000 
      7 P2         16.9990  -16.2620  -12.2260 P.3       1 HXB113      0.0000 
      8 N3         19.0010  -18.8280   -4.8930 N.am      1 HXB113      0.0000 
      9 O3         16.3830  -14.9140  -12.7580 O.3       1 HXB113      0.0000 
     10 P3         17.1360  -13.9580  -13.7490 P.3       1 HXB113      0.0000 
     11 C4         19.4780  -17.5500   -5.1150 C.2       1 HXB113      0.0000 
     12 O4         19.6230  -16.7900   -4.1630 O.2       1 HXB113      0.0000 
     13 C5         19.7980  -17.1080   -6.4610 C.2       1 HXB113      0.0000 
     14 O5         16.1230  -13.4210  -14.7280 O.co2     1 HXB113      0.0000 
     15 C6         19.6180  -18.0210   -7.5710 C.2       1 HXB113      0.0000 
     16 O6         18.2790  -14.7060  -14.5100 O.co2     1 HXB113      0.0000 
     17 O7         17.7530  -12.7700  -12.9690 O.co2     1 HXB113      0.0000 
     18 O8         15.9240  -17.0070  -11.4630 O.co2     1 HXB113      0.0000 
     19 O9         17.4960  -17.1270  -13.4270 O.co2     1 HXB113      0.0000 
     20 C1'        18.9290  -20.1890   -8.4640 C.3       1 HXB113      0.0000 
     21 O10        19.9760  -16.2710  -12.9730 O.co2     1 HXB113      0.0000 
     22 O11        20.5490  -15.2560  -10.7360 O.co2     1 HXB113      0.0000 
     23 C2'        17.5680  -20.3680   -9.1360 C.3       1 HXB113      0.0000 
     24 C3'        17.7420  -19.7210  -10.4440 C.3       1 HXB113      0.0000 
     25 O3'        16.7160  -19.8470  -11.3740 O.3       1 HXB113      0.0000 
     26 C4'        19.1700  -20.0850  -10.8530 C.3       1 HXB113      0.0000 
     27 O4'        19.9020  -20.3560   -9.5940 O.3       1 HXB113      0.0000 
     28 C5'        19.7920  -18.9290  -11.6090 C.3       1 HXB113      0.0000 
     29 O5'        19.9560  -17.7350  -10.8940 O.3       1 HXB113      0.0000 
     30 C5M        20.3110  -15.7160   -6.7060 C.3       1 HXB113      0.0000 
     31 H          18.7697  -19.1499   -3.9468 H         1 HXB113      0.0000 
     32 H          19.8483  -17.6852   -8.5083 H         1 HXB113      0.0000 
     33 H          19.0277  -21.3232   -7.9636 H         1 HXB113      0.0000 
     34 H          16.8267  -19.8706   -8.5530 H         1 HXB113      0.0000 
     35 H          17.3695  -21.4102   -9.2423 H         1 HXB113      0.0000 
     36 H          17.8579  -18.5896  -10.1608 H         1 HXB113      0.0000 
     37 H          19.1659  -18.7693  -12.5348 H         1 HXB113      0.0000 
     38 H          20.7765  -19.2990  -12.0197 H         1 HXB113      0.0000 
     39 H          20.1021  -21.5806  -11.9645 H         1 HXB113      0.0000 
     40 H          18.7881  -22.1038  -11.1992 H         1 HXB113      0.0000 
     41 H          18.6423  -21.2080  -12.5268 H         1 HXB113      0.0000 
     42 H          21.1674  -15.5447   -6.2189 H         1 HXB113      0.0000 
     43 H          20.4876  -15.5507   -7.6763 H         1 HXB113      0.0000 
     44 H          19.6582  -15.0211   -6.4044 H         1 HXB113      0.0000 
     45 H          16.3430  -18.9246  -11.4742 H         1 HXB113      0.0000 
@<TRIPOS>BOND
     1   26    1 1    
     2   39    1 1    
     3   40    1 1    
     4   41    1 1    
     5    5    2 1    
     6   15    2 1    
     7   20    2 1    
     8    4    3 1    
     9    7    3 1    
    10   21    4 ar   
    11   22    4 ar   
    12   29    4 1    
    13    6    5 2    
    14    8    5 1    
    15    9    7 1    
    16   18    7 ar   
    17   19    7 ar   
    18   11    8 1    
    19   31    8 1    
    20   10    9 1    
    21   14   10 ar   
    22   16   10 ar   
    23   17   10 ar   
    24   12   11 2    
    25   13   11 1    
    26   15   13 2    
    27   30   13 1    
    28   32   15 1    
    29   23   20 1    
    30   27   20 1    
    31   33   20 1    
    32   24   23 1    
    33   34   23 1    
    34   35   23 1    
    35   25   24 1    
    36   26   24 1    
    37   36   24 1    
    38   45   25 1    
    39   27   26 1    
    40   28   26 1    
    41   29   28 1    
    42   37   28 1    
    43   38   28 1    
    44   42   30 1    
    45   43   30 1    
    46   44   30 1    
@<TRIPOS>SUBSTRUCTURE
     1 HXB113      1 GROUP   
@<TRIPOS>SET

