#    Name: 3dds_26B_4_INTS_M
#    Modification time : Mon Mar 24 23:11:18 2014

@<TRIPOS>MOLECULE
3dds_26B_4_INTS_M
   95     0    12     0     0
SMALL
NO_CHARGES


@<TRIPOS>ATOM
      1 N         104.8400  -88.7855   88.7865 N.am      2 SEC2        0.0000 
      2 N         105.5430  -89.5660   89.9110 N.am     10 SEL2        0.0000 
      3 N         104.1370  -88.0050   87.6620 N.am      6 SEP2        0.0000 
      4 NZ        103.4295  -87.5685   89.9800 N.4       3 LYC4        0.0000 
      5 NZ        104.3520  -88.0890   91.0040 N.4      11 LYL4        0.0000 
      6 NZ        103.0450  -87.2420   87.7640 N.4       7 LYP4        0.0000 
      7 N         104.2445  -88.0470   89.3330 N.am      2 SEC2        0.0000 
      8 N         104.3520  -88.0890   91.0040 N.am     10 SEL2        0.0000 
      9 N         103.4295  -87.5685   89.9800 N.am      2 SEC2        0.0000 
     10 N         102.5070  -87.0480   88.9560 N.am      6 SEP2        0.0000 
     11 CA        106.3640  -87.5755   95.3050 C.3       4 GLC5        0.0000 
     12 CA        107.3830  -88.3860   94.0500 C.3      12 GLL5        0.0000 
     13 CA        105.3450  -86.7650   96.5600 C.3       8 GLP5        0.0000 
     14 CA        106.2875  -86.8340   94.3750 C.3       4 GLC5        0.0000 
     15 CA        106.7500  -88.0830   92.7110 C.3      12 GLL5        0.0000 
     16 CA        105.8250  -85.5850   96.0390 C.3       8 GLP5        0.0000 
     17 CA        106.9075  -85.5340   94.2165 C.3       4 GLC5        0.0000 
     18 CA        107.9900  -85.4830   92.3940 C.3      12 GLL5        0.0000 
     19 CA        107.8145  -83.7750   91.1975 C.3       4 GLC5        0.0000 
     20 CA        107.6390  -82.0670   90.0010 C.3       8 GLP5        0.0000 
     21 CA        108.2130  -85.8560   88.5335 C.3       4 GLC5        0.0000 
     22 CA        109.0700  -86.3780   90.3690 C.3      12 GLL5        0.0000 
     23 CA        107.3560  -85.3340   86.6980 C.3       8 GLP5        0.0000 
     24 CA        110.3510  -86.0810   89.4000 C.3       4 GLC5        0.0000 
     25 CA        111.6320  -85.7840   88.4310 C.3       8 GLP5        0.0000 
     26 CA        107.1470  -84.1295   90.2060 C.3       4 GLC5        0.0000 
     27 CA        106.6550  -86.1920   90.4110 C.3      12 GLL5        0.0000 
     28 CA        107.0055  -85.7630   88.5545 C.3       4 GLC5        0.0000 
     29 N         104.0270  -92.0935   91.4480 N.am      2 SEC2        0.0000 
     30 N         104.9000  -91.8730   92.4370 N.am     10 SEL2        0.0000 
     31 N         103.1540  -92.3140   90.4590 N.am      6 SEP2        0.0000 
     32 CA        110.1590  -94.0335   89.6015 C.3       4 GLC5        0.0000 
     33 CA        110.2440  -94.1440   91.5750 C.3      12 GLL5        0.0000 
     34 CA        110.0740  -93.9230   87.6280 C.3       8 GLP5        0.0000 
     35 CA        111.8785  -95.6905   94.6135 C.3       4 GLC5        0.0000 
     36 CA        110.7480  -96.1490   92.7680 C.3      12 GLL5        0.0000 
     37 CA        113.0090  -95.2320   96.4590 C.3       8 GLP5        0.0000 
     38 CA        109.1870  -97.2765   92.0720 C.3       4 GLC5        0.0000 
     39 CA        109.5480  -96.0510   93.4480 C.3      12 GLL5        0.0000 
     40 CA        108.8260  -98.5020   90.6960 C.3       8 GLP5        0.0000 
     41 CA        106.6835  -96.7350   94.7155 C.3       4 GLC5        0.0000 
     42 CA        107.4950  -94.8840   93.8720 C.3      12 GLL5        0.0000 
     43 CA        105.8720  -98.5860   95.5590 C.3       8 GLP5        0.0000 
     44 N         106.3660  -95.3575   97.5100 N.am      2 SEC2        0.0000 
     45 N         105.8060  -94.7830   96.2920 N.am     10 SEL2        0.0000 
     46 N         106.9260  -95.9320   98.7280 N.am      6 SEP2        0.0000 
     47 O         103.2105  -93.9235   97.3410 O.2       1 ALC1        0.0000 
     48 O         103.8740  -93.5780   96.0460 O.2       9 ALL1        0.0000 
     49 O         102.5470  -94.2690   98.6360 O.2       5 ALP1        0.0000 
     50 CA        104.5445  -90.2795   97.8380 C.3       4 GLC5        0.0000 
     51 CA        104.2110  -90.7530   95.7000 C.3      12 GLL5        0.0000 
     52 CA        104.8780  -89.8060   99.9760 C.3       8 GLP5        0.0000 
     53 CA        106.1570  -91.6150   96.4165 C.3       4 GLC5        0.0000 
     54 CA        108.1030  -92.4770   97.1330 C.3       8 GLP5        0.0000 
     55 CA        102.4600  -89.7155   96.5985 C.3       4 GLC5        0.0000 
     56 CA        100.7090  -88.6780   97.4970 C.3       8 GLP5        0.0000 
     57 CA        104.1040  -88.8285   96.2585 C.3       4 GLC5        0.0000 
     58 CA        103.9970  -86.9040   96.8170 C.3       8 GLP5        0.0000 
     59 CA        101.5085  -89.7740   95.8080 C.3       4 GLC5        0.0000 
     60 CA        102.3080  -90.8700   94.1190 C.3      12 GLL5        0.0000 
     61 CA         98.5750  -90.5425   93.7055 C.3       4 GLC5        0.0000 
     62 CA        100.4130  -90.8490   92.5100 C.3      12 GLL5        0.0000 
     63 CA         96.7370  -90.2360   94.9010 C.3       8 GLP5        0.0000 
     64 CA         98.6885  -90.9620   91.7675 C.3       4 GLC5        0.0000 
     65 CA         96.9640  -91.0750   91.0250 C.3       8 GLP5        0.0000 
     66 CA        100.9595  -95.4870   96.4415 C.3       4 GLC5        0.0000 
     67 CA        101.8480  -95.0480   94.6970 C.3      12 GLL5        0.0000 
     68 CA        100.0710  -95.9260   98.1860 C.3       8 GLP5        0.0000 
     69 CA        100.3250  -96.1245   94.1760 C.3       4 GLC5        0.0000 
     70 CA         98.8020  -97.2010   93.6550 C.3       8 GLP5        0.0000 
     71 CA        102.8175  -96.7495   94.4225 C.3       4 GLC5        0.0000 
     72 CA        103.7870  -98.4510   94.1480 C.3       8 GLP5        0.0000 
     73 CA        108.7002  -92.4760   93.8392 C.3       4 GLC5        0.0000 
     74 CA        107.0030  -92.8730   92.6810 C.3      12 GLL5        0.0000 
     75 CA        109.7980  -92.0230   95.3360 C.3       8 GLP5        0.0000 
     76 CA        106.1298  -94.0245   91.6552 C.3       4 GLC5        0.0000 
     77 CA        108.2020  -92.9850   92.0040 C.3      12 GLL5        0.0000 
     78 CA        104.6570  -95.1200   90.9680 C.3       8 GLP5        0.0000 
     79 CA        109.7218  -93.0583   93.6257 C.3       4 GLC5        0.0000 
     80 CA        109.0470  -94.0430   92.2560 C.3      12 GLL5        0.0000 
     81 CA        110.6172  -97.2558   91.4102 C.3       4 GLC5        0.0000 
     82 CA        111.0930  -95.1980   91.8350 C.3      12 GLL5        0.0000 
     83 CA        110.3140  -98.8380   90.5190 C.3       8 GLP5        0.0000 
     84 CA        109.4603  -93.7728   94.3285 C.3       4 GLC5        0.0000 
     85 CA        108.7556  -95.9659   91.1624 C.3       4 GLC5        0.0000 
     86 CA        108.6970  -94.9940   93.1940 C.3      12 GLL5        0.0000 
     87 CA        108.3400  -97.3880   89.7700 C.3       8 GLP5        0.0000 
     88 CA        108.4724  -96.0376   95.4382 C.3       4 GLC5        0.0000 
     89 CA        108.6360  -96.8720   97.2800 C.3       8 GLP5        0.0000 
     90 CA        108.4333  -93.1875   94.5425 C.3       4 GLC5        0.0000 
     91 CA        105.8627  -94.7360   92.3585 C.3       4 GLC5        0.0000 
     92 CA        102.2440  -93.4285   92.3710 C.3       4 GLC5        0.0000 
     93 CA        101.1770  -92.9130   93.6490 C.3      12 GLL5        0.0000 
     94 CA        103.2380  -94.6190   91.1940 C.3       8 GLP5        0.0000 
     95 CA        102.7090  -94.3808   92.9819 C.3       4 GLC5        0.0000 
@<TRIPOS>BOND
@<TRIPOS>SUBSTRUCTURE
     1 ALC1       47 GROUP        1 X    ALC  0     ROOT ALC X 1
     2 SEC2        1 GROUP        1 X    SEC  0     **** SEC X 2
     3 LYC4        4 GROUP        1 X    LYC  0     **** LYC X 4
     4 GLC5       11 GROUP        1 X    GLC  0     **** GLC X 6
     5 ALP1       49 GROUP        1 Y    ALP  0     ROOT ALP Y 8
     6 SEP2        3 GROUP        1 Y    SEP  0     **** SEP Y 9
     7 LYP4        6 GROUP        1 Y    LYP  0     **** LYP Y 11
     8 GLP5       13 GROUP        1 Y    GLP  0     **** GLP Y 13
     9 ALL1       48 GROUP        1 Z    ALL  0     ROOT ALL Z 15
    10 SEL2        2 GROUP        1 Z    SEL  0     **** SEL Z 16
    11 LYL4        5 GROUP        1 Z    LYL  0     **** LYL Z 18
    12 GLL5       12 GROUP        1 Z    GLL  0     **** GLL Z 20
@<TRIPOS>SET

