#    Name: 3dds_26B_4_ligand
#    Modification time : Mon Mar 24 23:11:18 2014

@<TRIPOS>MOLECULE
3dds_26B_4_ligand
   71    73     1     0     0
SMALL
NO_CHARGES


@<TRIPOS>ATOM
      1 N         106.7070  -90.5080   92.0920 N.am      1 26B905      0.0000 
      2 CA        105.9280  -89.2880   92.2760 C.3       1 26B905      0.0000 
      3 C         105.2410  -88.9750   90.9740 C.2       1 26B905      0.0000 
      4 O         105.5430  -89.5660   89.9110 O.co2     1 26B905      0.0000 
      5 OXT       104.3520  -88.0890   91.0040 O.co2     1 26B905      0.0000 
      6 C1        107.3830  -88.3860   94.0500 C.3       1 26B905      0.0000 
      7 C2        106.7500  -88.0830   92.7110 C.3       1 26B905      0.0000 
      8 O3        107.7980  -87.8260   91.7700 O.3       1 26B905      0.0000 
      9 C4        107.8600  -86.4880   91.2700 C.3       1 26B905      0.0000 
     10 C5        107.9900  -85.4830   92.3940 C.3       1 26B905      0.0000 
     11 C6        109.0700  -86.3780   90.3690 C.3       1 26B905      0.0000 
     12 C7        106.6550  -86.1920   90.4110 C.3       1 26B905      0.0000 
     13 C8        106.1120  -91.7230   92.3870 C.2       1 26B905      0.0000 
     14 O9        104.9000  -91.8730   92.4370 O.2       1 26B905      0.0000 
     15 C10       107.0030  -92.8730   92.6810 C.ar      1 26B905      0.0000 
     16 C11       108.2020  -92.9850   92.0040 C.ar      1 26B905      0.0000 
     17 C12       109.0470  -94.0430   92.2560 C.ar      1 26B905      0.0000 
     18 C13       110.2440  -94.1440   91.5750 C.ar      1 26B905      0.0000 
     19 C14       111.0930  -95.1980   91.8350 C.ar      1 26B905      0.0000 
     20 C15       110.7480  -96.1490   92.7680 C.ar      1 26B905      0.0000 
     21 C16       109.5480  -96.0510   93.4480 C.ar      1 26B905      0.0000 
     22 C17       108.6970  -94.9940   93.1940 C.ar      1 26B905      0.0000 
     23 C18       107.4950  -94.8840   93.8720 C.ar      1 26B905      0.0000 
     24 C19       106.6420  -93.8200   93.6260 C.ar      1 26B905      0.0000 
     25 N20       105.3930  -93.6890   94.2900 N.am      1 26B905      0.0000 
     26 C21       105.0960  -94.0710   95.5910 C.2       1 26B905      0.0000 
     27 O22       105.8060  -94.7830   96.2920 O.2       1 26B905      0.0000 
     28 N23       103.8740  -93.5780   96.0460 N.am      1 26B905      0.0000 
     29 C24       103.0070  -92.8900   95.1770 C.ar      1 26B905      0.0000 
     30 C25       103.1510  -91.5320   94.9860 C.ar      1 26B905      0.0000 
     31 C26       104.2110  -90.7530   95.7000 C.3       1 26B905      0.0000 
     32 C27       102.3080  -90.8700   94.1190 C.ar      1 26B905      0.0000 
     33 C28       101.3230  -91.5630   93.4470 C.ar      1 26B905      0.0000 
     34 C29       100.4130  -90.8490   92.5100 C.3       1 26B905      0.0000 
     35 C30       101.1770  -92.9130   93.6490 C.ar      1 26B905      0.0000 
     36 C31       102.0170  -93.5840   94.5080 C.ar      1 26B905      0.0000 
     37 C32       101.8480  -95.0480   94.6970 C.3       1 26B905      0.0000 
     38 H         107.6541  -90.4319   91.7561 H         1 26B905      0.0000 
     39 H         105.1466  -89.4550   93.0201 H         1 26B905      0.0000 
     40 H         106.1009  -87.2419   92.8219 H         1 26B905      0.0000 
     41 H         108.4648  -92.2697   91.3046 H         1 26B905      0.0000 
     42 H         110.5006  -93.4328   90.8747 H         1 26B905      0.0000 
     43 H         111.9905  -95.2736   91.3278 H         1 26B905      0.0000 
     44 H         111.3847  -96.9387   92.9628 H         1 26B905      0.0000 
     45 H         109.2901  -96.7666   94.1434 H         1 26B905      0.0000 
     46 H         107.2309  -95.6017   94.5681 H         1 26B905      0.0000 
     47 H         104.6026  -93.2461   93.7141 H         1 26B905      0.0000 
     48 H         103.5972  -93.7160   97.0288 H         1 26B905      0.0000 
     49 H         102.4141  -89.8530   93.9722 H         1 26B905      0.0000 
     50 H         100.4296  -93.4316   93.1520 H         1 26B905      0.0000 
     51 H         107.9864  -89.1821   94.0039 H         1 26B905      0.0000 
     52 H         107.9332  -87.6201   94.3825 H         1 26B905      0.0000 
     53 H         106.6959  -88.5791   94.7504 H         1 26B905      0.0000 
     54 H         108.8149  -85.6383   92.9375 H         1 26B905      0.0000 
     55 H         108.0378  -84.5452   92.0500 H         1 26B905      0.0000 
     56 H         107.2130  -85.5256   93.0220 H         1 26B905      0.0000 
     57 H         109.9172  -86.5860   90.8579 H         1 26B905      0.0000 
     58 H         109.0155  -87.0092   89.5953 H         1 26B905      0.0000 
     59 H         109.1685  -85.4578   89.9902 H         1 26B905      0.0000 
     60 H         106.6787  -85.2613   90.0460 H         1 26B905      0.0000 
     61 H         106.5951  -86.8122   89.6288 H         1 26B905      0.0000 
     62 H         105.8016  -86.2840   90.9240 H         1 26B905      0.0000 
     63 H         105.1279  -91.0876   95.4824 H         1 26B905      0.0000 
     64 H         104.1872  -89.7835   95.4561 H         1 26B905      0.0000 
     65 H         104.1069  -90.8080   96.6930 H         1 26B905      0.0000 
     66 H         100.9164  -90.4094   91.7661 H         1 26B905      0.0000 
     67 H          99.7514  -91.4698   92.0894 H         1 26B905      0.0000 
     68 H          99.8901  -90.1334   92.9731 H         1 26B905      0.0000 
     69 H         102.6688  -95.5539   94.4318 H         1 26B905      0.0000 
     70 H         101.6562  -95.2797   95.6507 H         1 26B905      0.0000 
     71 H         101.0922  -95.4083   94.1502 H         1 26B905      0.0000 
@<TRIPOS>BOND
     1    2    1 1    
     2   13    1 am   
     3   38    1 1    
     4    3    2 1    
     5    7    2 1    
     6   39    2 1    
     7    4    3 ar   
     8    5    3 ar   
     9    7    6 1    
    10   51    6 1    
    11   52    6 1    
    12   53    6 1    
    13    8    7 1    
    14   40    7 1    
    15    9    8 1    
    16   10    9 1    
    17   11    9 1    
    18   12    9 1    
    19   54   10 1    
    20   55   10 1    
    21   56   10 1    
    22   57   11 1    
    23   58   11 1    
    24   59   11 1    
    25   60   12 1    
    26   61   12 1    
    27   62   12 1    
    28   14   13 2    
    29   15   13 1    
    30   16   15 ar   
    31   24   15 ar   
    32   17   16 ar   
    33   41   16 1    
    34   18   17 ar   
    35   22   17 ar   
    36   19   18 ar   
    37   42   18 1    
    38   20   19 ar   
    39   43   19 1    
    40   21   20 ar   
    41   44   20 1    
    42   22   21 ar   
    43   45   21 1    
    44   23   22 ar   
    45   24   23 ar   
    46   46   23 1    
    47   25   24 1    
    48   26   25 am   
    49   47   25 1    
    50   27   26 2    
    51   28   26 am   
    52   29   28 1    
    53   48   28 1    
    54   30   29 ar   
    55   36   29 ar   
    56   31   30 1    
    57   32   30 ar   
    58   63   31 1    
    59   64   31 1    
    60   65   31 1    
    61   33   32 ar   
    62   49   32 1    
    63   34   33 1    
    64   35   33 ar   
    65   66   34 1    
    66   67   34 1    
    67   68   34 1    
    68   36   35 ar   
    69   50   35 1    
    70   37   36 1    
    71   69   37 1    
    72   70   37 1    
    73   71   37 1    
@<TRIPOS>SUBSTRUCTURE
     1 26B905      1 GROUP   
@<TRIPOS>SET

