#    Name: 1ARH_1_CAVITY_N1_6.mol2
#    Modification time : Mon Mar 10 13:44:24 2014

@<TRIPOS>MOLECULE
1ARH_1_CAVITY_N1_6.mol2
   67     0     6     0     0
SMALL
NO_CHARGES


@<TRIPOS>ATOM
      1 O         -10.5454   55.8752   23.9187 O.2       2 ALA2        0.0000 
      2 O         -11.0049   55.5784   25.3154 O.2       2 ALA2        0.0000 
      3 O         -11.7344   55.1424   23.3718 O.2       2 ALA2        0.0000 
      4 O         -12.1940   54.8456   24.7684 O.2       2 ALA2        0.0000 
      5 CA         -6.1877   56.7988   25.5488 C.3       6 GLY6        0.0000 
      6 O          -7.3767   56.0660   25.0018 O.2       2 ALA2        0.0000 
      7 O          -8.5658   55.3332   24.4549 O.2       2 ALA2        0.0000 
      8 OD1        -9.7548   54.6005   23.9079 O.3       3 ASP3        0.0000 
      9 OD1       -10.9439   53.8677   23.3610 O.3       3 ASP3        0.0000 
     10 O         -11.4035   53.5709   24.7576 O.2       2 ALA2        0.0000 
     11 CA        -12.1330   53.1349   22.8140 C.3       6 GLY6        0.0000 
     12 CA        -12.5925   52.8381   24.2107 C.3       6 GLY6        0.0000 
     13 NZ         -4.2081   56.2568   26.0850 N.2       4 LYS4        0.0000 
     14 CA         -5.3971   55.5241   25.5380 C.3       6 GLY6        0.0000 
     15 CZ         -5.8567   55.2272   26.9347 C.ar      5 PHE5        0.0000 
     16 CA         -6.1266   55.0881   23.5944 C.3       6 GLY6        0.0000 
     17 CZ         -6.5862   54.7913   24.9910 C.ar      5 PHE5        0.0000 
     18 CZ         -7.0457   54.4945   26.3877 C.ar      5 PHE5        0.0000 
     19 CA         -7.3157   54.3553   23.0474 C.3       6 GLY6        0.0000 
     20 CZ         -7.7753   54.0585   24.4441 C.ar      5 PHE5        0.0000 
     21 OG         -8.9643   53.3257   23.8971 O.2       1 SER1        0.0000 
     22 O          -9.4239   53.0289   25.2938 O.2       2 ALA2        0.0000 
     23 OG        -10.1534   52.5929   23.3502 O.2       1 SER1        0.0000 
     24 O         -10.6129   52.2961   24.7468 O.2       2 ALA2        0.0000 
     25 CZ        -11.3424   51.8602   22.8032 C.ar      5 PHE5        0.0000 
     26 O         -11.8020   51.5634   24.1999 O.2       2 ALA2        0.0000 
     27 CA        -12.5315   51.1274   22.2562 C.3       6 GLY6        0.0000 
     28 CA         -2.9580   55.2789   24.6775 C.3       6 GLY6        0.0000 
     29 NZ         -3.4175   54.9821   26.0742 N.2       4 LYS4        0.0000 
     30 CA         -3.8771   54.6853   27.4708 C.3       6 GLY6        0.0000 
     31 CA         -4.1470   54.5461   24.1305 C.3       6 GLY6        0.0000 
     32 CZ         -4.6066   54.2493   25.5272 C.ar      5 PHE5        0.0000 
     33 CZ         -5.0661   53.9525   26.9239 C.ar      5 PHE5        0.0000 
     34 OG         -4.8766   54.1102   22.1869 O.2       1 SER1        0.0000 
     35 CA         -5.3361   53.8134   23.5836 C.3       6 GLY6        0.0000 
     36 CZ         -5.7957   53.5165   24.9802 C.ar      5 PHE5        0.0000 
     37 OG         -6.5252   53.0806   23.0366 O.2       1 SER1        0.0000 
     38 CZ         -6.9847   52.7838   24.4333 C.ar      5 PHE5        0.0000 
     39 OG         -8.1738   52.0510   23.8863 O.2       1 SER1        0.0000 
     40 CZ         -8.6333   51.7542   25.2830 C.ar      5 PHE5        0.0000 
     41 OG         -9.3628   51.3182   23.3394 O.2       1 SER1        0.0000 
     42 O          -9.8224   51.0214   24.7361 O.2       2 ALA2        0.0000 
     43 CZ        -10.5519   50.5854   22.7924 C.ar      5 PHE5        0.0000 
     44 O         -11.0115   50.2886   24.1891 O.2       2 ALA2        0.0000 
     45 CZ        -11.7410   49.8527   22.2455 C.ar      5 PHE5        0.0000 
     46 CA        -12.2005   49.5558   23.6421 C.3       6 GLY6        0.0000 
     47 CA        -12.9300   49.1199   21.6985 C.3       6 GLY6        0.0000 
     48 CA        -13.6596   48.6839   19.7549 C.3       6 GLY6        0.0000 
     49 CA        -14.1191   48.3871   21.1515 C.3       6 GLY6        0.0000 
     50 CA         -2.6270   53.7074   26.0634 C.3       6 GLY6        0.0000 
     51 CA         -3.3565   53.2714   24.1197 C.3       6 GLY6        0.0000 
     52 O          -3.8161   52.9746   25.5164 O.2       2 ALA2        0.0000 
     53 O          -4.5456   52.5386   23.5728 O.2       2 ALA2        0.0000 
     54 OG         -5.0051   52.2418   24.9695 O.2       1 SER1        0.0000 
     55 OG         -5.7346   51.8059   23.0258 O.2       1 SER1        0.0000 
     56 OG         -6.1942   51.5090   24.4225 O.2       1 SER1        0.0000 
     57 OG         -7.3832   50.7763   23.8755 O.2       1 SER1        0.0000 
     58 OG         -7.8428   50.4794   25.2722 O.2       1 SER1        0.0000 
     59 CZ         -8.5723   50.0435   23.3286 C.ar      5 PHE5        0.0000 
     60 O          -9.7614   49.3107   22.7816 O.2       2 ALA2        0.0000 
     61 O         -10.9504   48.5779   22.2347 O.2       2 ALA2        0.0000 
     62 O         -11.4100   48.2811   23.6313 O.2       2 ALA2        0.0000 
     63 CA        -12.1395   47.8452   21.6877 C.3       6 GLY6        0.0000 
     64 CA        -12.5990   47.5483   23.0844 C.3       6 GLY6        0.0000 
     65 CA        -13.3286   47.1124   21.1407 C.3       6 GLY6        0.0000 
     66 CA        -13.7881   46.8156   22.5374 C.3       6 GLY6        0.0000 
     67 O         -11.8085   46.2736   23.0736 O.2       2 ALA2        0.0000 
@<TRIPOS>BOND
@<TRIPOS>SUBSTRUCTURE
     1 SER1       21 GROUP   
     2 ALA2        1 GROUP   
     3 ASP3        8 GROUP   
     4 LYS4       13 GROUP   
     5 PHE5       15 GROUP   
     6 GLY6        5 GROUP   
@<TRIPOS>SET

