#    Name: 1arh_PPD_1_INTS_M
#    Modification time : Mon Mar 24 18:51:00 2014

@<TRIPOS>MOLECULE
1arh_PPD_1_INTS_M
   76     0     9     0     0
SMALL
NO_CHARGES


@<TRIPOS>ATOM
      1 N          -4.3200   56.6715   27.6985 N.am      1 SEC2        0.0000 
      2 N          -5.1550   56.1870   26.6680 N.am      7 SEL2        0.0000 
      3 N          -3.4850   57.1560   28.7290 N.am      4 SEP2        0.0000 
      4 CA         -5.9840   57.9945   28.9825 C.3       3 GLC5        0.0000 
      5 CA         -6.4410   58.2740   26.7990 C.3       9 GLL5        0.0000 
      6 CA         -5.5270   57.7150   31.1660 C.3       6 GLP5        0.0000 
      7 CA         -7.9535   59.3045   26.8815 C.3       3 GLC5        0.0000 
      8 CA         -9.4660   60.3350   26.9640 C.3       6 GLP5        0.0000 
      9 N          -9.2655   57.5405   25.7125 N.am      1 SEC2        0.0000 
     10 N          -8.2520   56.9080   25.0710 N.am      7 SEL2        0.0000 
     11 N         -10.2790   58.1730   26.3540 N.am      4 SEP2        0.0000 
     12 N          -8.0015   58.0675   23.9930 N.am      1 SEC2        0.0000 
     13 N          -7.7510   59.2270   22.9150 N.am      4 SEP2        0.0000 
     14 CA         -7.9790   53.3050   25.9225 C.3       3 GLC5        0.0000 
     15 CA         -7.8460   54.2200   24.1380 C.3       9 GLL5        0.0000 
     16 CA         -8.1120   52.3900   27.7070 C.3       6 GLP5        0.0000 
     17 CA         -3.5935   54.1590   27.7925 C.3       3 GLC5        0.0000 
     18 CA         -4.8620   54.9400   26.2720 C.3       9 GLL5        0.0000 
     19 CA         -2.3250   53.3780   29.3130 C.3       6 GLP5        0.0000 
     20 CA         -3.2845   52.4330   24.8005 C.3       3 GLC5        0.0000 
     21 CA         -5.4420   52.8370   25.0160 C.3       9 GLL5        0.0000 
     22 CA         -1.1270   52.0290   24.5850 C.3       6 GLP5        0.0000 
     23 CA         -4.1575   51.3570   26.0980 C.3       3 GLC5        0.0000 
     24 CA         -2.8730   49.8770   27.1800 C.3       6 GLP5        0.0000 
     25 CA         -6.1340   52.5670   26.6155 C.3       3 GLC5        0.0000 
     26 CA         -6.8260   52.2970   28.2150 C.3       6 GLP5        0.0000 
     27 N          -2.4920   51.4080   22.7140 N.am      1 SEC2        0.0000 
     28 N          -3.6580   51.7830   21.9000 N.am      7 SEL2        0.0000 
     29 N          -1.3260   51.0330   23.5280 N.am      4 SEP2        0.0000 
     30 N          -3.0790   52.7245   21.3750 N.am      1 SEC2        0.0000 
     31 N          -2.5000   53.6660   20.8500 N.am      4 SEP2        0.0000 
     32 N          -3.8140   51.6560   20.5635 N.am      1 SEC2        0.0000 
     33 N          -3.9700   51.5290   19.2270 N.am      4 SEP2        0.0000 
     34 N          -5.4475   49.6770   21.4470 N.am      1 SEC2        0.0000 
     35 N          -6.0700   51.1860   21.9320 N.am      7 SEL2        0.0000 
     36 N          -4.8250   48.1680   20.9620 N.am      4 SEP2        0.0000 
     37 NZ         -4.5600   48.9975   23.4555 N.4       2 LYC4        0.0000 
     38 NZ         -4.5970   50.3970   23.7690 N.4       8 LYL4        0.0000 
     39 NZ         -4.5470   47.2400   21.8600 N.4       5 LYP4        0.0000 
     40 N          -3.5430   50.4765   24.8695 N.am      1 SEC2        0.0000 
     41 N          -4.5970   50.3970   23.7690 N.am      7 SEL2        0.0000 
     42 N          -2.4890   50.5560   25.9700 N.am      4 SEP2        0.0000 
     43 N          -4.8860   50.0560   25.0845 N.am      1 SEC2        0.0000 
     44 N          -5.1750   49.7150   26.4000 N.am      4 SEP2        0.0000 
     45 N          -4.5600   48.9975   23.4555 N.am      1 SEC2        0.0000 
     46 N          -4.5230   47.5980   23.1420 N.am      4 SEP2        0.0000 
     47 CA        -11.5235   55.8570   22.1180 C.3       3 GLC5        0.0000 
     48 CA        -10.3370   54.5370   23.4410 C.3       9 GLL5        0.0000 
     49 CA        -12.7100   57.1770   20.7950 C.3       6 GLP5        0.0000 
     50 CA         -8.7135   54.9930   22.1115 C.3       3 GLC5        0.0000 
     51 CA         -7.0900   55.4490   20.7820 C.3       6 GLP5        0.0000 
     52 CA        -10.3210   52.0765   21.3650 C.3       3 GLC5        0.0000 
     53 CA        -10.6590   53.1200   23.0330 C.3       9 GLL5        0.0000 
     54 CA         -9.9830   51.0330   19.6970 C.3       6 GLP5        0.0000 
     55 N         -10.4005   53.2500   26.5175 N.am      1 SEC2        0.0000 
     56 N         -10.6920   52.5690   25.3760 N.am      7 SEL2        0.0000 
     57 N         -10.1090   53.9310   27.6590 N.am      4 SEP2        0.0000 
     58 N         -10.6250   49.8720   25.2475 N.am      1 SEC2        0.0000 
     59 N         -10.8480   50.8970   23.9610 N.am      7 SEL2        0.0000 
     60 N         -10.4020   48.8470   26.5340 N.am      4 SEP2        0.0000 
     61 N         -10.8995   57.1510   25.5735 N.am      1 SEC2        0.0000 
     62 N         -11.5200   56.1290   24.7930 N.am      7 SEL2        0.0000 
     63 N         -13.2710   55.6795   22.3110 N.am      1 SEC2        0.0000 
     64 N         -12.6570   54.8910   23.3280 N.am      7 SEL2        0.0000 
     65 N         -13.8850   56.4680   21.2940 N.am      4 SEP2        0.0000 
     66 CA         -7.7587   57.2323   28.0903 C.3       3 GLC5        0.0000 
     67 CA         -6.2580   56.8650   26.2920 C.3       9 GLL5        0.0000 
     68 CA         -9.1680   56.8950   29.6350 C.3       6 GLP5        0.0000 
     69 CA         -5.0947   57.5683   24.9967 C.3       3 GLC5        0.0000 
     70 CA         -3.8400   57.5670   23.4480 C.3       6 GLP5        0.0000 
     71 CA         -5.4428   56.5625   24.3392 C.3       3 GLC5        0.0000 
     72 CA         -7.1640   56.2020   25.4460 C.3       9 GLL5        0.0000 
     73 CA         -7.2382   55.0080   22.6792 C.3       3 GLC5        0.0000 
     74 CA         -6.9270   54.9140   25.0150 C.3       9 GLL5        0.0000 
     75 CA         -4.5682   56.0930   24.6550 C.3       3 GLC5        0.0000 
     76 CA         -5.7310   54.2980   25.4520 C.3       9 GLL5        0.0000 
@<TRIPOS>BOND
@<TRIPOS>SUBSTRUCTURE
     1 SEC2        1 GROUP        1 X    SEC  0     ROOT SEC X 2
     2 LYC4       37 GROUP        1 X    LYC  0     **** LYC X 4
     3 GLC5        4 GROUP        1 X    GLC  0     **** GLC X 6
     4 SEP2        3 GROUP        1 Y    SEP  0     ROOT SEP Y 9
     5 LYP4       39 GROUP        1 Y    LYP  0     **** LYP Y 11
     6 GLP5        6 GROUP        1 Y    GLP  0     **** GLP Y 13
     7 SEL2        2 GROUP        1 Z    SEL  0     ROOT SEL Z 16
     8 LYL4       38 GROUP        1 Z    LYL  0     **** LYL Z 18
     9 GLL5        5 GROUP        1 Z    GLL  0     **** GLL Z 20
@<TRIPOS>SET

