#    Name: 1arh_PPD_1_ligand
#    Modification time : Mon Mar 24 18:51:00 2014

@<TRIPOS>MOLECULE
1arh_PPD_1_ligand
   36    36     1     0     0
SMALL
NO_CHARGES


@<TRIPOS>ATOM
      1 N1         -5.1550   56.1870   26.6680 N.ar      1 PPD411      0.0000 
      2 C2         -6.2580   56.8650   26.2920 C.ar      1 PPD411      0.0000 
      3 C2A        -6.4410   58.2740   26.7990 C.3       1 PPD411      0.0000 
      4 C3         -7.1640   56.2020   25.4460 C.ar      1 PPD411      0.0000 
      5 O3         -8.2520   56.9080   25.0710 O.3       1 PPD411      0.0000 
      6 C4         -6.9270   54.9140   25.0150 C.ar      1 PPD411      0.0000 
      7 C4A        -7.8460   54.2200   24.1380 C.3       1 PPD411      0.0000 
      8 C5         -5.7310   54.2980   25.4520 C.ar      1 PPD411      0.0000 
      9 C6         -4.8620   54.9400   26.2720 C.ar      1 PPD411      0.0000 
     10 C5A        -5.4420   52.8370   25.0160 C.3       1 PPD411      0.0000 
     11 O4P        -5.1170   52.8080   23.6210 O.3       1 PPD411      0.0000 
     12 P          -4.8040   51.4760   22.7860 P.3       1 PPD411      0.0000 
     13 O1P        -3.6580   51.7830   21.9000 O.co2     1 PPD411      0.0000 
     14 O2P        -6.0700   51.1860   21.9320 O.co2     1 PPD411      0.0000 
     15 O3P        -4.5970   50.3970   23.7690 O.co2     1 PPD411      0.0000 
     16 N          -9.2570   54.5830   24.4680 N.4       1 PPD411      0.0000 
     17 CA        -10.3370   54.5370   23.4410 C.3       1 PPD411      0.0000 
     18 CB        -10.6590   53.1200   23.0330 C.3       1 PPD411      0.0000 
     19 CG        -10.7310   52.1470   24.1870 C.2       1 PPD411      0.0000 
     20 OD1       -10.6920   52.5690   25.3760 O.co2     1 PPD411      0.0000 
     21 OD2       -10.8480   50.8970   23.9610 O.co2     1 PPD411      0.0000 
     22 C         -11.5810   55.2360   23.8940 C.2       1 PPD411      0.0000 
     23 O         -11.5200   56.1290   24.7930 O.co2     1 PPD411      0.0000 
     24 OXT       -12.6570   54.8910   23.3280 O.co2     1 PPD411      0.0000 
     25 H          -7.7279   53.1306   24.2350 H         1 PPD411      0.0000 
     26 H          -7.6498   54.4781   23.0868 H         1 PPD411      0.0000 
     27 H          -3.9947   54.4718   26.5808 H         1 PPD411      0.0000 
     28 H          -6.3344   52.2486   25.2418 H         1 PPD411      0.0000 
     29 H          -4.6211   52.4698   25.6364 H         1 PPD411      0.0000 
     30 H          -9.9727   55.0597   22.5347 H         1 PPD411      0.0000 
     31 H          -9.8954   52.7688   22.3130 H         1 PPD411      0.0000 
     32 H         -11.6249   53.1100   22.4928 H         1 PPD411      0.0000 
     33 H          -6.4768   58.3076   27.7978 H         1 PPD411      0.0000 
     34 H          -5.6926   58.8720   26.5123 H         1 PPD411      0.0000 
     35 H          -7.2888   58.6830   26.4614 H         1 PPD411      0.0000 
     36 H          -8.8844   56.2295   24.6971 H         1 PPD411      0.0000 
@<TRIPOS>BOND
     1    2    1 ar   
     2    9    1 ar   
     3    3    2 1    
     4    4    2 ar   
     5   33    3 1    
     6   34    3 1    
     7   35    3 1    
     8    5    4 1    
     9    6    4 ar   
    10   36    5 1    
    11    7    6 1    
    12    8    6 ar   
    13   16    7 1    
    14   25    7 1    
    15   26    7 1    
    16    9    8 ar   
    17   10    8 1    
    18   27    9 1    
    19   11   10 1    
    20   28   10 1    
    21   29   10 1    
    22   12   11 1    
    23   13   12 ar   
    24   14   12 ar   
    25   15   12 ar   
    26   17   16 1    
    27   18   17 1    
    28   22   17 1    
    29   30   17 1    
    30   19   18 1    
    31   31   18 1    
    32   32   18 1    
    33   20   19 ar   
    34   21   19 ar   
    35   23   22 ar   
    36   24   22 ar   
@<TRIPOS>SUBSTRUCTURE
     1 PPD411      1 GROUP   
@<TRIPOS>SET

