#    Name: 1u6r_ADP_2_INTS_M
#    Modification time : Tue Mar 25 06:10:36 2014

@<TRIPOS>MOLECULE
1u6r_ADP_2_INTS_M
   66     0    12     0     0
SMALL
NO_CHARGES


@<TRIPOS>ATOM
      1 NZ         26.4705   51.5160   80.8365 N.4       2 LYC4        0.0000 
      2 NZ         27.1090   53.0560   80.5240 N.4      10 LYL4        0.0000 
      3 NZ         26.9560   49.2760   81.1770 N.4       6 LYP4        0.0000 
      4 N          28.0475   53.4485   79.2595 N.am      1 SEC2        0.0000 
      5 N          27.1090   53.0560   80.5240 N.am      9 SEL2        0.0000 
      6 N          28.9860   53.8410   77.9950 N.am      5 SEP2        0.0000 
      7 N          27.6010   51.4415   80.6335 N.am      1 SEC2        0.0000 
      8 N          28.0930   49.8270   80.7430 N.am      5 SEP2        0.0000 
      9 N          26.4705   51.5160   80.8365 N.am      1 SEC2        0.0000 
     10 N          25.8320   49.9760   81.1490 N.am      5 SEP2        0.0000 
     11 NZ         26.3385   53.7745   77.7270 N.4       2 LYC4        0.0000 
     12 NZ         25.4990   53.1360   78.7440 N.4      10 LYL4        0.0000 
     13 NZ         28.4810   54.4870   76.9490 N.4       6 LYP4        0.0000 
     14 NZ         24.3435   52.1090   78.8715 N.4       2 LYC4        0.0000 
     15 NZ         23.8960   50.1220   78.4170 N.4       6 LYP4        0.0000 
     16 NZ         24.9580   54.7040   78.2275 N.4       2 LYC4        0.0000 
     17 NZ         23.2800   55.7190   77.3020 N.4       6 LYP4        0.0000 
     18 N          26.3385   53.7745   77.7270 N.am      1 SEC2        0.0000 
     19 N          25.4990   53.1360   78.7440 N.am      9 SEL2        0.0000 
     20 N          27.1780   54.4130   76.7100 N.am      5 SEP2        0.0000 
     21 N          25.3425   51.7310   78.4410 N.am      1 SEC2        0.0000 
     22 N          25.1860   50.3260   78.1380 N.am      5 SEP2        0.0000 
     23 N          24.3435   52.1090   78.8715 N.am      1 SEC2        0.0000 
     24 N          23.1880   51.0820   78.9990 N.am      5 SEP2        0.0000 
     25 N          24.2550   53.7940   78.1760 N.am      1 SEC2        0.0000 
     26 N          23.0110   54.4520   77.6080 N.am      5 SEP2        0.0000 
     27 N          24.9580   54.7040   78.2275 N.am      1 SEC2        0.0000 
     28 N          24.4170   56.2720   77.7110 N.am      5 SEP2        0.0000 
     29 NZ         23.9600   52.0310   80.0220 N.4       2 LYC4        0.0000 
     30 NZ         24.7320   52.9800   81.0450 N.4      10 LYL4        0.0000 
     31 Zn         25.1565   53.0715   82.2250 Zn        3 ZIC7        0.0000 
     32 Zn         24.7320   52.9800   81.0450 Zn       11 ZIL7        0.0000 
     33 Zn         25.5810   53.1630   83.4050 Zn        7 ZIP7        0.0000 
     34 N          23.9600   52.0310   80.0220 N.am      1 SEC2        0.0000 
     35 N          24.7320   52.9800   81.0450 N.am      9 SEL2        0.0000 
     36 N          25.2820   51.4780   81.0970 N.am      1 SEC2        0.0000 
     37 Zn         25.6830   54.2690   83.0255 Zn        3 ZIC7        0.0000 
     38 Zn         25.7850   55.3750   82.6460 Zn       11 ZIL7        0.0000 
     39 NZ         22.9720   55.9840   81.2230 N.4       2 LYC4        0.0000 
     40 NZ         24.3750   56.8770   81.2320 N.4      10 LYL4        0.0000 
     41 NZ         21.0450   55.8610   80.2700 N.4       6 LYP4        0.0000 
     42 N          22.9790   56.9660   80.6360 N.am      1 SEC2        0.0000 
     43 N          24.3750   56.8770   81.2320 N.am      9 SEL2        0.0000 
     44 N          21.5830   57.0550   80.0400 N.am      5 SEP2        0.0000 
     45 N          22.9720   55.9840   81.2230 N.am      1 SEC2        0.0000 
     46 N          21.5690   55.0910   81.2140 N.am      5 SEP2        0.0000 
     47 N          25.1175   55.7290   79.0385 N.am      1 SEC2        0.0000 
     48 N          25.8180   55.1860   80.3660 N.am      9 SEL2        0.0000 
     49 CA         28.1645   61.5495   80.8565 C.3       4 GLC5        0.0000 
     50 CA         28.9440   59.7510   79.8550 C.3      12 GLL5        0.0000 
     51 CA         27.3850   63.3480   81.8580 C.3       8 GLP5        0.0000 
     52 N          29.1865   61.3240   72.9560 N.am      1 SEC2        0.0000 
     53 N          28.9700   60.3330   73.9050 N.am      9 SEL2        0.0000 
     54 N          29.4030   62.3150   72.0070 N.am      5 SEP2        0.0000 
     55 CA         30.1360   61.2640   72.8820 C.3       4 GLC5        0.0000 
     56 CA         29.9640   60.5350   74.7940 C.3      12 GLL5        0.0000 
     57 CA         30.3080   61.9930   70.9700 C.3       8 GLP5        0.0000 
     58 CA         28.4230   61.8990   74.5680 C.3       4 GLC5        0.0000 
     59 CA         26.8820   63.2630   74.3420 C.3       8 GLP5        0.0000 
     60 CA         27.0687   59.8070   81.3825 C.3       4 GLC5        0.0000 
     61 CA         25.2010   60.2520   82.2580 C.3       8 GLP5        0.0000 
     62 CA         28.5894   57.6541   75.3236 C.3       4 GLC5        0.0000 
     63 CA         27.7950   59.1030   75.5380 C.3      12 GLL5        0.0000 
     64 CA         28.8590   55.9720   74.9840 C.3       8 GLP5        0.0000 
     65 CA         27.1924   60.9196   75.3866 C.3       4 GLC5        0.0000 
     66 CA         26.0650   62.5030   75.1100 C.3       8 GLP5        0.0000 
@<TRIPOS>BOND
@<TRIPOS>SUBSTRUCTURE
     1 SEC2        4 GROUP        1 X    SEC  0     ROOT SEC X 2
     2 LYC4        1 GROUP        1 X    LYC  0     **** LYC X 4
     3 ZIC7       31 GROUP        1 X    ZIC  0     **** ZIC X 5
     4 GLC5       49 GROUP        1 X    GLC  0     **** GLC X 6
     5 SEP2        6 GROUP        1 Y    SEP  0     ROOT SEP Y 9
     6 LYP4        3 GROUP        1 Y    LYP  0     **** LYP Y 11
     7 ZIP7       33 GROUP        1 Y    ZIP  0     **** ZIP Y 12
     8 GLP5       51 GROUP        1 Y    GLP  0     **** GLP Y 13
     9 SEL2        5 GROUP        1 Z    SEL  0     ROOT SEL Z 16
    10 LYL4        2 GROUP        1 Z    LYL  0     **** LYL Z 18
    11 ZIL7       32 GROUP        1 Z    ZIL  0     **** ZIL Z 19
    12 GLL5       50 GROUP        1 Z    GLL  0     **** GLL Z 20
@<TRIPOS>SET

