#    Name: 1u6r_ADP_2_ligand
#    Modification time : Tue Mar 25 06:10:36 2014

@<TRIPOS>MOLECULE
1u6r_ADP_2_ligand
   39    41     1     0     0
SMALL
NO_CHARGES


@<TRIPOS>ATOM
      1 PB         25.7800   53.5120   80.1330 P.3       1 ADP1801     0.0000 
      2 O1B        27.1090   53.0560   80.5240 O.co2     1 ADP1801     0.0000 
      3 O2B        25.4990   53.1360   78.7440 O.co2     1 ADP1801     0.0000 
      4 O3B        24.7320   52.9800   81.0450 O.co2     1 ADP1801     0.0000 
      5 PA         25.6620   56.1730   81.3960 P.3       1 ADP1801     0.0000 
      6 O1A        25.7850   55.3750   82.6460 O.co2     1 ADP1801     0.0000 
      7 O2A        24.3750   56.8770   81.2320 O.co2     1 ADP1801     0.0000 
      8 O3A        25.8180   55.1860   80.3660 O.3       1 ADP1801     0.0000 
      9 O5'        26.8380   56.9480   80.8980 O.3       1 ADP1801     0.0000 
     10 C5'        28.1440   56.5250   81.3230 C.3       1 ADP1801     0.0000 
     11 C4'        29.2190   57.5110   80.8540 C.3       1 ADP1801     0.0000 
     12 O4'        29.4310   57.4150   79.4330 O.3       1 ADP1801     0.0000 
     13 C3'        28.9290   58.9730   81.1590 C.3       1 ADP1801     0.0000 
     14 O3'        29.9620   59.4390   82.0450 O.3       1 ADP1801     0.0000 
     15 C2'        28.9440   59.7510   79.8550 C.3       1 ADP1801     0.0000 
     16 O2'        29.7690   60.9110   79.9380 O.3       1 ADP1801     0.0000 
     17 C1'        29.3310   58.7150   78.7960 C.3       1 ADP1801     0.0000 
     18 N9         28.4490   58.7060   77.5790 N.pl3     1 ADP1801     0.0000 
     19 C8         27.2460   58.1290   77.3750 C.2       1 ADP1801     0.0000 
     20 N7         26.8460   58.3810   76.1160 N.2       1 ADP1801     0.0000 
     21 C5         27.7950   59.1030   75.5380 C.ar      1 ADP1801     0.0000 
     22 C6         27.8460   59.6180   74.2090 C.ar      1 ADP1801     0.0000 
     23 N6         26.9090   59.4560   73.2740 N.pl3     1 ADP1801     0.0000 
     24 N1         28.9700   60.3330   73.9050 N.ar      1 ADP1801     0.0000 
     25 C2         29.9640   60.5350   74.7940 C.ar      1 ADP1801     0.0000 
     26 N3         29.9000   60.0410   76.0510 N.ar      1 ADP1801     0.0000 
     27 C4         28.8190   59.3120   76.4530 C.ar      1 ADP1801     0.0000 
     28 H          28.3988   55.5354   80.9170 H         1 ADP1801     0.0000 
     29 H          28.2087   56.4569   82.4186 H         1 ADP1801     0.0000 
     30 H          30.1611   57.2540   81.3663 H         1 ADP1801     0.0000 
     31 H          27.9648   59.0408   81.6031 H         1 ADP1801     0.0000 
     32 H          27.8902   60.0151   79.6571 H         1 ADP1801     0.0000 
     33 H          30.3642   59.0027   78.4591 H         1 ADP1801     0.0000 
     34 H          26.7512   57.6152   78.0332 H         1 ADP1801     0.0000 
     35 H          26.1163   58.9057   73.5362 H         1 ADP1801     0.0000 
     36 H          27.0834   59.8994   72.3948 H         1 ADP1801     0.0000 
     37 H          30.8097   61.0898   74.5040 H         1 ADP1801     0.0000 
     38 H          30.4172   60.1767   81.5463 H         1 ADP1801     0.0000 
     39 H          29.1689   61.6731   79.6949 H         1 ADP1801     0.0000 
@<TRIPOS>BOND
     1    2    1 ar   
     2    3    1 ar   
     3    4    1 ar   
     4    8    1 1    
     5    6    5 ar   
     6    7    5 ar   
     7    8    5 1    
     8    9    5 1    
     9   10    9 1    
    10   11   10 1    
    11   28   10 1    
    12   29   10 1    
    13   12   11 1    
    14   13   11 1    
    15   30   11 1    
    16   17   12 1    
    17   14   13 1    
    18   15   13 1    
    19   31   13 1    
    20   38   14 1    
    21   16   15 1    
    22   17   15 1    
    23   32   15 1    
    24   39   16 1    
    25   18   17 1    
    26   33   17 1    
    27   19   18 1    
    28   27   18 1    
    29   20   19 2    
    30   34   19 1    
    31   21   20 1    
    32   22   21 ar   
    33   27   21 ar   
    34   23   22 1    
    35   24   22 ar   
    36   35   23 1    
    37   36   23 1    
    38   25   24 ar   
    39   26   25 ar   
    40   37   25 1    
    41   27   26 ar   
@<TRIPOS>SUBSTRUCTURE
     1 ADP1801     1 GROUP   
@<TRIPOS>SET

