#    Name: 2C5F_1_CAVITY_N1_6.mol2
#    Modification time : Tue Mar 11 06:20:52 2014

@<TRIPOS>MOLECULE
2C5F_1_CAVITY_N1_6.mol2
   97     0     6     0     0
SMALL
NO_CHARGES


@<TRIPOS>ATOM
      1 N           2.9670   60.0956   74.7620 N.2       2 ALA2        0.0000 
      2 CA          3.9248   58.9420   74.8017 C.3       5 GLY6        0.0000 
      3 DU          1.8832   59.1791   74.2767 H         6 CUB7        0.0000 
      4 N           2.8411   58.0255   74.3164 N.2       2 ALA2        0.0000 
      5 N           3.7989   56.8718   74.3560 N.2       2 ALA2        0.0000 
      6 DU          0.7995   58.2627   73.7914 H         6 CUB7        0.0000 
      7 N           1.7573   57.1090   73.8311 N.2       2 ALA2        0.0000 
      8 N           2.7152   55.9553   73.8707 N.2       2 ALA2        0.0000 
      9 CA          0.6736   56.1925   73.3458 C.3       5 GLY6        0.0000 
     10 CA          1.6314   55.0388   73.3854 C.3       5 GLY6        0.0000 
     11 CA         -1.3680   56.4297   72.8208 C.3       5 GLY6        0.0000 
     12 N          -0.4102   55.2760   72.8604 N.2       2 ALA2        0.0000 
     13 O           4.4482   61.2934   73.8286 O.2       2 ALA2        0.0000 
     14 CZ          0.4909   63.8379   73.2243 C.ar      4 PHE5        0.0000 
     15 CA          1.4488   62.6842   73.2640 C.3       5 GLY6        0.0000 
     16 N           2.4066   61.5306   73.3036 N.2       2 ALA2        0.0000 
     17 N           3.3645   60.3769   73.3433 N.2       2 ALA2        0.0000 
     18 CA          4.3223   59.2232   73.3829 C.3       5 GLY6        0.0000 
     19 OG         -0.5928   62.9214   72.7390 O.2       1 SER1        0.0000 
     20 DU          0.3650   61.7677   72.7787 H         6 CUB7        0.0000 
     21 DU          1.3229   60.6141   72.8183 H         6 CUB7        0.0000 
     22 DU          2.2807   59.4604   72.8580 H         6 CUB7        0.0000 
     23 N           3.2386   58.3067   72.8976 N.2       2 ALA2        0.0000 
     24 OG         -1.6766   62.0049   72.2537 O.2       1 SER1        0.0000 
     25 CZ         -0.7187   60.8513   72.2934 C.ar      4 PHE5        0.0000 
     26 CZ          0.2391   59.6976   72.3330 C.ar      4 PHE5        0.0000 
     27 CZ          1.1970   58.5439   72.3727 C.ar      4 PHE5        0.0000 
     28 N           2.1548   57.3903   72.4123 N.2       2 ALA2        0.0000 
     29 CZ          0.1132   57.6274   71.8873 C.ar      4 PHE5        0.0000 
     30 CA          1.0711   56.4738   71.9270 C.3       5 GLY6        0.0000 
     31 CA          2.0289   55.3201   71.9666 C.3       5 GLY6        0.0000 
     32 CA          4.8457   61.5746   72.4098 C.3       5 GLY6        0.0000 
     33 CA          5.8036   60.4210   72.4495 C.3       5 GLY6        0.0000 
     34 CZ          0.8884   64.1192   71.8056 C.ar      4 PHE5        0.0000 
     35 CZ          1.8463   62.9655   71.8452 C.ar      4 PHE5        0.0000 
     36 CA          2.8041   61.8118   71.8849 C.3       5 GLY6        0.0000 
     37 DU          3.7620   60.6581   71.9245 H         6 CUB7        0.0000 
     38 CA          4.7198   59.5045   71.9642 C.3       5 GLY6        0.0000 
     39 OG         -0.1954   63.2027   71.3203 O.2       1 SER1        0.0000 
     40 DU          0.7625   62.0490   71.3599 H         6 CUB7        0.0000 
     41 DU          1.7204   60.8953   71.3995 H         6 CUB7        0.0000 
     42 DU          2.6782   59.7417   71.4392 H         6 CUB7        0.0000 
     43 N           3.6361   58.5880   71.4788 N.2       2 ALA2        0.0000 
     44 CZ         -0.3213   61.1325   70.8746 C.ar      4 PHE5        0.0000 
     45 CZ          0.6366   59.9788   70.9142 C.ar      4 PHE5        0.0000 
     46 CZ          1.5944   58.8252   70.9539 C.ar      4 PHE5        0.0000 
     47 N           2.5523   57.6715   70.9935 N.2       2 ALA2        0.0000 
     48 CA          3.3275   64.1632   70.9118 C.3       5 GLY6        0.0000 
     49 CA          4.2853   63.0096   70.9514 C.3       5 GLY6        0.0000 
     50 N           5.2432   61.8559   70.9911 N.2       2 ALA2        0.0000 
     51 CZ          0.3280   65.5541   70.3471 C.ar      4 PHE5        0.0000 
     52 CZ          1.2859   64.4004   70.3868 C.ar      4 PHE5        0.0000 
     53 CZ          2.2437   63.2467   70.4264 C.ar      4 PHE5        0.0000 
     54 CA          3.2016   62.0931   70.4661 C.3       5 GLY6        0.0000 
     55 CZ          4.1594   60.9394   70.5057 C.ar      4 PHE5        0.0000 
     56 O           5.1173   59.7857   70.5454 O.2       2 ALA2        0.0000 
     57 OG          0.2021   63.4839   69.9015 O.2       1 SER1        0.0000 
     58 CZ          2.1178   61.1766   69.9808 C.ar      4 PHE5        0.0000 
     59 CZ          3.0757   60.0229   70.0204 C.ar      4 PHE5        0.0000 
     60 O           4.0335   58.8693   70.0601 O.2       2 ALA2        0.0000 
     61 CZ          1.9919   59.1064   69.5351 C.ar      4 PHE5        0.0000 
     62 N           2.9498   57.9528   69.5748 N.2       2 ALA2        0.0000 
     63 CZ          1.8093   66.7518   69.4137 C.ar      4 PHE5        0.0000 
     64 CZ          2.7671   65.5982   69.4533 C.ar      4 PHE5        0.0000 
     65 CZ          3.7250   64.4445   69.4930 C.ar      4 PHE5        0.0000 
     66 CA         -0.2323   66.9890   68.8887 C.3       5 GLY6        0.0000 
     67 OG          0.7255   65.8353   68.9284 O.2       1 SER1        0.0000 
     68 OG          1.6834   64.6817   68.9680 O.2       1 SER1        0.0000 
     69 OG          2.6412   63.5280   69.0077 O.2       1 SER1        0.0000 
     70 CZ          3.5991   62.3743   69.0473 C.ar      4 PHE5        0.0000 
     71 CZ         -1.3161   66.0725   68.4034 C.ar      4 PHE5        0.0000 
     72 OG         -0.3582   64.9189   68.4431 O.2       1 SER1        0.0000 
     73 CZ          2.5153   61.4578   68.5620 C.ar      4 PHE5        0.0000 
     74 CZ          3.4732   60.3042   68.6017 C.ar      4 PHE5        0.0000 
     75 NZ          1.3748   70.2569   68.4009 N.2       3 LYS4        0.0000 
     76 CZ          2.3327   69.1032   68.4406 C.ar      4 PHE5        0.0000 
     77 CA          0.2911   69.3404   67.9156 C.3       5 GLY6        0.0000 
     78 NZ          1.2489   68.1867   67.9553 N.2       3 LYS4        0.0000 
     79 CZ          2.2068   67.0331   67.9949 C.ar      4 PHE5        0.0000 
     80 CZ          3.1646   65.8794   68.0346 C.ar      4 PHE5        0.0000 
     81 CA         -0.7927   68.4239   67.4303 C.3       5 GLY6        0.0000 
     82 CA          0.1652   67.2703   67.4700 C.3       5 GLY6        0.0000 
     83 CA         -1.8764   67.5074   66.9450 C.3       5 GLY6        0.0000 
     84 CZ         -0.9186   66.3538   66.9847 C.ar      4 PHE5        0.0000 
     85 CZ          2.7302   69.3845   67.0218 C.ar      4 PHE5        0.0000 
     86 CZ          1.6464   68.4680   66.5365 C.ar      4 PHE5        0.0000 
     87 CZ          2.6042   67.3143   66.5762 C.ar      4 PHE5        0.0000 
     88 OG          0.5626   67.5515   66.0512 O.2       1 SER1        0.0000 
     89 OG         -0.5211   66.6350   65.5659 O.2       1 SER1        0.0000 
     90 CZ          3.0017   67.5956   65.1574 C.ar      4 PHE5        0.0000 
     91 CZ          3.9596   66.4419   65.1970 C.ar      4 PHE5        0.0000 
     92 CZ          4.9174   65.2883   65.2367 C.ar      4 PHE5        0.0000 
     93 OG          1.9180   66.6791   64.6721 O.2       1 SER1        0.0000 
     94 OG          2.8758   65.5254   64.7117 O.2       1 SER1        0.0000 
     95 CZ          3.8337   64.3718   64.7514 C.ar      4 PHE5        0.0000 
     96 CZ          4.2312   64.6530   63.3326 C.ar      4 PHE5        0.0000 
     97 CZ          5.1890   63.4994   63.3723 C.ar      4 PHE5        0.0000 
@<TRIPOS>BOND
@<TRIPOS>SUBSTRUCTURE
     1 SER1       19 GROUP   
     2 ALA2        1 GROUP   
     3 LYS4       75 GROUP   
     4 PHE5       14 GROUP   
     5 GLY6        2 GROUP   
     6 CUB7        3 GROUP   
@<TRIPOS>SET

