#    Name: 2c5f_CHH_1_INTS_M
#    Modification time : Mon Mar 24 22:39:09 2014

@<TRIPOS>MOLECULE
2c5f_CHH_1_INTS_M
   17     0     3     0     0
SMALL
NO_CHARGES


@<TRIPOS>ATOM
      1 CA          4.8905   62.6555   68.4275 C.3       1 GLC5        0.0000 
      2 CA          3.4200   62.8590   68.9050 C.3       3 GLL5        0.0000 
      3 CA          6.3610   62.4520   67.9500 C.3       2 GLP5        0.0000 
      4 CA          0.5125   61.0165   69.2185 C.3       1 GLC5        0.0000 
      5 CA          1.7670   62.0690   70.3970 C.3       3 GLL5        0.0000 
      6 CA         -0.7420   59.9640   68.0400 C.3       2 GLP5        0.0000 
      7 CA          1.8800   64.5040   72.0195 C.3       1 GLC5        0.0000 
      8 CA          0.8380   62.7700   71.2260 C.3       3 GLL5        0.0000 
      9 CA          2.9220   66.2380   72.8130 C.3       2 GLP5        0.0000 
     10 CA         -0.7515   58.9590   70.7930 C.3       1 GLC5        0.0000 
     11 CA         -0.2790   59.8100   72.0400 C.3       3 GLL5        0.0000 
     12 CA         -1.2240   58.1080   69.5460 C.3       2 GLP5        0.0000 
     13 CA         -2.8175   62.9765   71.8745 C.3       1 GLC5        0.0000 
     14 CA         -1.9360   61.6110   72.3960 C.3       3 GLL5        0.0000 
     15 CA         -3.6990   64.3420   71.3530 C.3       2 GLP5        0.0000 
     16 CA         -2.3670   60.7670   70.8075 C.3       1 GLC5        0.0000 
     17 CA         -2.7980   59.9230   69.2190 C.3       2 GLP5        0.0000 
@<TRIPOS>BOND
@<TRIPOS>SUBSTRUCTURE
     1 GLC5        1 GROUP        1 X    GLC  0     ROOT GLC X 6
     2 GLP5        3 GROUP        1 Y    GLP  0     ROOT GLP Y 13
     3 GLL5        2 GROUP        1 Z    GLL  0     ROOT GLL Z 20
@<TRIPOS>SET

