#    Name: 2c5f_CHH_1_ligand
#    Modification time : Mon Mar 24 22:39:09 2014

@<TRIPOS>MOLECULE
2c5f_CHH_1_ligand
   28    27     1     0     0
SMALL
NO_CHARGES


@<TRIPOS>ATOM
      1 O7          1.9550   64.4780   69.6260 O.2       1 CHH1542     0.0000 
      2 C5          2.3160   63.1250   69.5690 C.2       1 CHH1542     0.0000 
      3 C6          3.4200   62.8590   68.9050 C.3       1 CHH1542     0.0000 
      4 C4          1.7670   62.0690   70.3970 C.3       1 CHH1542     0.0000 
      5 C3          0.8380   62.7700   71.2260 C.3       1 CHH1542     0.0000 
      6 C2          0.6430   62.0130   72.5960 C.3       1 CHH1542     0.0000 
      7 N1         -0.5250   61.0710   72.7290 N.4       1 CHH1542     0.0000 
      8 C9         -0.2790   59.8100   72.0400 C.3       1 CHH1542     0.0000 
      9 C10        -0.5740   60.6840   74.1150 C.3       1 CHH1542     0.0000 
     10 C8         -1.9360   61.6110   72.3960 C.3       1 CHH1542     0.0000 
     11 H           2.5447   61.6111   70.9842 H         1 CHH1542     0.0000 
     12 H           1.2681   61.3357   69.7865 H         1 CHH1542     0.0000 
     13 H          -0.1536   62.8477   70.7697 H         1 CHH1542     0.0000 
     14 H           1.1786   63.7798   71.4744 H         1 CHH1542     0.0000 
     15 H           0.5885   62.7948   73.3949 H         1 CHH1542     0.0000 
     16 H           1.5954   61.4626   72.8021 H         1 CHH1542     0.0000 
     17 H           4.2124   63.3234   69.3006 H         1 CHH1542     0.0000 
     18 H           3.6251   61.8803   68.9023 H         1 CHH1542     0.0000 
     19 H           3.3576   63.1481   67.9497 H         1 CHH1542     0.0000 
     20 H          -0.1159   59.9464   71.0629 H         1 CHH1542     0.0000 
     21 H           0.5212   59.3360   72.4074 H         1 CHH1542     0.0000 
     22 H          -1.0543   59.1839   72.1232 H         1 CHH1542     0.0000 
     23 H           0.2678   60.2275   74.4031 H         1 CHH1542     0.0000 
     24 H          -0.7003   61.4728   74.7166 H         1 CHH1542     0.0000 
     25 H          -1.3274   60.0523   74.2978 H         1 CHH1542     0.0000 
     26 H          -2.1879   62.3795   72.9842 H         1 CHH1542     0.0000 
     27 H          -1.9971   61.9328   71.4512 H         1 CHH1542     0.0000 
     28 H          -2.6392   60.9097   72.5128 H         1 CHH1542     0.0000 
@<TRIPOS>BOND
     1    2    1 2    
     2    3    2 1    
     3    4    2 1    
     4   17    3 1    
     5   18    3 1    
     6   19    3 1    
     7    5    4 1    
     8   11    4 1    
     9   12    4 1    
    10    6    5 1    
    11   13    5 1    
    12   14    5 1    
    13    7    6 1    
    14   15    6 1    
    15   16    6 1    
    16    8    7 1    
    17    9    7 1    
    18   10    7 1    
    19   20    8 1    
    20   21    8 1    
    21   22    8 1    
    22   23    9 1    
    23   24    9 1    
    24   25    9 1    
    25   26   10 1    
    26   27   10 1    
    27   28   10 1    
@<TRIPOS>SUBSTRUCTURE
     1 CHH1542     1 GROUP   
@<TRIPOS>SET

