#    Name: 2PLK_1_CAVITY_N1_6.mol2
#    Modification time : Tue Mar 11 05:35:14 2014

@<TRIPOS>MOLECULE
2PLK_1_CAVITY_N1_6.mol2
  111     0     7     0     0
SMALL
NO_CHARGES


@<TRIPOS>ATOM
      1 N          74.0348   81.8501    4.3794 N.2       2 ALA2        0.0000 
      2 O          74.8947   76.6828    3.0343 O.2       2 ALA2        0.0000 
      3 CA         73.6974   77.1536    3.8055 C.3       6 GLY6        0.0000 
      4 NZ         74.3832   75.2742    3.1000 N.2       4 LYS4        0.0000 
      5 CA         73.1859   75.7451    3.8712 C.3       6 GLY6        0.0000 
      6 NZ         73.8716   73.8657    3.1657 N.2       4 LYS4        0.0000 
      7 NZ         72.6743   74.3365    3.9369 N.2       4 LYS4        0.0000 
      8 CA         71.4770   74.8074    4.7081 C.3       6 GLY6        0.0000 
      9 N          70.2797   75.2782    5.4793 N.2       2 ALA2        0.0000 
     10 CA         69.0824   75.7490    6.2505 C.3       6 GLY6        0.0000 
     11 O          68.5708   74.3405    6.3163 O.2       2 ALA2        0.0000 
     12 O          67.3735   74.8113    7.0875 O.2       2 ALA2        0.0000 
     13 O          74.7796   81.6395    5.6643 O.2       2 ALA2        0.0000 
     14 CA         73.5823   82.1104    6.4355 C.3       6 GLY6        0.0000 
     15 O          74.2680   80.2310    5.7301 O.2       2 ALA2        0.0000 
     16 O          74.9538   78.3516    5.0246 O.2       2 ALA2        0.0000 
     17 O          73.7565   78.8225    5.7958 O.2       2 ALA2        0.0000 
     18 O          76.8369   76.0014    3.5479 O.2       2 ALA2        0.0000 
     19 O          75.6396   76.4722    4.3191 O.2       2 ALA2        0.0000 
     20 CA         74.4422   76.9431    5.0903 C.3       6 GLY6        0.0000 
     21 N          73.2449   77.4139    5.8615 N.2       2 ALA2        0.0000 
     22 OG         76.3253   74.5929    3.6137 O.2       1 SER1        0.0000 
     23 DU         75.1280   75.0637    4.3849 H         7 CUB7        0.0000 
     24 CA         73.9307   75.5345    5.1561 C.3       6 GLY6        0.0000 
     25 N          72.7334   76.0054    5.9273 N.2       2 ALA2        0.0000 
     26 NZ         74.6165   73.6552    4.4506 N.2       4 LYS4        0.0000 
     27 NZ         73.4191   74.1260    5.2218 N.2       4 LYS4        0.0000 
     28 N          72.2218   74.5968    5.9930 N.2       2 ALA2        0.0000 
     29 N          71.0245   75.0677    6.7642 N.2       2 ALA2        0.0000 
     30 OG         69.8272   75.5385    7.5354 O.2       1 SER1        0.0000 
     31 OG         68.6299   76.0093    8.3066 O.2       1 SER1        0.0000 
     32 CA         72.9076   72.7175    5.2876 C.3       6 GLY6        0.0000 
     33 CA         70.5129   73.6591    6.8300 C.3       6 GLY6        0.0000 
     34 O          69.3156   74.1300    7.6012 O.2       2 ALA2        0.0000 
     35 OG         74.8386   83.3084    7.6547 O.2       1 SER1        0.0000 
     36 OG         73.6413   83.7792    8.4259 O.2       1 SER1        0.0000 
     37 N          76.7217   80.9582    6.1780 N.2       2 ALA2        0.0000 
     38 OG         75.5244   81.4290    6.9492 O.2       1 SER1        0.0000 
     39 OG         74.3271   81.8999    7.7204 O.2       1 SER1        0.0000 
     40 CA         73.1298   82.3707    8.4916 C.3       6 GLY6        0.0000 
     41 O          71.9324   82.8415    9.2628 O.2       2 ALA2        0.0000 
     42 N          76.2102   79.5496    6.2437 N.2       2 ALA2        0.0000 
     43 N          75.0128   80.0205    7.0149 N.2       2 ALA2        0.0000 
     44 O          73.8155   80.4913    7.7861 O.2       2 ALA2        0.0000 
     45 O          72.6182   80.9621    8.5573 O.2       2 ALA2        0.0000 
     46 N          75.6986   78.1411    6.3095 N.2       2 ALA2        0.0000 
     47 N          74.5013   78.6119    7.0807 N.2       2 ALA2        0.0000 
     48 O          73.3040   79.0828    7.8519 O.2       2 ALA2        0.0000 
     49 O          72.1067   79.5536    8.6231 O.2       2 ALA2        0.0000 
     50 CA         76.3844   76.2617    5.6040 C.3       6 GLY6        0.0000 
     51 CA         75.1871   76.7326    6.3752 C.3       6 GLY6        0.0000 
     52 N          73.9897   77.2034    7.1464 N.2       2 ALA2        0.0000 
     53 N          72.7924   77.6742    7.9176 N.2       2 ALA2        0.0000 
     54 CA         71.5951   78.1451    8.6888 C.3       6 GLY6        0.0000 
     55 CA         75.8728   74.8532    5.6698 C.3       6 GLY6        0.0000 
     56 CA         74.6755   75.3240    6.4410 C.3       6 GLY6        0.0000 
     57 CA         73.4782   75.7948    7.2122 C.3       6 GLY6        0.0000 
     58 OG         72.2809   76.2657    7.9834 O.2       1 SER1        0.0000 
     59 OG         71.0835   76.7365    8.7546 O.2       1 SER1        0.0000 
     60 CA         72.9666   74.3863    7.2779 C.3       6 GLY6        0.0000 
     61 OG         76.2692   81.2185    8.2341 O.2       1 SER1        0.0000 
     62 OG         72.6773   82.6310   10.5477 O.2       1 SER1        0.0000 
     63 N          75.7577   79.8099    8.2998 N.2       2 ALA2        0.0000 
     64 OG         74.5603   80.2808    9.0710 O.2       1 SER1        0.0000 
     65 OG         73.3630   80.7516    9.8422 O.2       1 SER1        0.0000 
     66 CA         72.1657   81.2224   10.6134 C.3       6 GLY6        0.0000 
     67 CA         70.9684   81.6933   11.3846 C.3       6 GLY6        0.0000 
     68 N          75.2461   78.4014    8.3656 N.2       2 ALA2        0.0000 
     69 DU         74.0488   78.8722    9.1368 H         7 CUB7        0.0000 
     70 CA         72.8515   79.3431    9.9080 C.3       6 GLY6        0.0000 
     71 OD1        74.7345   76.9929    8.4313 O.3       3 ASP3        0.0000 
     72 OG         73.5372   77.4637    9.2025 O.2       1 SER1        0.0000 
     73 CA         72.3399   77.9345    9.9737 C.3       6 GLY6        0.0000 
     74 OD1        74.2230   75.5843    8.4971 O.3       3 ASP3        0.0000 
     75 OG         73.0257   76.0552    9.2683 O.2       1 SER1        0.0000 
     76 OG         73.4221   82.4205   11.8326 O.2       1 SER1        0.0000 
     77 DU         72.2247   82.8913   12.6038 H         7 CUB7        0.0000 
     78 DU         71.0274   83.3621   13.3750 H         7 CUB7        0.0000 
     79 NZ         75.3051   80.0702   10.3559 N.2       4 LYS4        0.0000 
     80 OG         74.1078   80.5411   11.1271 O.2       1 SER1        0.0000 
     81 CA         72.9105   81.0119   11.8983 C.3       6 GLY6        0.0000 
     82 CA         71.7132   81.4828   12.6695 C.3       6 GLY6        0.0000 
     83 N          70.5159   81.9536   13.4407 N.2       2 ALA2        0.0000 
     84 CA         75.9909   78.1909    9.6505 C.3       6 GLY6        0.0000 
     85 NZ         74.7936   78.6617   10.4217 N.2       4 LYS4        0.0000 
     86 CA         73.5963   79.1325   11.1928 C.3       6 GLY6        0.0000 
     87 CA         72.3990   79.6034   11.9640 C.3       6 GLY6        0.0000 
     88 CA         71.2016   80.0742   12.7352 C.3       6 GLY6        0.0000 
     89 OD1        74.2820   77.2532   10.4874 O.3       3 ASP3        0.0000 
     90 CZ         73.0847   77.7240   11.2586 C.ar      5 PHE5        0.0000 
     91 OG         71.8874   78.1948   12.0298 O.2       1 SER1        0.0000 
     92 CZ         73.7705   75.8446   10.5531 C.ar      5 PHE5        0.0000 
     93 OG         74.1669   82.2099   13.1174 O.2       1 SER1        0.0000 
     94 DU         72.9696   82.6808   13.8886 H         7 CUB7        0.0000 
     95 DU         71.7722   83.1516   14.6598 H         7 CUB7        0.0000 
     96 NZ         73.6553   80.8014   13.1832 N.2       4 LYS4        0.0000 
     97 NZ         72.4580   81.2722   13.9544 N.2       4 LYS4        0.0000 
     98 NZ         71.2607   81.7431   14.7256 N.2       4 LYS4        0.0000 
     99 NZ         74.3411   78.9220   12.4777 N.2       4 LYS4        0.0000 
    100 NZ         73.1438   79.3928   13.2489 N.2       4 LYS4        0.0000 
    101 NZ         75.0268   77.0426   11.7723 N.2       4 LYS4        0.0000 
    102 NZ         73.8295   77.5135   12.5435 N.2       4 LYS4        0.0000 
    103 NZ         72.6322   77.9843   13.3147 N.2       4 LYS4        0.0000 
    104 DU         74.2259   83.8788   15.1078 H         7 CUB7        0.0000 
    105 N          73.7144   82.4702   15.1735 N.2       2 ALA2        0.0000 
    106 CA         72.5170   82.9411   15.9447 C.3       6 GLY6        0.0000 
    107 N          74.4001   80.5909   14.4681 N.2       2 ALA2        0.0000 
    108 N          73.2028   81.0617   15.2393 N.2       2 ALA2        0.0000 
    109 N          73.8886   79.1823   14.5338 N.2       2 ALA2        0.0000 
    110 NZ         74.5743   77.3029   13.8284 N.2       4 LYS4        0.0000 
    111 NZ         73.3770   77.7738   14.5996 N.2       4 LYS4        0.0000 
@<TRIPOS>BOND
@<TRIPOS>SUBSTRUCTURE
     1 SER1       22 GROUP   
     2 ALA2        1 GROUP   
     3 ASP3       71 GROUP   
     4 LYS4        4 GROUP   
     5 PHE5       90 GROUP   
     6 GLY6        3 GROUP   
     7 CUB7       23 GROUP   
@<TRIPOS>SET

