#    Name: 2plk_P3D_1_INTS_M
#    Modification time : Mon Mar 24 19:13:41 2014

@<TRIPOS>MOLECULE
2plk_P3D_1_INTS_M
   69     0    12     0     0
SMALL
NO_CHARGES


@<TRIPOS>ATOM
      1 N          68.8675   77.4980    9.6445 N.am      2 SEC2        0.0000 
      2 N          68.3210   76.9440    8.7120 N.am     10 SEL2        0.0000 
      3 N          69.4140   78.0520   10.5770 N.am      6 SEP2        0.0000 
      4 N          67.2275   76.3070    6.6025 N.am      2 SEC2        0.0000 
      5 N          67.4400   75.0800    7.3590 N.am     10 SEL2        0.0000 
      6 N          67.0150   77.5340    5.8460 N.am      6 SEP2        0.0000 
      7 N          67.4605   73.6050    7.0825 N.am      2 SEC2        0.0000 
      8 N          67.4810   72.1300    6.8060 N.am      6 SEP2        0.0000 
      9 N          68.0475   73.5645    9.5270 N.am      2 SEC2        0.0000 
     10 N          69.0810   74.5100    9.2360 N.am     10 SEL2        0.0000 
     11 N          67.0140   72.6190    9.8180 N.am      6 SEP2        0.0000 
     12 N          70.2320   74.4965    9.7895 N.am      2 SEC2        0.0000 
     13 N          71.3830   74.4830   10.3430 N.am      6 SEP2        0.0000 
     14 N          70.2735   76.7670    6.1580 N.am      2 SEC2        0.0000 
     15 N          69.9540   75.7010    7.1410 N.am     10 SEL2        0.0000 
     16 N          70.5930   77.8330    5.1750 N.am      6 SEP2        0.0000 
     17 CA         69.2290   75.4105    5.3480 C.3       4 GLC5        0.0000 
     18 CA         70.6600   74.5050    6.7740 C.3      12 GLL5        0.0000 
     19 CA         67.7980   76.3160    3.9220 C.3       8 GLP5        0.0000 
     20 CA         69.3125   72.9475    7.3790 C.3       4 GLC5        0.0000 
     21 CA         67.9650   71.3900    7.9840 C.3       8 GLP5        0.0000 
     22 CA         69.7865   75.4735    4.2655 C.3       4 GLC5        0.0000 
     23 CA         71.7750   74.6310    4.6090 C.3      12 GLL5        0.0000 
     24 CA         70.9690   73.8535    3.0895 C.3       4 GLC5        0.0000 
     25 CA         70.1630   73.0760    1.5700 C.3       8 GLP5        0.0000 
     26 CA         75.1575   75.3765    9.5640 C.3       4 GLC5        0.0000 
     27 CA         73.8090   76.9950    9.8110 C.3      12 GLL5        0.0000 
     28 CA         76.5060   73.7580    9.3170 C.3       8 GLP5        0.0000 
     29 CA         72.6225   75.7315   10.7665 C.3       4 GLC5        0.0000 
     30 CA         71.4360   74.4680   11.7220 C.3       8 GLP5        0.0000 
     31 CA         76.1710   78.6715   10.4785 C.3       4 GLC5        0.0000 
     32 CA         73.9840   78.3940   10.3900 C.3      12 GLL5        0.0000 
     33 CA         78.3580   78.9490   10.5670 C.3       8 GLP5        0.0000 
     34 CA         72.2150   76.5420   11.6445 C.3       4 GLC5        0.0000 
     35 CA         72.9940   78.6160   11.5670 C.3      12 GLL5        0.0000 
     36 CA         72.8765   75.8400   12.5045 C.3       4 GLC5        0.0000 
     37 CA         73.1310   77.5920   12.6970 C.3      12 GLL5        0.0000 
     38 CA         72.6220   74.0880   12.3120 C.3       8 GLP5        0.0000 
     39 CA         72.3975   78.2170   15.8810 C.3       4 GLC5        0.0000 
     40 CA         73.2200   78.2480   14.0530 C.3      12 GLL5        0.0000 
     41 CA         71.5750   78.1860   17.7090 C.3       8 GLP5        0.0000 
     42 CA         72.4220   76.3180   14.2775 C.3       4 GLC5        0.0000 
     43 CA         71.6240   74.3880   14.5020 C.3       8 GLP5        0.0000 
     44 OD1        72.6835   78.7595   14.8130 O.co2     3 ASC3        0.0000 
     45 OD1        74.4890   78.9960   14.1770 O.co2    11 ASL3        0.0000 
     46 OD1        70.8780   78.5230   15.4490 O.co2     7 ASP3        0.0000 
     47 OD1        75.7590   79.6925   13.3530 O.co2     3 ASC3        0.0000 
     48 OD1        77.0290   80.3890   12.5290 O.co2     7 ASP3        0.0000 
     49 OD1        75.6210   78.7610   13.9425 O.co2     3 ASC3        0.0000 
     50 OD1        76.7530   78.5260   13.7080 O.co2     7 ASP3        0.0000 
     51 O          74.7855   79.4550   15.6675 O.2       1 ALC1        0.0000 
     52 O          74.4890   78.9960   14.1770 O.2       9 ALL1        0.0000 
     53 O          75.0820   79.9140   17.1580 O.2       5 ALP1        0.0000 
     54 O          75.6210   78.7610   13.9425 O.2       1 ALC1        0.0000 
     55 O          76.7530   78.5260   13.7080 O.2       5 ALP1        0.0000 
     56 CA         71.4044   72.7615    5.6989 C.3       4 GLC5        0.0000 
     57 CA         71.8810   74.9330    5.9630 C.3      12 GLL5        0.0000 
     58 CA         71.2860   70.8480    5.9090 C.3       8 GLP5        0.0000 
     59 CA         71.3539   76.2655    4.7124 C.3       4 GLC5        0.0000 
     60 CA         71.1850   77.8560    3.9360 C.3       8 GLP5        0.0000 
     61 CA         72.7890   76.7885    3.7800 C.3       4 GLC5        0.0000 
     62 CA         73.8590   75.5580    4.1580 C.3      12 GLL5        0.0000 
     63 CA         74.6780   74.4220    7.0307 C.3       4 GLC5        0.0000 
     64 CA         74.0370   75.8930    5.5140 C.3      12 GLL5        0.0000 
     65 CA         75.8270   73.1010    8.0840 C.3       8 GLP5        0.0000 
     66 CA         72.3570   76.7995    4.9567 C.3       4 GLC5        0.0000 
     67 CA         73.0210   75.5930    6.4410 C.3      12 GLL5        0.0000 
     68 CA         71.5765   78.7198   11.0909 C.3       4 GLC5        0.0000 
     69 CA         69.8430   79.3910   10.3440 C.3       8 GLP5        0.0000 
@<TRIPOS>BOND
@<TRIPOS>SUBSTRUCTURE
     1 ALC1       51 GROUP        1 X    ALC  0     ROOT ALC X 1
     2 SEC2        1 GROUP        1 X    SEC  0     **** SEC X 2
     3 ASC3       44 GROUP        1 X    ASC  0     **** ASC X 3
     4 GLC5       17 GROUP        1 X    GLC  0     **** GLC X 6
     5 ALP1       53 GROUP        1 Y    ALP  0     ROOT ALP Y 8
     6 SEP2        3 GROUP        1 Y    SEP  0     **** SEP Y 9
     7 ASP3       46 GROUP        1 Y    ASP  0     **** ASP Y 10
     8 GLP5       19 GROUP        1 Y    GLP  0     **** GLP Y 13
     9 ALL1       52 GROUP        1 Z    ALL  0     ROOT ALL Z 15
    10 SEL2        2 GROUP        1 Z    SEL  0     **** SEL Z 16
    11 ASL3       45 GROUP        1 Z    ASL  0     **** ASL Z 17
    12 GLL5       18 GROUP        1 Z    GLL  0     **** GLL Z 20
@<TRIPOS>SET

