#    Name: 2plk_P3D_1_ligand
#    Modification time : Mon Mar 24 19:13:42 2014

@<TRIPOS>MOLECULE
2plk_P3D_1_ligand
   43    43     1     0     0
SMALL
NO_CHARGES


@<TRIPOS>ATOM
      1 OAE        68.3210   76.9440    8.7120 O.co2     1 P3D501      0.0000 
      2 PAV        68.7460   75.5070    8.1620 P.3       1 P3D501      0.0000 
      3 OAF        67.4400   75.0800    7.3590 O.co2     1 P3D501      0.0000 
      4 OAC        69.0810   74.5100    9.2360 O.co2     1 P3D501      0.0000 
      5 OAQ        69.9540   75.7010    7.1410 O.3       1 P3D501      0.0000 
      6 CAN        70.6600   74.5050    6.7740 C.3       1 P3D501      0.0000 
      7 CAT        71.8810   74.9330    5.9630 C.ar      1 P3D501      0.0000 
      8 CAH        71.7750   74.6310    4.6090 C.ar      1 P3D501      0.0000 
      9 NAP        72.7300   74.9300    3.7580 N.ar      1 P3D501      0.0000 
     10 CAR        73.8590   75.5580    4.1580 C.ar      1 P3D501      0.0000 
     11 CAA        74.9270   75.8840    3.0900 C.3       1 P3D501      0.0000 
     12 CAS        74.0370   75.8930    5.5140 C.ar      1 P3D501      0.0000 
     13 OAD        75.1850   76.5170    5.8720 O.3       1 P3D501      0.0000 
     14 CAU        73.0210   75.5930    6.4410 C.ar      1 P3D501      0.0000 
     15 CAG        73.1480   75.8800    7.8120 C.2       1 P3D501      0.0000 
     16 NAO        73.7870   76.9380    8.3380 N.2       1 P3D501      0.0000 
     17 CAM        73.8090   76.9950    9.8110 C.3       1 P3D501      0.0000 
     18 CAL        73.9840   78.3940   10.3900 C.3       1 P3D501      0.0000 
     19 CAK        72.9940   78.6160   11.5670 C.3       1 P3D501      0.0000 
     20 CAJ        73.1310   77.5920   12.6970 C.3       1 P3D501      0.0000 
     21 CAI        73.2200   78.2480   14.0530 C.3       1 P3D501      0.0000 
     22 NAB        74.4890   78.9960   14.1770 N.4       1 P3D501      0.0000 
     23 H          70.0541   73.8531    6.1540 H         1 P3D501      0.0000 
     24 H          71.0071   73.9583    7.6442 H         1 P3D501      0.0000 
     25 H          70.8933   74.1502    4.2915 H         1 P3D501      0.0000 
     26 H          72.6841   75.1755    8.4781 H         1 P3D501      0.0000 
     27 H          74.6281   76.3545   10.2044 H         1 P3D501      0.0000 
     28 H          72.8690   76.5671   10.2224 H         1 P3D501      0.0000 
     29 H          73.7848   79.1358    9.6254 H         1 P3D501      0.0000 
     30 H          74.9953   78.5146   10.7607 H         1 P3D501      0.0000 
     31 H          71.9698   78.5821   11.1691 H         1 P3D501      0.0000 
     32 H          73.1567   79.6255   11.9707 H         1 P3D501      0.0000 
     33 H          74.0299   76.9899   12.5197 H         1 P3D501      0.0000 
     34 H          72.2657   76.9194   12.6696 H         1 P3D501      0.0000 
     35 H          73.1590   77.4765   14.8261 H         1 P3D501      0.0000 
     36 H          72.3691   78.9241   14.1777 H         1 P3D501      0.0000 
     37 H          75.7216   76.3431    3.4874 H         1 P3D501      0.0000 
     38 H          75.2622   75.0585    2.6359 H         1 P3D501      0.0000 
     39 H          74.5674   76.4855    2.3767 H         1 P3D501      0.0000 
     40 H          74.5735   79.4386   15.0697 H         1 P3D501      0.0000 
     41 H          75.2840   78.3991   14.0694 H         1 P3D501      0.0000 
     42 H          74.5659   79.7141   13.4854 H         1 P3D501      0.0000 
     43 H          74.9757   76.9650    6.7412 H         1 P3D501      0.0000 
@<TRIPOS>BOND
     1    2    1 ar   
     2    3    2 ar   
     3    4    2 ar   
     4    5    2 1    
     5    6    5 1    
     6    7    6 1    
     7   23    6 1    
     8   24    6 1    
     9    8    7 ar   
    10   14    7 ar   
    11    9    8 ar   
    12   25    8 1    
    13   10    9 ar   
    14   11   10 1    
    15   12   10 ar   
    16   37   11 1    
    17   38   11 1    
    18   39   11 1    
    19   13   12 1    
    20   14   12 ar   
    21   43   13 1    
    22   15   14 1    
    23   16   15 2    
    24   26   15 1    
    25   17   16 1    
    26   18   17 1    
    27   27   17 1    
    28   28   17 1    
    29   19   18 1    
    30   29   18 1    
    31   30   18 1    
    32   20   19 1    
    33   31   19 1    
    34   32   19 1    
    35   21   20 1    
    36   33   20 1    
    37   34   20 1    
    38   22   21 1    
    39   35   21 1    
    40   36   21 1    
    41   40   22 1    
    42   41   22 1    
    43   42   22 1    
@<TRIPOS>SUBSTRUCTURE
     1 P3D501      1 GROUP   
@<TRIPOS>SET

