#    Name: 4e7z_ADP_2_INTS_M
#    Modification time : Tue Mar 25 10:43:01 2014

@<TRIPOS>MOLECULE
4e7z_ADP_2_INTS_M
   62     0    15     0     0
SMALL
NO_CHARGES


@<TRIPOS>ATOM
      1 Zn         67.8000   -7.4535   36.3700 Zn        4 ZIC7        0.0000 
      2 Zn         68.4370   -7.9430   37.2530 Zn       14 ZIL7        0.0000 
      3 Zn         67.1630   -6.9640   35.4870 Zn        9 ZIP7        0.0000 
      4 N          67.3015   -8.4330   37.9955 N.am      2 SEC2        0.0000 
      5 N          68.4370   -7.9430   37.2530 N.am     12 SEL2        0.0000 
      6 N          66.1660   -8.9230   38.7380 N.am      7 SEP2        0.0000 
      7 NZ         70.0985   -5.5225   37.8070 N.4       3 LYC4        0.0000 
      8 NZ         70.6610   -6.7970   36.5930 N.4      13 LYL4        0.0000 
      9 NZ         69.5360   -4.2480   39.0210 N.4       8 LYP4        0.0000 
     10 N          72.0135   -6.5960   37.0715 N.am      2 SEC2        0.0000 
     11 N          70.6610   -6.7970   36.5930 N.am     12 SEL2        0.0000 
     12 N          73.3660   -6.3950   37.5500 N.am      7 SEP2        0.0000 
     13 N          71.2085   -7.8000   35.6395 N.am      2 SEC2        0.0000 
     14 N          71.7560   -8.8030   34.6860 N.am      7 SEP2        0.0000 
     15 NZ         69.6885   -5.5355   38.9720 N.4       3 LYC4        0.0000 
     16 NZ         69.8410   -6.8230   38.9230 N.4      13 LYL4        0.0000 
     17 N          70.3010   -7.8240   39.9675 N.am      2 SEC2        0.0000 
     18 N          69.8410   -6.8230   38.9230 N.am     12 SEL2        0.0000 
     19 N          70.7610   -8.8250   41.0120 N.am      7 SEP2        0.0000 
     20 N          68.9780   -7.4865   39.8265 N.am      2 SEC2        0.0000 
     21 N          68.1150   -8.1500   40.7300 N.am      7 SEP2        0.0000 
     22 N          69.6885   -5.5355   38.9720 N.am      2 SEC2        0.0000 
     23 N          69.5360   -4.2480   39.0210 N.am      7 SEP2        0.0000 
     24 N          67.1885  -11.1960   38.5875 N.am      2 SEC2        0.0000 
     25 N          68.5230  -10.5670   38.3300 N.am     12 SEL2        0.0000 
     26 N          65.8540  -11.8250   38.8450 N.am      7 SEP2        0.0000 
     27 N          70.6650   -9.6795   35.3315 N.am      2 SEC2        0.0000 
     28 N          69.5740  -10.5560   35.9770 N.am     12 SEL2        0.0000 
     29 N          70.6045   -8.9045   39.3990 N.am      2 SEC2        0.0000 
     30 N          70.4480   -8.9840   37.7860 N.am     12 SEL2        0.0000 
     31 CA         72.9940   -9.6270   37.5255 C.3       5 GLC5        0.0000 
     32 CA         72.0860  -11.5650   37.1390 C.3      15 GLL5        0.0000 
     33 CA         73.9020   -7.6890   37.9120 C.3      10 GLP5        0.0000 
     34 CA         74.4345  -12.9705   37.9380 C.3       5 GLC5        0.0000 
     35 CA         72.4790  -13.0240   37.1860 C.3      15 GLL5        0.0000 
     36 CA         76.3900  -12.9170   38.6900 C.3      10 GLP5        0.0000 
     37 N          73.2910  -12.6720   39.6420 N.am      2 SEC2        0.0000 
     38 N          72.8030  -13.4040   38.5220 N.am     12 SEL2        0.0000 
     39 N          73.7790  -11.9400   40.7620 N.am      7 SEP2        0.0000 
     40 CA         74.3930  -14.4795   38.9615 C.3       5 GLC5        0.0000 
     41 CA         72.4000  -14.7590   38.7320 C.3      15 GLL5        0.0000 
     42 CA         76.3860  -14.2000   39.1910 C.3      10 GLP5        0.0000 
     43 O          67.8890  -16.4775   44.6340 O.2       1 ALC1        0.0000 
     44 O          68.8170  -15.8130   43.5690 O.2      11 ALL1        0.0000 
     45 O          66.9610  -17.1420   45.6990 O.2       6 ALP1        0.0000 
     46 CA         71.6635  -17.3880   42.9855 C.3       5 GLC5        0.0000 
     47 CA         70.7860  -17.9110   41.4000 C.3      15 GLL5        0.0000 
     48 CA         72.5410  -16.8650   44.5710 C.3      10 GLP5        0.0000 
     49 CA         72.6880  -19.0545   41.4090 C.3       5 GLC5        0.0000 
     50 CA         74.5900  -20.1980   41.4180 C.3      10 GLP5        0.0000 
     51 CA         71.0615  -19.9880   41.6865 C.3       5 GLC5        0.0000 
     52 CA         71.3370  -22.0650   41.9730 C.3      10 GLP5        0.0000 
     53 CA         69.6510  -14.3475   37.9492 C.3       5 GLC5        0.0000 
     54 CA         71.7100  -15.2490   37.4790 C.3      15 GLL5        0.0000 
     55 CA         67.7930  -14.0970   38.7400 C.3      10 GLP5        0.0000 
     56 CA         70.2245  -15.5740   35.7777 C.3       5 GLC5        0.0000 
     57 CA         71.3080  -13.9470   36.8380 C.3      15 GLL5        0.0000 
     58 CA         68.9400  -16.5500   34.3970 C.3      10 GLP5        0.0000 
     59 CA         69.2237  -14.7922   39.9138 C.3       5 GLC5        0.0000 
     60 CA         70.2120  -15.2250   41.6030 C.3      15 GLL5        0.0000 
     61 CA         71.4989  -15.5400   42.9525 C.3       5 GLC5        0.0000 
     62 CA         72.4850  -15.3480   44.5770 C.3      10 GLP5        0.0000 
@<TRIPOS>BOND
@<TRIPOS>SUBSTRUCTURE
     1 ALC1       43 GROUP        1 X    ALC  0     ROOT ALC X 1
     2 SEC2        4 GROUP        1 X    SEC  0     **** SEC X 2
     3 LYC4        7 GROUP        1 X    LYC  0     **** LYC X 4
     4 ZIC7        1 GROUP        1 X    ZIC  0     **** ZIC X 5
     5 GLC5       31 GROUP        1 X    GLC  0     **** GLC X 6
     6 ALP1       45 GROUP        1 Y    ALP  0     ROOT ALP Y 8
     7 SEP2        6 GROUP        1 Y    SEP  0     **** SEP Y 9
     8 LYP4        9 GROUP        1 Y    LYP  0     **** LYP Y 11
     9 ZIP7        3 GROUP        1 Y    ZIP  0     **** ZIP Y 12
    10 GLP5       33 GROUP        1 Y    GLP  0     **** GLP Y 13
    11 ALL1       44 GROUP        1 Z    ALL  0     ROOT ALL Z 15
    12 SEL2        5 GROUP        1 Z    SEL  0     **** SEL Z 16
    13 LYL4        8 GROUP        1 Z    LYL  0     **** LYL Z 18
    14 ZIL7        2 GROUP        1 Z    ZIL  0     **** ZIL Z 19
    15 GLL5       32 GROUP        1 Z    GLL  0     **** GLL Z 20
@<TRIPOS>SET

