#    Name: 4e7z_ADP_2_ligand
#    Modification time : Tue Mar 25 10:43:01 2014

@<TRIPOS>MOLECULE
4e7z_ADP_2_ligand
   39    41     1     0     0
SMALL
NO_CHARGES


@<TRIPOS>ATOM
      1 PB         69.7980   -7.5100   37.6020 P.3       1 ADP801      0.0000 
      2 O1B        68.4370   -7.9430   37.2530 O.co2     1 ADP801      0.0000 
      3 O2B        70.6610   -6.7970   36.5930 O.co2     1 ADP801      0.0000 
      4 O3B        69.8410   -6.8230   38.9230 O.co2     1 ADP801      0.0000 
      5 PA         69.7290  -10.3920   37.4530 P.3       1 ADP801      0.0000 
      6 O1A        68.5230  -10.5670   38.3300 O.co2     1 ADP801      0.0000 
      7 O2A        69.5740  -10.5560   35.9770 O.co2     1 ADP801      0.0000 
      8 O3A        70.4480   -8.9840   37.7860 O.3       1 ADP801      0.0000 
      9 O5'        70.8940  -11.4050   37.8900 O.3       1 ADP801      0.0000 
     10 C5'        72.0860  -11.5650   37.1390 C.3       1 ADP801      0.0000 
     11 C4'        72.4790  -13.0240   37.1860 C.3       1 ADP801      0.0000 
     12 O4'        72.8030  -13.4040   38.5220 O.3       1 ADP801      0.0000 
     13 C3'        71.3080  -13.9470   36.8380 C.3       1 ADP801      0.0000 
     14 O3'        71.1210  -14.0810   35.4350 O.3       1 ADP801      0.0000 
     15 C2'        71.7100  -15.2490   37.4790 C.3       1 ADP801      0.0000 
     16 O2'        72.7160  -15.9270   36.7010 O.3       1 ADP801      0.0000 
     17 C1'        72.4000  -14.7590   38.7320 C.3       1 ADP801      0.0000 
     18 N9         71.4740  -14.7030   39.8600 N.pl3     1 ADP801      0.0000 
     19 C8         70.9220  -13.5800   40.3560 C.2       1 ADP801      0.0000 
     20 N7         70.1420  -13.8930   41.4180 N.2       1 ADP801      0.0000 
     21 C5         70.2120  -15.2250   41.6030 C.ar      1 ADP801      0.0000 
     22 C6         69.6450  -16.2030   42.5650 C.ar      1 ADP801      0.0000 
     23 N6         68.8170  -15.8130   43.5690 N.pl3     1 ADP801      0.0000 
     24 N1         69.9700  -17.4960   42.3940 N.ar      1 ADP801      0.0000 
     25 C2         70.7860  -17.9110   41.4000 C.ar      1 ADP801      0.0000 
     26 N3         71.3450  -17.0780   40.5110 N.ar      1 ADP801      0.0000 
     27 C4         71.0970  -15.7500   40.5720 C.ar      1 ADP801      0.0000 
     28 H          72.9099  -10.9774   37.5505 H         1 ADP801      0.0000 
     29 H          71.9503  -11.2829   36.0924 H         1 ADP801      0.0000 
     30 H          73.2759  -13.2264   36.5221 H         1 ADP801      0.0000 
     31 H          70.4458  -13.5770   37.3533 H         1 ADP801      0.0000 
     32 H          70.8930  -15.8109   37.7291 H         1 ADP801      0.0000 
     33 H          73.2299  -15.3739   38.9546 H         1 ADP801      0.0000 
     34 H          71.0588  -12.6825   40.0095 H         1 ADP801      0.0000 
     35 H          68.4483  -16.5434   44.1441 H         1 ADP801      0.0000 
     36 H          68.6493  -14.8301   43.6442 H         1 ADP801      0.0000 
     37 H          70.9926  -18.9536   41.3229 H         1 ADP801      0.0000 
     38 H          72.0358  -13.9870   35.0420 H         1 ADP801      0.0000 
     39 H          72.7951  -15.3933   35.8590 H         1 ADP801      0.0000 
@<TRIPOS>BOND
     1    2    1 ar   
     2    3    1 ar   
     3    4    1 ar   
     4    8    1 1    
     5    6    5 ar   
     6    7    5 ar   
     7    8    5 1    
     8    9    5 1    
     9   10    9 1    
    10   11   10 1    
    11   28   10 1    
    12   29   10 1    
    13   12   11 1    
    14   13   11 1    
    15   30   11 1    
    16   17   12 1    
    17   14   13 1    
    18   15   13 1    
    19   31   13 1    
    20   38   14 1    
    21   16   15 1    
    22   17   15 1    
    23   32   15 1    
    24   39   16 1    
    25   18   17 1    
    26   33   17 1    
    27   19   18 1    
    28   27   18 1    
    29   20   19 2    
    30   34   19 1    
    31   21   20 1    
    32   22   21 ar   
    33   27   21 ar   
    34   23   22 1    
    35   24   22 ar   
    36   35   23 1    
    37   36   23 1    
    38   25   24 ar   
    39   26   25 ar   
    40   37   25 1    
    41   27   26 ar   
@<TRIPOS>SUBSTRUCTURE
     1 ADP801      1 GROUP   
@<TRIPOS>SET

