#    Name: 2VJB_1_CAVITY_N1_6.mol2
#    Modification time : Mon Mar 10 16:43:43 2014

@<TRIPOS>MOLECULE
2VJB_1_CAVITY_N1_6.mol2
  138     0     6     0     0
SMALL
NO_CHARGES


@<TRIPOS>ATOM
      1 O         101.8666   62.1063   28.1731 O.2       2 ALA2        0.0000 
      2 CA        101.8116   62.6858   26.7907 C.3       5 GLY6        0.0000 
      3 N         101.7566   63.2654   25.4083 N.2       2 ALA2        0.0000 
      4 N         102.2412   60.7721   27.5989 N.2       2 ALA2        0.0000 
      5 CA        102.1862   61.3516   26.2165 C.3       5 GLY6        0.0000 
      6 CA        102.1311   61.9312   24.8341 C.3       5 GLY6        0.0000 
      7 N         102.6157   59.4379   27.0247 N.2       2 ALA2        0.0000 
      8 DU        102.5607   60.0175   25.6423 H         6 CUB7        0.0000 
      9 CZ        102.5057   60.5970   24.2598 C.ar      4 PHE5        0.0000 
     10 CA        103.1003   56.9447   29.2153 C.3       5 GLY6        0.0000 
     11 N         103.0453   57.5242   27.8329 N.2       2 ALA2        0.0000 
     12 N         102.9903   58.1038   26.4505 N.2       2 ALA2        0.0000 
     13 DU        102.9353   58.6833   25.0680 H         6 CUB7        0.0000 
     14 CZ        102.8802   59.2629   23.6856 C.ar      4 PHE5        0.0000 
     15 CZ        102.8252   59.8424   22.3032 C.ar      4 PHE5        0.0000 
     16 CA        103.4198   56.1901   27.2587 C.3       5 GLY6        0.0000 
     17 N         103.3648   56.7696   25.8762 N.2       2 ALA2        0.0000 
     18 DU        103.3098   57.3492   24.4938 H         6 CUB7        0.0000 
     19 DU        103.2548   57.9287   23.1114 H         6 CUB7        0.0000 
     20 N         103.6844   56.0150   23.9196 N.2       2 ALA2        0.0000 
     21 OG        103.6293   56.5946   22.5372 O.2       1 SER1        0.0000 
     22 OG        103.5743   57.1741   21.1548 O.2       1 SER1        0.0000 
     23 CZ        104.0589   54.6808   23.3454 C.ar      4 PHE5        0.0000 
     24 OG        104.0039   55.2604   21.9630 O.2       1 SER1        0.0000 
     25 CZ        104.3784   53.9262   21.3887 C.ar      4 PHE5        0.0000 
     26 OG        104.3234   54.5058   20.0063 O.2       1 SER1        0.0000 
     27 N          99.7128   58.7054   26.8331 N.2       2 ALA2        0.0000 
     28 CZ         99.6578   59.2850   25.4507 C.ar      4 PHE5        0.0000 
     29 CA        100.1424   56.7917   27.6413 C.3       5 GLY6        0.0000 
     30 DU        100.0874   57.3713   26.2589 H         6 CUB7        0.0000 
     31 CZ        100.0324   57.9508   24.8765 C.ar      4 PHE5        0.0000 
     32 CA        100.5720   54.8780   28.4495 C.3       5 GLY6        0.0000 
     33 CA        100.5170   55.4576   27.0671 C.3       5 GLY6        0.0000 
     34 DU        100.4619   56.0371   25.6847 H         6 CUB7        0.0000 
     35 CZ        100.4069   56.6167   24.3023 C.ar      4 PHE5        0.0000 
     36 CZ        100.3519   57.1962   22.9198 C.ar      4 PHE5        0.0000 
     37 CA        100.8915   54.1234   26.4929 C.3       5 GLY6        0.0000 
     38 CA        100.8365   54.7030   25.1105 C.3       5 GLY6        0.0000 
     39 DU        100.7815   55.2825   23.7280 H         6 CUB7        0.0000 
     40 CZ        100.7265   55.8620   22.3456 C.ar      4 PHE5        0.0000 
     41 CZ        100.6714   56.4416   20.9632 C.ar      4 PHE5        0.0000 
     42 CZ        101.1560   53.9483   23.1538 C.ar      4 PHE5        0.0000 
     43 CZ        101.1010   54.5279   21.7714 C.ar      4 PHE5        0.0000 
     44 CZ        101.0460   55.1074   20.3890 C.ar      4 PHE5        0.0000 
     45 CZ        101.4756   53.1937   21.1972 C.ar      4 PHE5        0.0000 
     46 CZ        101.4205   53.7733   19.8148 C.ar      4 PHE5        0.0000 
     47 O          98.6360   57.0050   26.1631 O.2       2 ALA2        0.0000 
     48 CZ         98.5809   57.5846   24.7807 C.ar      4 PHE5        0.0000 
     49 CZ         99.0655   55.0913   26.9713 C.ar      4 PHE5        0.0000 
     50 CZ         99.0105   55.6709   25.5889 C.ar      4 PHE5        0.0000 
     51 CZ         98.9555   56.2504   24.2065 C.ar      4 PHE5        0.0000 
     52 CZ         99.4401   53.7571   26.3971 C.ar      4 PHE5        0.0000 
     53 CZ         99.3851   54.3367   25.0147 C.ar      4 PHE5        0.0000 
     54 OG         99.3300   54.9162   23.6323 O.2       1 SER1        0.0000 
     55 OG         99.2750   55.4958   22.2498 O.2       1 SER1        0.0000 
     56 CA         99.7596   53.0025   24.4405 C.3       5 GLY6        0.0000 
     57 OG         99.7046   53.5821   23.0580 O.2       1 SER1        0.0000 
     58 OG         99.6496   54.1616   21.6756 O.2       1 SER1        0.0000 
     59 OG         99.5945   54.7412   20.2932 O.2       1 SER1        0.0000 
     60 CZ         99.5395   55.3207   18.9108 C.ar      4 PHE5        0.0000 
     61 CZ        100.0791   52.2479   22.4838 C.ar      4 PHE5        0.0000 
     62 OG        100.0241   52.8275   21.1014 O.2       1 SER1        0.0000 
     63 OG         99.9691   53.4070   19.7190 O.2       1 SER1        0.0000 
     64 CA         99.9141   53.9866   18.3366 C.3       5 GLY6        0.0000 
     65 CZ         96.4271   54.1837   23.4407 C.ar      4 PHE5        0.0000 
     66 OG         96.8017   52.8496   22.8665 O.2       1 SER1        0.0000 
     67 OG         97.1212   52.0950   20.9098 O.2       1 SER1        0.0000 
     68 OG         97.0112   53.2541   18.1450 O.2       1 SER1        0.0000 
     69 OG         96.9562   53.8336   16.7626 O.2       1 SER1        0.0000 
     70 CZ         97.4958   50.7608   20.3356 C.ar      4 PHE5        0.0000 
     71 OG         97.4408   51.3404   18.9532 O.2       1 SER1        0.0000 
     72 DU         97.3857   51.9199   17.5708 H         6 CUB7        0.0000 
     73 CZ         97.8703   49.4266   19.7614 C.ar      4 PHE5        0.0000 
     74 CA         97.8153   50.0062   18.3790 C.3       5 GLY6        0.0000 
     75 CA         97.7603   50.5857   16.9966 C.3       5 GLY6        0.0000 
     76 CZ         95.3503   52.4833   22.7707 C.ar      4 PHE5        0.0000 
     77 OG         95.2952   53.0629   21.3883 O.2       1 SER1        0.0000 
     78 CZ         95.7798   50.5696   23.5789 C.ar      4 PHE5        0.0000 
     79 CZ         95.7248   51.1492   22.1965 C.ar      4 PHE5        0.0000 
     80 OG         95.6698   51.7287   20.8141 O.2       1 SER1        0.0000 
     81 OG         95.6148   52.3083   19.4316 O.2       1 SER1        0.0000 
     82 CZ         96.0994   49.8150   21.6223 C.ar      4 PHE5        0.0000 
     83 CZ         96.0443   50.3946   20.2399 C.ar      4 PHE5        0.0000 
     84 CZ        100.3987   51.4933   20.5272 C.ar      4 PHE5        0.0000 
     85 CZ         97.5591   55.3046   25.4931 C.ar      4 PHE5        0.0000 
     86 CZ         97.5040   55.8842   24.1107 C.ar      4 PHE5        0.0000 
     87 OG         97.8786   54.5500   23.5365 O.2       1 SER1        0.0000 
     88 CZ         98.3082   52.6363   24.3447 C.ar      4 PHE5        0.0000 
     89 OG         98.2531   53.2158   22.9623 O.2       1 SER1        0.0000 
     90 OG         98.5727   52.4612   21.0056 O.2       1 SER1        0.0000 
     91 OG         98.5177   53.0408   19.6232 O.2       1 SER1        0.0000 
     92 OG         98.4626   53.6203   18.2408 O.2       1 SER1        0.0000 
     93 N          98.4076   54.1999   16.8584 N.2       2 ALA2        0.0000 
     94 CZ         98.9472   51.1271   20.4314 C.ar      4 PHE5        0.0000 
     95 CA         98.8922   51.7066   19.0490 C.3       5 GLY6        0.0000 
     96 CA         98.8372   52.2862   17.6666 C.3       5 GLY6        0.0000 
     97 N          98.7822   52.8657   16.2841 N.2       2 ALA2        0.0000 
     98 CZ         99.3218   49.7929   19.8572 C.ar      4 PHE5        0.0000 
     99 NZ         99.2668   50.3724   18.4748 N.2       3 LYS4        0.0000 
    100 CA         99.2117   50.9520   17.0923 C.3       5 GLY6        0.0000 
    101 N         100.7897   60.4058   27.5031 N.2       2 ALA2        0.0000 
    102 CA        100.7347   60.9854   26.1207 C.3       5 GLY6        0.0000 
    103 N         101.1643   59.0717   26.9289 N.2       2 ALA2        0.0000 
    104 CZ        101.1093   59.6512   25.5465 C.ar      4 PHE5        0.0000 
    105 N         101.5939   57.1580   27.7371 N.2       2 ALA2        0.0000 
    106 N         101.5388   57.7375   26.3547 N.2       2 ALA2        0.0000 
    107 CZ        101.4838   58.3171   24.9723 C.ar      4 PHE5        0.0000 
    108 CZ        101.4288   58.8966   23.5898 C.ar      4 PHE5        0.0000 
    109 CA        101.9684   55.8238   27.1629 C.3       5 GLY6        0.0000 
    110 DU        101.9134   56.4034   25.7805 H         6 CUB7        0.0000 
    111 DU        101.8584   56.9829   24.3980 H         6 CUB7        0.0000 
    112 CZ        101.8034   57.5625   23.0156 C.ar      4 PHE5        0.0000 
    113 CZ        101.7483   58.1420   21.6332 C.ar      4 PHE5        0.0000 
    114 O         102.3430   54.4897   26.5887 O.2       2 ALA2        0.0000 
    115 CA        102.2879   55.0692   25.2062 C.3       5 GLY6        0.0000 
    116 CA        102.2329   55.6488   23.8238 C.3       5 GLY6        0.0000 
    117 DU        102.1779   56.2283   22.4414 H         6 CUB7        0.0000 
    118 OG        102.1229   56.8078   21.0590 O.2       1 SER1        0.0000 
    119 CZ        102.6075   54.3146   23.2496 C.ar      4 PHE5        0.0000 
    120 CZ        102.5524   54.8941   21.8672 C.ar      4 PHE5        0.0000 
    121 OG        102.4974   55.4737   20.4848 O.2       1 SER1        0.0000 
    122 OG        102.8720   54.1395   19.9105 O.2       1 SER1        0.0000 
    123 CA        105.8849   53.7129   22.8669 C.3       5 GLY6        0.0000 
    124 CA        105.8299   54.2925   21.4845 C.3       5 GLY6        0.0000 
    125 OG        105.7749   54.8720   20.1021 O.2       1 SER1        0.0000 
    126 CA        103.3181   62.4725   28.2689 C.3       5 GLY6        0.0000 
    127 DU        103.2631   63.0521   26.8865 H         6 CUB7        0.0000 
    128 N         103.2080   63.6316   25.5041 N.2       2 ALA2        0.0000 
    129 N         103.7476   60.5588   29.0771 N.2       2 ALA2        0.0000 
    130 N         103.6926   61.1384   27.6947 N.2       2 ALA2        0.0000 
    131 DU        103.6376   61.7179   26.3123 H         6 CUB7        0.0000 
    132 CA        103.5826   62.2974   24.9298 C.3       5 GLY6        0.0000 
    133 N         104.1222   59.2246   28.5029 N.2       2 ALA2        0.0000 
    134 N         104.0672   59.8042   27.1205 N.2       2 ALA2        0.0000 
    135 DU        104.0122   60.3837   25.7380 H         6 CUB7        0.0000 
    136 CA        104.4967   57.8905   27.9287 C.3       5 GLY6        0.0000 
    137 DU        104.4417   58.4700   26.5462 H         6 CUB7        0.0000 
    138 CA        104.8713   56.5563   27.3544 C.3       5 GLY6        0.0000 
@<TRIPOS>BOND
@<TRIPOS>SUBSTRUCTURE
     1 SER1       21 GROUP   
     2 ALA2        1 GROUP   
     3 LYS4       99 GROUP   
     4 PHE5        9 GROUP   
     5 GLY6        2 GROUP   
     6 CUB7        8 GROUP   
@<TRIPOS>SET

