#    Name: 2vjb_CCD_1_INTS_M
#    Modification time : Tue Mar 25 01:55:18 2014

@<TRIPOS>MOLECULE
2vjb_CCD_1_INTS_M
   25     0     3     0     0
SMALL
NO_CHARGES


@<TRIPOS>ATOM
      1 CA         99.1275   51.2175   23.1650 C.3       1 GLC5        0.0000 
      2 CA         99.8720   52.9150   23.2930 C.3       3 GLL5        0.0000 
      3 CA         98.3830   49.5200   23.0370 C.3       2 GLP5        0.0000 
      4 CA        101.3135   52.0900   23.6620 C.3       1 GLC5        0.0000 
      5 CA        102.7550   51.2650   24.0310 C.3       2 GLP5        0.0000 
      6 CA         99.6940   57.2370   22.4810 C.3       1 GLC5        0.0000 
      7 CA        100.8110   55.3840   23.0340 C.3       3 GLL5        0.0000 
      8 CA         98.5770   59.0900   21.9280 C.3       2 GLP5        0.0000 
      9 CA        101.5670   56.3830   19.9770 C.3       1 GLC5        0.0000 
     10 CA        101.4970   56.3570   22.0600 C.3       3 GLL5        0.0000 
     11 CA        101.6370   56.4090   17.8940 C.3       2 GLP5        0.0000 
     12 CA        100.3685   57.7885   21.3965 C.3       1 GLC5        0.0000 
     13 CA         99.2400   59.2200   20.7330 C.3       2 GLP5        0.0000 
     14 CA        102.9290   56.8370   20.1860 C.3       1 GLC5        0.0000 
     15 CA        103.0360   56.5520   22.4100 C.3       3 GLL5        0.0000 
     16 CA        102.8220   57.1220   17.9620 C.3       2 GLP5        0.0000 
     17 CA        101.7265   59.9610   22.6560 C.3       1 GLC5        0.0000 
     18 CA        103.0120   58.7750   23.6290 C.3       3 GLL5        0.0000 
     19 CA        100.4410   61.1470   21.6830 C.3       2 GLP5        0.0000 
     20 CA        103.1465   57.9430   19.5950 C.3       1 GLC5        0.0000 
     21 CA        103.4710   58.7640   21.2280 C.3       3 GLL5        0.0000 
     22 CA        102.5985   60.2345   20.5825 C.3       1 GLC5        0.0000 
     23 CA        101.7260   61.7050   19.9370 C.3       2 GLP5        0.0000 
     24 CA        101.9380   53.1905   22.7533 C.3       1 GLC5        0.0000 
     25 CA        103.2110   51.6920   22.7820 C.3       2 GLP5        0.0000 
@<TRIPOS>BOND
@<TRIPOS>SUBSTRUCTURE
     1 GLC5        1 GROUP        1 X    GLC  0     ROOT GLC X 6
     2 GLP5        3 GROUP        1 Y    GLP  0     ROOT GLP Y 13
     3 GLL5        2 GROUP        1 Z    GLL  0     ROOT GLL Z 20
@<TRIPOS>SET

