#    Name: 2vjb_CCD_1_ligand
#    Modification time : Tue Mar 25 01:55:18 2014

@<TRIPOS>MOLECULE
2vjb_CCD_1_ligand
   30    29     1     0     0
SMALL
NO_CHARGES


@<TRIPOS>ATOM
      1 O7        100.9320   53.6610   21.0560 O.3       1 CCD1540     0.0000 
      2 C5        100.5190   53.9940   22.4150 C.3       1 CCD1540     0.0000 
      3 C6         99.8720   52.9150   23.2930 C.3       1 CCD1540     0.0000 
      4 C4        100.8110   55.3840   23.0340 C.3       1 CCD1540     0.0000 
      5 C3        101.4970   56.3570   22.0600 C.3       1 CCD1540     0.0000 
      6 C2        103.0360   56.5520   22.4100 C.3       1 CCD1540     0.0000 
      7 N1        103.5930   57.9800   22.5020 N.4       1 CCD1540     0.0000 
      8 C9        103.0120   58.7750   23.6290 C.3       1 CCD1540     0.0000 
      9 C10       105.0360   57.9010   22.7870 C.3       1 CCD1540     0.0000 
     10 C8        103.4710   58.7640   21.2280 C.3       1 CCD1540     0.0000 
     11 H          99.2399   54.4318   21.9783 H         1 CCD1540     0.0000 
     12 H         101.4503   55.2482   23.9148 H         1 CCD1540     0.0000 
     13 H          99.8644   55.8230   23.3721 H         1 CCD1540     0.0000 
     14 H         101.0186   57.3293   22.1106 H         1 CCD1540     0.0000 
     15 H         101.4322   55.9734   21.0474 H         1 CCD1540     0.0000 
     16 H         103.6195   55.9797   21.6497 H         1 CCD1540     0.0000 
     17 H         103.2214   56.0238   23.3758 H         1 CCD1540     0.0000 
     18 H         100.4803   52.1331   23.4294 H         1 CCD1540     0.0000 
     19 H          99.6374   53.2654   24.1997 H         1 CCD1540     0.0000 
     20 H          99.0284   52.5628   22.8876 H         1 CCD1540     0.0000 
     21 H         103.1931   58.3496   24.5157 H         1 CCD1540     0.0000 
     22 H         103.3905   59.6999   23.6649 H         1 CCD1540     0.0000 
     23 H         102.0198   58.8674   23.5455 H         1 CCD1540     0.0000 
     24 H         105.5296   57.4079   22.0706 H         1 CCD1540     0.0000 
     25 H         105.4508   58.8082   22.8575 H         1 CCD1540     0.0000 
     26 H         105.2190   57.4272   23.6484 H         1 CCD1540     0.0000 
     27 H         103.8433   59.6872   21.3230 H         1 CCD1540     0.0000 
     28 H         103.9612   58.3264   20.4742 H         1 CCD1540     0.0000 
     29 H         102.5179   58.8604   20.9411 H         1 CCD1540     0.0000 
     30 H         100.0823   53.6192   20.5303 H         1 CCD1540     0.0000 
@<TRIPOS>BOND
     1    2    1 1    
     2   30    1 1    
     3    3    2 1    
     4    4    2 1    
     5   11    2 1    
     6   18    3 1    
     7   19    3 1    
     8   20    3 1    
     9    5    4 1    
    10   12    4 1    
    11   13    4 1    
    12    6    5 1    
    13   14    5 1    
    14   15    5 1    
    15    7    6 1    
    16   16    6 1    
    17   17    6 1    
    18    8    7 1    
    19    9    7 1    
    20   10    7 1    
    21   21    8 1    
    22   22    8 1    
    23   23    8 1    
    24   24    9 1    
    25   25    9 1    
    26   26    9 1    
    27   27   10 1    
    28   28   10 1    
    29   29   10 1    
@<TRIPOS>SUBSTRUCTURE
     1 CCD1540     1 GROUP   
@<TRIPOS>SET

