#    Name: 2WE3_1_CAVITY_N1_ALL.mol2
#    Modification time : Mon Mar 10 19:33:22 2014

@<TRIPOS>MOLECULE
2WE3_1_CAVITY_N1_ALL.mol2
   70     0     7     0     0
SMALL
NO_CHARGES


@<TRIPOS>ATOM
      1 O          31.1266   21.7108    6.9933 O.2       2 ALA2        0.0000 
      2 OD1        31.0107   20.4847    7.8496 O.3       3 ASP3        0.0000 
      3 CA         29.5891   20.3085    7.4048 C.3       6 GLY6        0.0000 
      4 OD1        29.4732   19.0824    8.2612 O.3       3 ASP3        0.0000 
      5 OD1        29.3573   17.8563    9.1175 O.3       3 ASP3        0.0000 
      6 DU         28.0515   18.9061    7.8164 H         7 CUB7        0.0000 
      7 NZ         27.9356   17.6801    8.6728 N.2       4 LYS4        0.0000 
      8 CZ         26.6299   18.7299    7.3716 C.ar      5 PHE5        0.0000 
      9 CZ         26.5140   17.5038    8.2280 C.ar      5 PHE5        0.0000 
     10 NZ         26.3981   16.2777    9.0843 N.2       4 LYS4        0.0000 
     11 CZ         25.2082   18.5536    6.9268 C.ar      5 PHE5        0.0000 
     12 OG         22.5967   20.6532    4.3245 O.2       1 SER1        0.0000 
     13 O          31.4749   19.6387    6.7012 O.2       2 ALA2        0.0000 
     14 OG         30.0533   19.4625    6.2564 O.2       1 SER1        0.0000 
     15 OD1        29.9374   18.2364    7.1128 O.3       3 ASP3        0.0000 
     16 OD1        29.8215   17.0104    7.9691 O.3       3 ASP3        0.0000 
     17 OG         28.5157   18.0601    6.6680 O.2       1 SER1        0.0000 
     18 NZ         28.3998   16.8341    7.5243 N.2       4 LYS4        0.0000 
     19 CA         27.5577   22.7881    2.7978 C.3       6 GLY6        0.0000 
     20 CA         27.4418   21.5621    3.6542 C.3       6 GLY6        0.0000 
     21 OG         27.2100   19.1099    5.3669 O.2       1 SER1        0.0000 
     22 OG         27.0941   17.8839    6.2232 O.2       1 SER1        0.0000 
     23 N          26.9782   16.6578    7.0796 N.2       2 ALA2        0.0000 
     24 NZ         26.8623   15.4317    7.9359 N.2       4 LYS4        0.0000 
     25 CA         26.1360   22.6119    2.3530 C.3       6 GLY6        0.0000 
     26 CA         26.0201   21.3858    3.2094 C.3       6 GLY6        0.0000 
     27 OG         25.9042   20.1597    4.0657 O.2       1 SER1        0.0000 
     28 OG         25.7883   18.9337    4.9221 O.2       1 SER1        0.0000 
     29 CZ         25.6724   17.7076    5.7784 C.ar      5 PHE5        0.0000 
     30 CZ         25.5565   16.4815    6.6348 C.ar      5 PHE5        0.0000 
     31 CZ         25.4406   15.2555    7.4911 C.ar      5 PHE5        0.0000 
     32 O          24.7144   22.4356    1.9082 O.2       2 ALA2        0.0000 
     33 CA         24.5985   21.2095    2.7646 C.3       6 GLY6        0.0000 
     34 CA         24.4826   19.9835    3.6209 C.3       6 GLY6        0.0000 
     35 OG         24.3667   18.7574    4.4773 O.2       1 SER1        0.0000 
     36 CZ         24.2508   17.5313    5.3336 C.ar      5 PHE5        0.0000 
     37 CZ         24.1349   16.3053    6.1900 C.ar      5 PHE5        0.0000 
     38 CA         23.0609   19.8072    3.1761 C.3       6 GLY6        0.0000 
     39 OG         22.9450   18.5811    4.0325 O.2       1 SER1        0.0000 
     40 O          31.8232   17.5667    6.4092 O.2       2 ALA2        0.0000 
     41 N          31.7073   16.3406    7.2655 N.2       2 ALA2        0.0000 
     42 OG         30.4016   17.3904    5.9644 O.2       1 SER1        0.0000 
     43 N          30.2857   16.1644    6.8207 N.2       2 ALA2        0.0000 
     44 OG         28.9799   17.2142    5.5196 O.2       1 SER1        0.0000 
     45 OG         27.5583   17.0379    5.0748 O.2       1 SER1        0.0000 
     46 N          27.4424   15.8118    5.9312 N.2       2 ALA2        0.0000 
     47 CA         26.4843   20.5398    2.0610 C.3       6 GLY6        0.0000 
     48 OG         26.3684   19.3137    2.9173 O.2       1 SER1        0.0000 
     49 OG         26.2525   18.0877    3.7737 O.2       1 SER1        0.0000 
     50 CA         26.1366   16.8616    4.6300 C.3       6 GLY6        0.0000 
     51 CA         26.0207   15.6355    5.4864 C.3       6 GLY6        0.0000 
     52 CA         25.0627   20.3635    1.6162 C.3       6 GLY6        0.0000 
     53 N          24.9468   19.1375    2.4725 N.2       2 ALA2        0.0000 
     54 N          24.8309   17.9114    3.3289 N.2       2 ALA2        0.0000 
     55 CA         24.7150   16.6853    4.1852 C.3       6 GLY6        0.0000 
     56 CA         24.5991   15.4593    5.0416 C.3       6 GLY6        0.0000 
     57 CA         23.2933   16.5091    3.7404 C.3       6 GLY6        0.0000 
     58 OG         30.8658   16.5444    4.8160 O.2       1 SER1        0.0000 
     59 N          30.7498   15.3184    5.6723 N.2       2 ALA2        0.0000 
     60 OG         29.4441   16.3682    4.3712 O.2       1 SER1        0.0000 
     61 OG         28.0225   16.1919    3.9264 O.2       1 SER1        0.0000 
     62 N          26.8326   18.4678    1.7689 N.2       2 ALA2        0.0000 
     63 OG         26.7167   17.2417    2.6253 O.2       1 SER1        0.0000 
     64 CA         26.6008   16.0156    3.4816 C.3       6 GLY6        0.0000 
     65 N          25.2951   17.0654    2.1805 N.2       2 ALA2        0.0000 
     66 CA         25.1792   15.8394    3.0368 C.3       6 GLY6        0.0000 
     67 CA         28.6026   16.5720    1.9217 C.3       6 GLY6        0.0000 
     68 N          27.2968   17.6218    0.6205 N.2       2 ALA2        0.0000 
     69 CA         27.1809   16.3957    1.4769 C.3       6 GLY6        0.0000 
     70 CA         27.0650   15.1696    2.3332 C.3       6 GLY6        0.0000 
@<TRIPOS>BOND
@<TRIPOS>SUBSTRUCTURE
     1 SER1       12 GROUP   
     2 ALA2        1 GROUP   
     3 ASP3        2 GROUP   
     4 LYS4        7 GROUP   
     5 PHE5        8 GROUP   
     6 GLY6        3 GROUP   
     7 CUB7        6 GROUP   
@<TRIPOS>SET

