#    Name: 2we3_DUT_1_INTS_M
#    Modification time : Tue Mar 25 04:08:04 2014

@<TRIPOS>MOLECULE
2we3_DUT_1_INTS_M
   68     0    15     0     0
SMALL
NO_CHARGES


@<TRIPOS>ATOM
      1 O          25.0860   17.5170    0.9875 O.2       1 ALC1        0.0000 
      2 O          25.7370   17.0960    2.0120 O.2      11 ALL1        0.0000 
      3 O          24.4350   17.9380   -0.0370 O.2       6 ALP1        0.0000 
      4 CA         29.2645   17.0465    1.4910 C.3       5 GLC5        0.0000 
      5 CA         27.8720   16.5580    2.9280 C.3      15 GLL5        0.0000 
      6 CA         30.6570   17.5350    0.0540 C.3      10 GLP5        0.0000 
      7 CA         28.7605   15.2735    2.0830 C.3       5 GLC5        0.0000 
      8 CA         29.6490   13.9890    1.2380 C.3      10 GLP5        0.0000 
      9 N          22.9480   17.6650    2.2895 N.am      2 SEC2        0.0000 
     10 N          24.0290   17.4260    3.4090 N.am     12 SEL2        0.0000 
     11 N          21.8670   17.9040    1.1700 N.am      7 SEP2        0.0000 
     12 CA         24.2575   17.5190    6.9755 C.3       5 GLC5        0.0000 
     13 CA         25.5140   16.9950    5.7970 C.3      15 GLL5        0.0000 
     14 CA         23.0010   18.0430    8.1540 C.3      10 GLP5        0.0000 
     15 CA         24.2195   15.6805    7.6615 C.3       5 GLC5        0.0000 
     16 CA         25.6350   15.6700    6.5560 C.3      15 GLL5        0.0000 
     17 CA         22.8040   15.6910    8.7670 C.3      10 GLP5        0.0000 
     18 CA         26.7060   13.8955    6.8925 C.3       5 GLC5        0.0000 
     19 CA         26.8000   15.8790    7.5280 C.3      15 GLL5        0.0000 
     20 CA         26.6120   11.9120    6.2570 C.3      10 GLP5        0.0000 
     21 N          26.7050   13.5870    8.7065 N.am      2 SEC2        0.0000 
     22 N          26.6440   15.1020    8.7370 N.am     12 SEL2        0.0000 
     23 N          26.7660   12.0720    8.6760 N.am      7 SEP2        0.0000 
     24 O          27.6820   14.8290    9.4280 O.2       1 ALC1        0.0000 
     25 O          26.6440   15.1020    8.7370 O.2      11 ALL1        0.0000 
     26 O          28.7200   14.5560   10.1190 O.2       6 ALP1        0.0000 
     27 N          31.6285   18.7300    4.8925 N.am      2 SEC2        0.0000 
     28 N          31.1600   17.6740    5.6660 N.am     12 SEL2        0.0000 
     29 N          32.0970   19.7860    4.1190 N.am      7 SEP2        0.0000 
     30 N          30.2880   18.3060    4.7085 N.am      2 SEC2        0.0000 
     31 N          29.4160   18.9380    3.7510 N.am      7 SEP2        0.0000 
     32 N          31.2450   16.7210    4.7295 N.am      2 SEC2        0.0000 
     33 N          31.3300   15.7680    3.7930 N.am      7 SEP2        0.0000 
     34 Zn         31.5255   17.4805    9.0100 Zn        4 ZIC7        0.0000 
     35 Zn         30.9860   17.2130    8.2280 Zn       14 ZIL7        0.0000 
     36 Zn         32.0650   17.7480    9.7920 Zn        9 ZIP7        0.0000 
     37 N          31.0025   15.8645    7.8395 N.am      2 SEC2        0.0000 
     38 N          30.9860   17.2130    8.2280 N.am     12 SEL2        0.0000 
     39 N          31.0190   14.5160    7.4510 N.am      7 SEP2        0.0000 
     40 NZ         33.8250   21.3615    8.4635 N.4       3 LYC4        0.0000 
     41 NZ         32.1940   21.5020    7.3180 N.4      13 LYL4        0.0000 
     42 NZ         35.4560   21.2210    9.6090 N.4       8 LYP4        0.0000 
     43 N          31.9665   22.0745    5.9610 N.am      2 SEC2        0.0000 
     44 N          32.1940   21.5020    7.3180 N.am     12 SEL2        0.0000 
     45 N          31.7390   22.6470    4.6040 N.am      7 SEP2        0.0000 
     46 NZ         34.0015   19.8380    8.7355 N.4       3 LYC4        0.0000 
     47 NZ         32.7010   19.4460    8.7320 N.4      13 LYL4        0.0000 
     48 Zn         32.3830   18.5970    9.2620 Zn        4 ZIC7        0.0000 
     49 Zn         32.7010   19.4460    8.7320 Zn       14 ZIL7        0.0000 
     50 N          34.0015   19.8380    8.7355 N.am      2 SEC2        0.0000 
     51 N          32.7010   19.4460    8.7320 N.am     12 SEL2        0.0000 
     52 N          35.3020   20.2300    8.7390 N.am      7 SEP2        0.0000 
     53 N          33.5770   20.5230    9.5745 N.am      2 SEC2        0.0000 
     54 N          34.4530   21.6000   10.4170 N.am      7 SEP2        0.0000 
     55 N          33.1005   21.2635   10.9930 N.am      2 SEC2        0.0000 
     56 N          31.7480   20.9270   11.5690 N.am     12 SEL2        0.0000 
     57 N          32.4725   19.6265   11.5270 N.am      2 SEC2        0.0000 
     58 N          33.1970   18.3260   11.4850 N.am      7 SEP2        0.0000 
     59 Zn         31.3475   18.2820   10.2230 Zn        4 ZIC7        0.0000 
     60 Zn         30.6300   18.8160   10.6540 Zn       14 ZIL7        0.0000 
     61 CA         26.5927   14.9227    3.6325 C.3       5 GLC5        0.0000 
     62 CA         27.3330   16.6370    4.1980 C.3      15 GLL5        0.0000 
     63 CA         25.5830   13.2480    3.7020 C.3      10 GLP5        0.0000 
     64 CA         28.6212   18.4783    3.6645 C.3       5 GLC5        0.0000 
     65 CA         29.6400   20.3590    3.7660 C.3      10 GLP5        0.0000 
     66 CA         25.5787   14.7903    4.9392 C.3       5 GLC5        0.0000 
     67 CA         25.0630   16.8062    8.3165 C.3       5 GLC5        0.0000 
     68 CA         23.3350   16.9780    8.9860 C.3      10 GLP5        0.0000 
@<TRIPOS>BOND
@<TRIPOS>SUBSTRUCTURE
     1 ALC1        1 GROUP        1 X    ALC  0     ROOT ALC X 1
     2 SEC2        9 GROUP        1 X    SEC  0     **** SEC X 2
     3 LYC4       40 GROUP        1 X    LYC  0     **** LYC X 4
     4 ZIC7       34 GROUP        1 X    ZIC  0     **** ZIC X 5
     5 GLC5        4 GROUP        1 X    GLC  0     **** GLC X 6
     6 ALP1        3 GROUP        1 Y    ALP  0     ROOT ALP Y 8
     7 SEP2       11 GROUP        1 Y    SEP  0     **** SEP Y 9
     8 LYP4       42 GROUP        1 Y    LYP  0     **** LYP Y 11
     9 ZIP7       36 GROUP        1 Y    ZIP  0     **** ZIP Y 12
    10 GLP5        6 GROUP        1 Y    GLP  0     **** GLP Y 13
    11 ALL1        2 GROUP        1 Z    ALL  0     ROOT ALL Z 15
    12 SEL2       10 GROUP        1 Z    SEL  0     **** SEL Z 16
    13 LYL4       41 GROUP        1 Z    LYL  0     **** LYL Z 18
    14 ZIL7       35 GROUP        1 Z    ZIL  0     **** ZIL Z 19
    15 GLL5        5 GROUP        1 Z    GLL  0     **** GLL Z 20
@<TRIPOS>SET

