#    Name: 2we3_DUT_1_ligand
#    Modification time : Tue Mar 25 04:08:04 2014

@<TRIPOS>MOLECULE
2we3_DUT_1_ligand
   39    40     1     0     0
SMALL
NO_CHARGES


@<TRIPOS>ATOM
      1 N1         26.0370   16.9220    4.4070 N.am      1 DUT1257     0.0000 
      2 C2         25.2210   17.1540    3.2730 C.2       1 DUT1257     0.0000 
      3 N3         25.7370   17.0960    2.0120 N.am      1 DUT1257     0.0000 
      4 C4         27.0360   16.7770    1.8290 C.2       1 DUT1257     0.0000 
      5 C5         27.8720   16.5580    2.9280 C.2       1 DUT1257     0.0000 
      6 C6         27.3330   16.6370    4.1980 C.2       1 DUT1257     0.0000 
      7 O2         24.0290   17.4260    3.4090 O.2       1 DUT1257     0.0000 
      8 O4         27.5600   16.7420    0.5890 O.2       1 DUT1257     0.0000 
      9 C1'        25.5140   16.9950    5.7970 C.3       1 DUT1257     0.0000 
     10 C2'        25.6350   15.6700    6.5560 C.3       1 DUT1257     0.0000 
     11 C3'        26.8000   15.8790    7.5280 C.3       1 DUT1257     0.0000 
     12 C4'        26.7820   17.3900    7.7660 C.3       1 DUT1257     0.0000 
     13 O4'        26.2470   17.9720    6.5700 O.3       1 DUT1257     0.0000 
     14 O3'        26.6440   15.1020    8.7370 O.3       1 DUT1257     0.0000 
     15 C5'        28.1600   18.0070    8.0590 C.3       1 DUT1257     0.0000 
     16 O5'        28.9830   17.7640    6.9160 O.3       1 DUT1257     0.0000 
     17 PA         30.5570   17.9530    7.0140 P.3       1 DUT1257     0.0000 
     18 O1A        31.1600   17.6740    5.6660 O.co2     1 DUT1257     0.0000 
     19 O2A        30.9860   17.2130    8.2280 O.co2     1 DUT1257     0.0000 
     20 O3A        30.5610   19.5620    7.3290 O.3       1 DUT1257     0.0000 
     21 PB         31.7000   20.4010    8.1790 P.3       1 DUT1257     0.0000 
     22 O1B        32.1940   21.5020    7.3180 O.co2     1 DUT1257     0.0000 
     23 O2B        32.7010   19.4460    8.7320 O.co2     1 DUT1257     0.0000 
     24 O3B        30.7670   21.0110    9.3380 O.3       1 DUT1257     0.0000 
     25 PG         30.5960   20.3410   10.7980 P.3       1 DUT1257     0.0000 
     26 O1G        31.7480   20.9270   11.5690 O.co2     1 DUT1257     0.0000 
     27 O2G        30.6300   18.8160   10.6540 O.co2     1 DUT1257     0.0000 
     28 O3G        29.2500   20.7470   11.3050 O.co2     1 DUT1257     0.0000 
     29 H          25.1256   17.2983    1.1963 H         1 DUT1257     0.0000 
     30 H          28.8589   16.3447    2.7874 H         1 DUT1257     0.0000 
     31 H          27.9717   16.4658    5.0165 H         1 DUT1257     0.0000 
     32 H          24.4620   17.2640    5.7828 H         1 DUT1257     0.0000 
     33 H          25.8713   14.8873    5.8758 H         1 DUT1257     0.0000 
     34 H          24.7409   15.4864    7.1018 H         1 DUT1257     0.0000 
     35 H          27.7032   15.6462    6.9933 H         1 DUT1257     0.0000 
     36 H          26.1236   17.5936    8.5986 H         1 DUT1257     0.0000 
     37 H          28.5510   17.5339    8.9532 H         1 DUT1257     0.0000 
     38 H          28.0160   19.0663    8.2422 H         1 DUT1257     0.0000 
     39 H          27.3789   15.4118    9.3402 H         1 DUT1257     0.0000 
@<TRIPOS>BOND
     1    2    1 1    
     2    6    1 1    
     3    9    1 1    
     4    3    2 1    
     5    7    2 2    
     6    4    3 1    
     7   29    3 1    
     8    5    4 1    
     9    8    4 2    
    10    6    5 2    
    11   30    5 1    
    12   31    6 1    
    13   10    9 1    
    14   13    9 1    
    15   32    9 1    
    16   11   10 1    
    17   33   10 1    
    18   34   10 1    
    19   12   11 1    
    20   14   11 1    
    21   35   11 1    
    22   13   12 1    
    23   15   12 1    
    24   36   12 1    
    25   39   14 1    
    26   16   15 1    
    27   37   15 1    
    28   38   15 1    
    29   17   16 1    
    30   18   17 ar   
    31   19   17 ar   
    32   20   17 1    
    33   21   20 1    
    34   22   21 ar   
    35   23   21 ar   
    36   24   21 1    
    37   25   24 1    
    38   26   25 ar   
    39   27   25 ar   
    40   28   25 ar   
@<TRIPOS>SUBSTRUCTURE
     1 DUT1257     1 GROUP   
@<TRIPOS>SET

