#    Name: 1l0l_FMX_1_INTS_M
#    Modification time : Tue Mar 25 10:52:28 2014

@<TRIPOS>MOLECULE
1l0l_FMX_1_INTS_M
   70     0     6     0     0
SMALL
NO_CHARGES


@<TRIPOS>ATOM
      1 N          65.5925   57.0350  167.6690 N.am      1 SEC2        0.0000 
      2 N          66.8280   57.3500  167.4920 N.am      5 SEL2        0.0000 
      3 N          64.3570   56.7200  167.8460 N.am      3 SEP2        0.0000 
      4 CA         68.1245   60.2720  168.7610 C.3       2 GLC5        0.0000 
      5 CA         68.4320   59.1170  167.0120 C.3       6 GLL5        0.0000 
      6 CA         67.8170   61.4270  170.5100 C.3       4 GLP5        0.0000 
      7 CA         66.2500   59.0115  166.8850 C.3       2 GLC5        0.0000 
      8 CA         64.0680   58.9060  166.7580 C.3       4 GLP5        0.0000 
      9 CA         67.4950   61.3230  168.2085 C.3       2 GLC5        0.0000 
     10 CA         67.4900   60.2200  166.8270 C.3       6 GLL5        0.0000 
     11 CA         67.5000   62.4260  169.5900 C.3       4 GLP5        0.0000 
     12 CA         65.7420   60.2085  167.1860 C.3       2 GLC5        0.0000 
     13 CA         63.9940   60.1970  167.5450 C.3       4 GLP5        0.0000 
     14 CA         66.2550   60.4875  165.2330 C.3       2 GLC5        0.0000 
     15 CA         65.0200   60.7550  163.6390 C.3       4 GLP5        0.0000 
     16 CA         67.9715   55.6490  162.4795 C.3       2 GLC5        0.0000 
     17 CA         69.0310   56.4600  160.9150 C.3       6 GLL5        0.0000 
     18 CA         66.9120   54.8380  164.0440 C.3       4 GLP5        0.0000 
     19 CA         67.3255   54.8115  161.5545 C.3       2 GLC5        0.0000 
     20 CA         68.6200   55.3560  160.1440 C.3       6 GLL5        0.0000 
     21 CA         66.0310   54.2670  162.9650 C.3       4 GLP5        0.0000 
     22 CA         69.7085   53.5365  158.1680 C.3       2 GLC5        0.0000 
     23 CA         69.5420   54.3930  159.7520 C.3       6 GLL5        0.0000 
     24 CA         69.8750   52.6800  156.5840 C.3       4 GLP5        0.0000 
     25 CA         71.1375   53.4370  158.4165 C.3       2 GLC5        0.0000 
     26 CA         70.8860   54.5240  160.1330 C.3       6 GLL5        0.0000 
     27 CA         71.3890   52.3500  156.7000 C.3       4 GLP5        0.0000 
     28 CA         70.1268   56.1510  171.0378 C.3       2 GLC5        0.0000 
     29 CA         68.6350   55.7340  170.1150 C.3       6 GLL5        0.0000 
     30 CA         71.0750   56.7800  172.3260 C.3       4 GLP5        0.0000 
     31 CA         66.7502   55.0293  169.7747 C.3       2 GLC5        0.0000 
     32 CA         65.1890   54.7630  169.0030 C.3       4 GLP5        0.0000 
     33 CA         71.0343   55.4810  168.2602 C.3       2 GLC5        0.0000 
     34 CA         69.7220   55.3100  169.3840 C.3       6 GLL5        0.0000 
     35 CA         72.1190   56.3060  167.0820 C.3       4 GLP5        0.0000 
     36 CA         70.4648   55.1715  171.1230 C.3       2 GLC5        0.0000 
     37 CA         70.1770   54.0020  169.4930 C.3       6 GLL5        0.0000 
     38 CA         71.5373   53.1830  170.7355 C.3       2 GLC5        0.0000 
     39 CA         73.2200   52.8030  171.5510 C.3       4 GLP5        0.0000 
     40 CA         69.0310   52.5590  172.4495 C.3       2 GLC5        0.0000 
     41 CA         69.5320   53.1240  170.3470 C.3       6 GLL5        0.0000 
     42 CA         69.0770   51.7810  174.1800 C.3       4 GLP5        0.0000 
     43 CA         67.4754   55.1264  172.4144 C.3       2 GLC5        0.0000 
     44 CA         68.4380   53.5500  171.0910 C.3       6 GLL5        0.0000 
     45 CA         66.5760   55.8300  174.0100 C.3       4 GLP5        0.0000 
     46 CA         69.6440   55.4917  171.6803 C.3       2 GLC5        0.0000 
     47 CA         67.9880   54.8570  170.9780 C.3       6 GLL5        0.0000 
     48 CA         67.6176   53.1032  169.5172 C.3       2 GLC5        0.0000 
     49 CA         66.0890   52.6500  168.5290 C.3       4 GLP5        0.0000 
     50 CA         70.4897   60.4850  165.3300 C.3       2 GLC5        0.0000 
     51 CA         69.0480   58.6120  165.7110 C.3       6 GLL5        0.0000 
     52 CA         71.8140   61.8770  165.4370 C.3       4 GLP5        0.0000 
     53 CA         68.3010   55.9818  164.4528 C.3       2 GLC5        0.0000 
     54 CA         69.4000   57.2900  165.4710 C.3       6 GLL5        0.0000 
     55 CA         70.8605   56.8810  166.0018 C.3       2 GLC5        0.0000 
     56 CA         69.9800   56.9610  164.2520 C.3       6 GLL5        0.0000 
     57 CA         71.4758   59.7665  164.2010 C.3       2 GLC5        0.0000 
     58 CA         70.2170   57.9560  163.2700 C.3       6 GLL5        0.0000 
     59 CA         72.9120   60.9260  165.0060 C.3       4 GLP5        0.0000 
     60 CA         69.1462   61.3700  163.3213 C.3       2 GLC5        0.0000 
     61 CA         69.8620   59.2580  163.5220 C.3       6 GLL5        0.0000 
     62 CA         68.7200   63.3240  162.5140 C.3       4 GLP5        0.0000 
     63 CA         69.9737   57.6570  159.6945 C.3       2 GLC5        0.0000 
     64 CA         70.3640   56.5820  161.2890 C.3       6 GLL5        0.0000 
     65 CA         70.2500   58.7930  158.2870 C.3       4 GLP5        0.0000 
     66 CA         69.8395   56.0333  158.7515 C.3       2 GLC5        0.0000 
     67 CA         70.5980   57.1920  157.5550 C.3       4 GLP5        0.0000 
     68 CA         69.4400   52.6733  160.3208 C.3       2 GLC5        0.0000 
     69 CA         68.6660   50.8880  160.6990 C.3       4 GLP5        0.0000 
     70 CA         70.8440   56.1310  159.0358 C.3       2 GLC5        0.0000 
@<TRIPOS>BOND
@<TRIPOS>SUBSTRUCTURE
     1 SEC2        1 GROUP        1 X    SEC  0     ROOT SEC X 2
     2 GLC5        4 GROUP        1 X    GLC  0     **** GLC X 6
     3 SEP2        3 GROUP        1 Y    SEP  0     ROOT SEP Y 9
     4 GLP5        6 GROUP        1 Y    GLP  0     **** GLP Y 13
     5 SEL2        2 GROUP        1 Z    SEL  0     ROOT SEL Z 16
     6 GLL5        5 GROUP        1 Z    GLL  0     **** GLL Z 20
@<TRIPOS>SET

