#    Name: 1l0l_FMX_1_ligand
#    Modification time : Tue Mar 25 10:52:29 2014

@<TRIPOS>MOLECULE
1l0l_FMX_1_ligand
   46    49     1     0     0
SMALL
NO_CHARGES


@<TRIPOS>ATOM
      1 O6         66.8280   57.3500  167.4920 O.2       1 FMX611      0.0000 
      2 C6         67.7910   58.0010  167.7910 C.2       1 FMX611      0.0000 
      3 N2         68.4920   57.9400  168.9820 N.am      1 FMX611      0.0000 
      4 N1         68.1790   57.0650  170.0280 N.pl3     1 FMX611      0.0000 
      5 C21        68.6350   55.7340  170.1150 C.ar      1 FMX611      0.0000 
      6 C22        69.7220   55.3100  169.3840 C.ar      1 FMX611      0.0000 
      7 C23        70.1770   54.0020  169.4930 C.ar      1 FMX611      0.0000 
      8 C24        69.5320   53.1240  170.3470 C.ar      1 FMX611      0.0000 
      9 C25        68.4380   53.5500  171.0910 C.ar      1 FMX611      0.0000 
     10 C26        67.9880   54.8570  170.9780 C.ar      1 FMX611      0.0000 
     11 C3         69.4750   58.8990  169.0570 C.2       1 FMX611      0.0000 
     12 O4         69.5000   59.5740  167.9110 O.3       1 FMX611      0.0000 
     13 O3         70.1680   59.1490  170.0010 O.2       1 FMX611      0.0000 
     14 C5         68.4320   59.1170  167.0120 C.3       1 FMX611      0.0000 
     15 C7         67.4900   60.2200  166.8270 C.3       1 FMX611      0.0000 
     16 C8         69.0480   58.6120  165.7110 C.ar      1 FMX611      0.0000 
     17 C9         69.4000   57.2900  165.4710 C.ar      1 FMX611      0.0000 
     18 C10        69.9800   56.9610  164.2520 C.ar      1 FMX611      0.0000 
     19 C11        70.2170   57.9560  163.2700 C.ar      1 FMX611      0.0000 
     20 C12        69.8620   59.2580  163.5220 C.ar      1 FMX611      0.0000 
     21 C13        69.2830   59.5740  164.7350 C.ar      1 FMX611      0.0000 
     22 O14        70.7910   57.6630  162.0490 O.3       1 FMX611      0.0000 
     23 C15        70.3640   56.5820  161.2890 C.ar      1 FMX611      0.0000 
     24 C16        69.0310   56.4600  160.9150 C.ar      1 FMX611      0.0000 
     25 C17        68.6200   55.3560  160.1440 C.ar      1 FMX611      0.0000 
     26 C18        69.5420   54.3930  159.7520 C.ar      1 FMX611      0.0000 
     27 C19        70.8860   54.5240  160.1330 C.ar      1 FMX611      0.0000 
     28 C20        71.2940   55.6160  160.9000 C.ar      1 FMX611      0.0000 
     29 H          67.5610   57.4210  170.8051 H         1 FMX611      0.0000 
     30 H          70.2067   55.9655  168.7480 H         1 FMX611      0.0000 
     31 H          70.9859   53.6909  168.9433 H         1 FMX611      0.0000 
     32 H          69.8619   52.1514  170.4332 H         1 FMX611      0.0000 
     33 H          67.9624   52.8941  171.7258 H         1 FMX611      0.0000 
     34 H          67.1823   55.1762  171.5276 H         1 FMX611      0.0000 
     35 H          69.2355   56.5722  166.1779 H         1 FMX611      0.0000 
     36 H          70.2450   55.9877  164.0476 H         1 FMX611      0.0000 
     37 H          70.0234   59.9898  162.8200 H         1 FMX611      0.0000 
     38 H          69.0123   60.5631  164.9290 H         1 FMX611      0.0000 
     39 H          68.3444   57.1659  161.1950 H         1 FMX611      0.0000 
     40 H          67.6323   55.2693  159.8741 H         1 FMX611      0.0000 
     41 H          69.2484   53.5904  159.1885 H         1 FMX611      0.0000 
     42 H          71.5682   53.8130  159.8451 H         1 FMX611      0.0000 
     43 H          72.2776   55.7094  161.1783 H         1 FMX611      0.0000 
     44 H          67.8965   60.9726  166.3090 H         1 FMX611      0.0000 
     45 H          66.6719   59.9304  166.3301 H         1 FMX611      0.0000 
     46 H          67.1838   60.5974  167.7009 H         1 FMX611      0.0000 
@<TRIPOS>BOND
     1    2    1 2    
     2    3    2 am   
     3   14    2 1    
     4    4    3 1    
     5   11    3 am   
     6    5    4 1    
     7   29    4 1    
     8    6    5 ar   
     9   10    5 ar   
    10    7    6 ar   
    11   30    6 1    
    12    8    7 ar   
    13   31    7 1    
    14    9    8 ar   
    15   32    8 1    
    16   10    9 ar   
    17   33    9 1    
    18   34   10 1    
    19   12   11 1    
    20   13   11 2    
    21   14   12 1    
    22   15   14 1    
    23   16   14 1    
    24   44   15 1    
    25   45   15 1    
    26   46   15 1    
    27   17   16 ar   
    28   21   16 ar   
    29   18   17 ar   
    30   35   17 1    
    31   19   18 ar   
    32   36   18 1    
    33   20   19 ar   
    34   22   19 1    
    35   21   20 ar   
    36   37   20 1    
    37   38   21 1    
    38   23   22 1    
    39   24   23 ar   
    40   28   23 ar   
    41   25   24 ar   
    42   39   24 1    
    43   26   25 ar   
    44   40   25 1    
    45   27   26 ar   
    46   41   26 1    
    47   28   27 ar   
    48   42   27 1    
    49   43   28 1    
@<TRIPOS>SUBSTRUCTURE
     1 FMX611      1 GROUP   
@<TRIPOS>SET

