#    Name: 3ue6_FMN_2_INTS_M
#    Modification time : Mon Mar 24 22:14:08 2014

@<TRIPOS>MOLECULE
3ue6_FMN_2_INTS_M
   74     0    12     0     0
SMALL
NO_CHARGES


@<TRIPOS>ATOM
      1 N          -9.8675   -7.9965    0.9070 N.am      2 SEC2        0.0000 
      2 N          -8.3690   -8.4950    1.1900 N.am     10 SEL2        0.0000 
      3 N         -11.3660   -7.4980    0.6240 N.am      6 SEP2        0.0000 
      4 N         -10.1225   -7.4725   -0.0560 N.am      2 SEC2        0.0000 
      5 N          -8.8790   -7.4470   -0.7360 N.am     10 SEL2        0.0000 
      6 N          -8.4955   -6.6135   -2.0505 N.am      2 SEC2        0.0000 
      7 N          -8.1120   -5.7800   -3.3650 N.am      6 SEP2        0.0000 
      8 O          -6.3395   -6.8390   -1.4870 O.2       1 ALC1        0.0000 
      9 O          -6.6950   -7.4090   -0.1170 O.2       9 ALL1        0.0000 
     10 O          -5.9840   -6.2690   -2.8570 O.2       5 ALP1        0.0000 
     11 N          -3.2110   -7.9100    1.3995 N.am      2 SEC2        0.0000 
     12 N          -4.5570   -7.4570    0.6280 N.am     10 SEL2        0.0000 
     13 N          -1.8650   -8.3630    2.1710 N.am      6 SEP2        0.0000 
     14 N          -3.5060   -8.6240    2.5155 N.am      2 SEC2        0.0000 
     15 N          -5.1470   -8.8850    2.8600 N.am     10 SEL2        0.0000 
     16 CA         -4.0250  -12.5930    8.2480 C.3       4 GLC5        0.0000 
     17 CA         -3.8950  -11.1200    7.0080 C.3      12 GLL5        0.0000 
     18 CA         -4.1550  -14.0660    9.4880 C.3       8 GLP5        0.0000 
     19 CA         -5.4110  -12.9690    8.4500 C.3       4 GLC5        0.0000 
     20 CA         -6.6670  -11.8720    7.4120 C.3      12 GLL5        0.0000 
     21 CA         -9.7115  -11.6515    2.8620 C.3       4 GLC5        0.0000 
     22 CA         -9.2490   -9.9620    3.3730 C.3      12 GLL5        0.0000 
     23 CA        -10.1740  -13.3410    2.3510 C.3       8 GLP5        0.0000 
     24 CA         -8.4345   -7.6745    4.5780 C.3       4 GLC5        0.0000 
     25 CA        -10.0640   -9.0400    4.2710 C.3      12 GLL5        0.0000 
     26 CA         -6.8050   -6.3090    4.8850 C.3       8 GLP5        0.0000 
     27 CA        -10.5425   -6.9870    3.8300 C.3       4 GLC5        0.0000 
     28 CA        -11.0210   -4.9340    3.3890 C.3       8 GLP5        0.0000 
     29 O         -10.1880   -7.6500    6.0115 O.2       1 ALC1        0.0000 
     30 O          -9.3160   -8.6260    5.3830 O.2       9 ALL1        0.0000 
     31 O         -11.0600   -6.6740    6.6400 O.2       5 ALP1        0.0000 
     32 N         -11.9930   -8.1760    1.7960 N.am      2 SEC2        0.0000 
     33 N         -12.6200   -8.8540    2.9680 N.am     10 SEL2        0.0000 
     34 CA        -14.2495  -12.5745    3.8880 C.3       4 GLC5        0.0000 
     35 CA        -13.3670  -10.9660    3.8120 C.3      12 GLL5        0.0000 
     36 CA        -15.1320  -14.1830    3.9640 C.3       8 GLP5        0.0000 
     37 N         -14.7615   -7.2210    4.8715 N.am      2 SEC2        0.0000 
     38 N         -15.0660   -8.4560    3.8700 N.am     10 SEL2        0.0000 
     39 N         -14.4570   -5.9860    5.8730 N.am      6 SEP2        0.0000 
     40 NZ        -15.1285   -8.2240    6.9190 N.4       3 LYC4        0.0000 
     41 NZ        -15.8360   -9.0710    6.1340 N.4      11 LYL4        0.0000 
     42 NZ        -14.3920   -6.1570    7.1870 N.4       7 LYP4        0.0000 
     43 N         -15.1285   -8.2240    6.9190 N.am      2 SEC2        0.0000 
     44 N         -15.8360   -9.0710    6.1340 N.am     10 SEL2        0.0000 
     45 N         -14.4210   -7.3770    7.7040 N.am      6 SEP2        0.0000 
     46 NZ        -17.1465  -11.3345    3.4000 N.4       3 LYC4        0.0000 
     47 NZ        -16.4820  -10.4430    4.2050 N.4      11 LYL4        0.0000 
     48 NZ        -18.3350  -13.4280    2.8060 N.4       7 LYP4        0.0000 
     49 N         -17.1465  -11.3345    3.4000 N.am      2 SEC2        0.0000 
     50 N         -16.4820  -10.4430    4.2050 N.am     10 SEL2        0.0000 
     51 N         -17.8110  -12.2260    2.5950 N.am      6 SEP2        0.0000 
     52 CA         -4.4555   -9.8987    8.0757 C.3       4 GLC5        0.0000 
     53 CA         -4.9430  -10.7210    6.0110 C.3      12 GLL5        0.0000 
     54 CA         -4.4920   -8.8770    9.6420 C.3       8 GLP5        0.0000 
     55 CA         -5.2071   -8.4214    5.6106 C.3       4 GLC5        0.0000 
     56 CA         -5.4170   -6.5820    6.0010 C.3       8 GLP5        0.0000 
     57 CA         -2.9864   -9.3851    6.1215 C.3       4 GLC5        0.0000 
     58 CA         -4.5740   -9.9880    4.8930 C.3      12 GLL5        0.0000 
     59 CA         -1.6460   -8.0330    6.0130 C.3       8 GLP5        0.0000 
     60 CA         -4.7629  -12.4416    5.3010 C.3       4 GLC5        0.0000 
     61 CA         -5.1990  -14.1460    4.3720 C.3       8 GLP5        0.0000 
     62 CA         -2.7719  -11.3551    5.2545 C.3       4 GLC5        0.0000 
     63 CA         -1.2170  -11.9730    4.2790 C.3       8 GLP5        0.0000 
     64 CA         -5.4807  -10.1765    8.2242 C.3       4 GLC5        0.0000 
     65 CA         -6.2720  -11.0800    6.2010 C.3      12 GLL5        0.0000 
     66 CA         -6.9250   -8.3227    4.7973 C.3       4 GLC5        0.0000 
     67 CA         -7.2310  -10.7040    5.2700 C.3      12 GLL5        0.0000 
     68 CA         -8.1811  -12.4310    5.9746 C.3       4 GLC5        0.0000 
     69 CA         -9.5120  -13.7720    5.9110 C.3       8 GLP5        0.0000 
     70 CA         -6.0246  -12.6180    5.2051 C.3       4 GLC5        0.0000 
     71 CA        -13.9217  -10.3313    1.9957 C.3       4 GLC5        0.0000 
     72 CA        -12.1700  -10.0790    3.4950 C.3      12 GLL5        0.0000 
     73 CA        -15.0750  -10.1400    0.3380 C.3       8 GLP5        0.0000 
     74 CA        -11.3640  -11.8957    3.1550 C.3       4 GLC5        0.0000 
@<TRIPOS>BOND
@<TRIPOS>SUBSTRUCTURE
     1 ALC1        8 GROUP        1 X    ALC  0     ROOT ALC X 1
     2 SEC2        1 GROUP        1 X    SEC  0     **** SEC X 2
     3 LYC4       40 GROUP        1 X    LYC  0     **** LYC X 4
     4 GLC5       16 GROUP        1 X    GLC  0     **** GLC X 6
     5 ALP1       10 GROUP        1 Y    ALP  0     ROOT ALP Y 8
     6 SEP2        3 GROUP        1 Y    SEP  0     **** SEP Y 9
     7 LYP4       42 GROUP        1 Y    LYP  0     **** LYP Y 11
     8 GLP5       18 GROUP        1 Y    GLP  0     **** GLP Y 13
     9 ALL1        9 GROUP        1 Z    ALL  0     ROOT ALL Z 15
    10 SEL2        2 GROUP        1 Z    SEL  0     **** SEL Z 16
    11 LYL4       41 GROUP        1 Z    LYL  0     **** LYL Z 18
    12 GLL5       17 GROUP        1 Z    GLL  0     **** GLL Z 20
@<TRIPOS>SET

