#    Name: 3ue6_FMN_2_ligand
#    Modification time : Mon Mar 24 22:14:08 2014

@<TRIPOS>MOLECULE
3ue6_FMN_2_ligand
   50    52     1     0     0
SMALL
NO_CHARGES


@<TRIPOS>ATOM
      1 N1         -8.3690   -8.4950    1.1900 N.2       1 FMN401      0.0000 
      2 C2         -8.0120   -7.7700    0.0770 C.2       1 FMN401      0.0000 
      3 O2         -8.8790   -7.4470   -0.7360 O.2       1 FMN401      0.0000 
      4 N3         -6.6950   -7.4090   -0.1170 N.am      1 FMN401      0.0000 
      5 C4         -5.7310   -7.7750    0.7990 C.2       1 FMN401      0.0000 
      6 O4         -4.5570   -7.4570    0.6280 O.2       1 FMN401      0.0000 
      7 C4A        -6.0940   -8.5070    1.9240 C.2       1 FMN401      0.0000 
      8 N5         -5.1470   -8.8850    2.8600 N.2       1 FMN401      0.0000 
      9 C5A        -5.5290   -9.6130    3.9660 C.ar      1 FMN401      0.0000 
     10 C6         -4.5740   -9.9880    4.8930 C.ar      1 FMN401      0.0000 
     11 C7         -4.9430  -10.7210    6.0110 C.ar      1 FMN401      0.0000 
     12 C7M        -3.8950  -11.1200    7.0080 C.3       1 FMN401      0.0000 
     13 C8         -6.2720  -11.0800    6.2010 C.ar      1 FMN401      0.0000 
     14 C8M        -6.6670  -11.8720    7.4120 C.3       1 FMN401      0.0000 
     15 C9         -7.2310  -10.7040    5.2700 C.ar      1 FMN401      0.0000 
     16 C9A        -6.8590   -9.9690    4.1490 C.ar      1 FMN401      0.0000 
     17 N10        -7.8050   -9.5820    3.2200 N.pl3     1 FMN401      0.0000 
     18 C10        -7.4210   -8.8660    2.1100 C.2       1 FMN401      0.0000 
     19 C1'        -9.2490   -9.9620    3.3730 C.3       1 FMN401      0.0000 
     20 C2'       -10.0640   -9.0400    4.2710 C.3       1 FMN401      0.0000 
     21 O2'        -9.3160   -8.6260    5.3830 O.3       1 FMN401      0.0000 
     22 C3'       -11.3120   -9.7910    4.7170 C.3       1 FMN401      0.0000 
     23 O3'       -10.9570  -11.0050    5.3380 O.3       1 FMN401      0.0000 
     24 C4'       -12.1700  -10.0790    3.4950 C.3       1 FMN401      0.0000 
     25 O4'       -12.6200   -8.8540    2.9680 O.3       1 FMN401      0.0000 
     26 C5'       -13.3670  -10.9660    3.8120 C.3       1 FMN401      0.0000 
     27 O5'       -14.0380  -10.4830    4.9540 O.3       1 FMN401      0.0000 
     28 P         -15.3790   -9.6030    4.7970 P.3       1 FMN401      0.0000 
     29 O1P       -15.0660   -8.4560    3.8700 O.co2     1 FMN401      0.0000 
     30 O2P       -15.8360   -9.0710    6.1340 O.co2     1 FMN401      0.0000 
     31 O3P       -16.4820  -10.4430    4.2050 O.co2     1 FMN401      0.0000 
     32 H          -6.4292   -6.8615   -0.9530 H         1 FMN401      0.0000 
     33 H          -3.5879   -9.7238    4.7549 H         1 FMN401      0.0000 
     34 H          -8.2149  -10.9678    5.4078 H         1 FMN401      0.0000 
     35 H          -9.3169  -10.9945    3.7750 H         1 FMN401      0.0000 
     36 H          -9.7291   -9.9929    2.3726 H         1 FMN401      0.0000 
     37 H         -10.3913   -8.2003    3.6650 H         1 FMN401      0.0000 
     38 H         -11.8733   -9.1484    5.3739 H         1 FMN401      0.0000 
     39 H         -11.5483  -10.6008    2.7676 H         1 FMN401      0.0000 
     40 H         -12.9920  -11.9905    3.9546 H         1 FMN401      0.0000 
     41 H         -14.0163  -10.9765    2.9238 H         1 FMN401      0.0000 
     42 H          -3.1876  -11.6929    6.5941 H         1 FMN401      0.0000 
     43 H          -3.4347  -10.3242    7.4015 H         1 FMN401      0.0000 
     44 H          -4.2846  -11.6392    7.7687 H         1 FMN401      0.0000 
     45 H          -6.1947  -12.7526    7.4502 H         1 FMN401      0.0000 
     46 H          -6.4516  -11.3869    8.2595 H         1 FMN401      0.0000 
     47 H          -7.6481  -12.0648    7.4259 H         1 FMN401      0.0000 
     48 H          -9.9952   -8.3801    6.0746 H         1 FMN401      0.0000 
     49 H         -10.8530  -10.7793    6.3066 H         1 FMN401      0.0000 
     50 H         -13.5501   -8.7472    3.3195 H         1 FMN401      0.0000 
@<TRIPOS>BOND
     1    2    1 1    
     2   18    1 2    
     3    3    2 2    
     4    4    2 am   
     5    5    4 am   
     6   32    4 1    
     7    6    5 2    
     8    7    5 1    
     9    8    7 2    
    10   18    7 1    
    11    9    8 1    
    12   10    9 ar   
    13   16    9 ar   
    14   11   10 ar   
    15   33   10 1    
    16   12   11 1    
    17   13   11 ar   
    18   42   12 1    
    19   43   12 1    
    20   44   12 1    
    21   14   13 1    
    22   15   13 ar   
    23   45   14 1    
    24   46   14 1    
    25   47   14 1    
    26   16   15 ar   
    27   34   15 1    
    28   17   16 1    
    29   18   17 1    
    30   19   17 1    
    31   20   19 1    
    32   35   19 1    
    33   36   19 1    
    34   21   20 1    
    35   22   20 1    
    36   37   20 1    
    37   48   21 1    
    38   23   22 1    
    39   24   22 1    
    40   38   22 1    
    41   49   23 1    
    42   25   24 1    
    43   26   24 1    
    44   39   24 1    
    45   50   25 1    
    46   27   26 1    
    47   40   26 1    
    48   41   26 1    
    49   28   27 1    
    50   29   28 ar   
    51   30   28 ar   
    52   31   28 ar   
@<TRIPOS>SUBSTRUCTURE
     1 FMN401      1 GROUP   
@<TRIPOS>SET

