#    Name: 1NL4_1_CAVITY_N1_6.mol2
#    Modification time : Mon Mar 10 19:50:35 2014

@<TRIPOS>MOLECULE
1NL4_1_CAVITY_N1_6.mol2
  119     0     5     0     0
SMALL
NO_CHARGES


@<TRIPOS>ATOM
      1 O          55.5331   53.4028    3.5822 O.2       2 ALA2        0.0000 
      2 CA         55.8582   52.5178    4.7488 C.3       4 GLY6        0.0000 
      3 CA         56.1833   51.6328    5.9155 C.3       4 GLY6        0.0000 
      4 O          54.4000   52.4937    3.2083 O.2       2 ALA2        0.0000 
      5 DU         54.7252   51.6087    4.3750 H         5 CUB7        0.0000 
      6 O          55.0503   50.7237    5.5416 O.2       2 ALA2        0.0000 
      7 CZ         52.7842   48.9055    4.7939 C.ar      3 PHE5        0.0000 
      8 CZ         51.3261   48.8814    3.2534 C.ar      3 PHE5        0.0000 
      9 DU         50.1930   47.9723    2.8796 H         5 CUB7        0.0000 
     10 CZ         56.4607   52.6026    2.7167 C.ar      3 PHE5        0.0000 
     11 CA         56.7858   51.7176    3.8833 C.3       4 GLY6        0.0000 
     12 O          57.1110   50.8326    5.0499 O.2       2 ALA2        0.0000 
     13 CZ         55.0025   52.5785    1.1762 C.ar      3 PHE5        0.0000 
     14 CZ         55.3277   51.6935    2.3428 C.ar      3 PHE5        0.0000 
     15 O          55.6528   50.8085    3.5094 O.2       2 ALA2        0.0000 
     16 DU         53.8695   51.6694    0.8023 H         5 CUB7        0.0000 
     17 DU         54.5198   49.8994    3.1356 H         5 CUB7        0.0000 
     18 O          54.8449   49.0144    4.3022 O.2       2 ALA2        0.0000 
     19 DU         53.3867   48.9903    2.7617 H         5 CUB7        0.0000 
     20 CZ         53.7119   48.1053    3.9284 C.ar      3 PHE5        0.0000 
     21 CZ         52.2537   48.0812    2.3879 C.ar      3 PHE5        0.0000 
     22 CZ         58.8465   51.8265    3.3916 C.ar      3 PHE5        0.0000 
     23 CA         59.1717   50.9415    4.5582 C.3       4 GLY6        0.0000 
     24 CZ         57.7135   50.9174    3.0177 C.ar      3 PHE5        0.0000 
     25 O          58.0386   50.0324    4.1844 O.2       2 ALA2        0.0000 
     26 CZ         55.6050   52.6633   -0.8560 C.ar      3 PHE5        0.0000 
     27 CZ         55.9302   51.7783    0.3106 C.ar      3 PHE5        0.0000 
     28 CZ         56.2553   50.8933    1.4772 C.ar      3 PHE5        0.0000 
     29 DU         56.5804   50.0083    2.6439 H         5 CUB7        0.0000 
     30 O          56.9056   49.1233    3.8105 O.2       2 ALA2        0.0000 
     31 CZ         54.7971   50.8692   -0.0633 C.ar      3 PHE5        0.0000 
     32 DU         55.1223   49.9842    1.1034 H         5 CUB7        0.0000 
     33 DU         55.4474   49.0992    2.2700 H         5 CUB7        0.0000 
     34 O          55.7725   48.2142    3.4367 O.2       2 ALA2        0.0000 
     35 CZ         53.3389   50.8451   -1.6038 C.ar      3 PHE5        0.0000 
     36 CZ         53.6641   49.9601   -0.4371 C.ar      3 PHE5        0.0000 
     37 DU         53.9892   49.0751    0.7295 H         5 CUB7        0.0000 
     38 DU         54.3144   48.1901    1.8962 H         5 CUB7        0.0000 
     39 OG         54.6395   47.3051    3.0628 O.2       1 SER1        0.0000 
     40 CZ         52.2059   49.9360   -1.9776 C.ar      3 PHE5        0.0000 
     41 CZ         52.5311   49.0510   -0.8110 C.ar      3 PHE5        0.0000 
     42 DU         52.8562   48.1660    0.3557 H         5 CUB7        0.0000 
     43 DU         53.1813   47.2810    1.5223 H         5 CUB7        0.0000 
     44 OG         53.5065   46.3960    2.6890 O.2       1 SER1        0.0000 
     45 DU         51.7232   47.2569   -0.0182 H         5 CUB7        0.0000 
     46 DU         52.0483   46.3719    1.1484 H         5 CUB7        0.0000 
     47 CZ         59.7741   51.0263    2.5261 C.ar      3 PHE5        0.0000 
     48 CA         60.0993   50.1413    3.6927 C.3       4 GLY6        0.0000 
     49 CZ         58.3160   51.0022    0.9856 C.ar      3 PHE5        0.0000 
     50 CZ         58.6411   50.1172    2.1522 C.ar      3 PHE5        0.0000 
     51 CA         58.9663   49.2322    3.3188 C.3       4 GLY6        0.0000 
     52 O          56.5327   51.8632   -1.7216 O.2       2 ALA2        0.0000 
     53 CZ         56.8578   50.9781   -0.5549 C.ar      3 PHE5        0.0000 
     54 CZ         57.1829   50.0931    0.6117 C.ar      3 PHE5        0.0000 
     55 DU         57.5081   49.2081    1.7783 H         5 CUB7        0.0000 
     56 CA         57.8332   48.3231    2.9450 C.3       4 GLY6        0.0000 
     57 CZ         55.7248   50.0691   -0.9288 C.ar      3 PHE5        0.0000 
     58 DU         56.0499   49.1840    0.2378 H         5 CUB7        0.0000 
     59 DU         56.3750   48.2990    1.4045 H         5 CUB7        0.0000 
     60 CA         56.7002   47.4140    2.5711 C.3       4 GLY6        0.0000 
     61 CZ         54.5917   49.1600   -1.3027 C.ar      3 PHE5        0.0000 
     62 OG         54.9169   48.2749   -0.1360 O.2       1 SER1        0.0000 
     63 DU         55.2420   47.3899    1.0306 H         5 CUB7        0.0000 
     64 OG         55.5671   46.5049    2.1973 O.2       1 SER1        0.0000 
     65 CZ         53.4587   48.2509   -1.6765 C.ar      3 PHE5        0.0000 
     66 OG         53.7838   47.3658   -0.5099 O.2       1 SER1        0.0000 
     67 DU         54.1090   46.4808    0.6568 H         5 CUB7        0.0000 
     68 OG         54.4341   45.5958    1.8234 O.2       1 SER1        0.0000 
     69 OG         52.6508   46.4568   -0.8837 O.2       1 SER1        0.0000 
     70 DU         52.9759   45.5717    0.2829 H         5 CUB7        0.0000 
     71 DU         53.3011   44.6867    1.4495 H         5 CUB7        0.0000 
     72 DU         51.8429   44.6626   -0.0910 H         5 CUB7        0.0000 
     73 CZ         60.3766   51.1111    0.4939 C.ar      3 PHE5        0.0000 
     74 CZ         60.7018   50.2261    1.6605 C.ar      3 PHE5        0.0000 
     75 CA         61.0269   49.3411    2.8271 C.3       4 GLY6        0.0000 
     76 CZ         58.9185   51.0871   -1.0466 C.ar      3 PHE5        0.0000 
     77 CZ         59.2436   50.2021    0.1200 C.ar      3 PHE5        0.0000 
     78 DU         59.5688   49.3170    1.2866 H         5 CUB7        0.0000 
     79 CA         59.8939   48.4320    2.4533 C.3       4 GLY6        0.0000 
     80 CZ         57.7854   50.1780   -1.4205 C.ar      3 PHE5        0.0000 
     81 CZ         58.1106   49.2930   -0.2539 C.ar      3 PHE5        0.0000 
     82 DU         58.4357   48.4079    0.9128 H         5 CUB7        0.0000 
     83 CA         58.7609   47.5229    2.0794 C.3       4 GLY6        0.0000 
     84 CZ         56.6524   49.2689   -1.7944 C.ar      3 PHE5        0.0000 
     85 CZ         56.9775   48.3839   -0.6277 C.ar      3 PHE5        0.0000 
     86 DU         57.3027   47.4989    0.5389 H         5 CUB7        0.0000 
     87 CA         57.6278   46.6138    1.7056 C.3       4 GLY6        0.0000 
     88 OG         55.8445   47.4748   -1.0016 O.2       1 SER1        0.0000 
     89 DU         56.1696   46.5898    0.1651 H         5 CUB7        0.0000 
     90 DU         56.4948   45.7047    1.3317 H         5 CUB7        0.0000 
     91 OG         56.8199   44.8197    2.4984 O.2       1 SER1        0.0000 
     92 OG         54.7115   46.5657   -1.3754 O.2       1 SER1        0.0000 
     93 DU         55.0366   45.6807   -0.2088 H         5 CUB7        0.0000 
     94 DU         55.3618   44.7956    0.9579 H         5 CUB7        0.0000 
     95 OG         55.6869   43.9106    2.1245 O.2       1 SER1        0.0000 
     96 OG         53.5784   45.6566   -1.7493 O.2       1 SER1        0.0000 
     97 OG         53.9036   44.7716   -0.5827 O.2       1 SER1        0.0000 
     98 N          54.2287   43.8866    0.5840 N.2       2 ALA2        0.0000 
     99 OG         52.1203   45.6325   -3.2898 O.2       1 SER1        0.0000 
    100 OG         52.4454   44.7475   -2.1232 O.2       1 SER1        0.0000 
    101 OG         52.7705   43.8625   -0.9565 O.2       1 SER1        0.0000 
    102 CZ         61.3043   50.3110   -0.3717 C.ar      3 PHE5        0.0000 
    103 CZ         61.6294   49.4260    0.7950 C.ar      3 PHE5        0.0000 
    104 CA         61.9546   48.5409    1.9616 C.3       4 GLY6        0.0000 
    105 CZ         60.4964   48.5169    0.4211 C.ar      3 PHE5        0.0000 
    106 CA         60.8215   47.6319    1.5877 C.3       4 GLY6        0.0000 
    107 CZ         59.3634   47.6078    0.0472 C.ar      3 PHE5        0.0000 
    108 CA         59.6885   46.7228    1.2139 C.3       4 GLY6        0.0000 
    109 CZ         58.2303   46.6987   -0.3266 C.ar      3 PHE5        0.0000 
    110 N          58.5555   45.8137    0.8400 N.2       2 ALA2        0.0000 
    111 N          58.8806   44.9287    2.0067 N.2       2 ALA2        0.0000 
    112 CA         57.0973   45.7896   -0.7005 C.3       4 GLY6        0.0000 
    113 CA         57.4224   44.9046    0.4662 C.3       4 GLY6        0.0000 
    114 CA         57.7476   44.0196    1.6328 C.3       4 GLY6        0.0000 
    115 OG         55.6391   45.7655   -2.2410 O.2       1 SER1        0.0000 
    116 CA         55.9642   44.8805   -1.0743 C.3       4 GLY6        0.0000 
    117 CA         56.2894   43.9955    0.0923 C.3       4 GLY6        0.0000 
    118 OG         54.5061   44.8564   -2.6148 O.2       1 SER1        0.0000 
    119 OG         54.8312   43.9714   -1.4482 O.2       1 SER1        0.0000 
@<TRIPOS>BOND
@<TRIPOS>SUBSTRUCTURE
     1 SER1       39 GROUP   
     2 ALA2        1 GROUP   
     3 PHE5        7 GROUP   
     4 GLY6        2 GROUP   
     5 CUB7        5 GROUP   
@<TRIPOS>SET

