#    Name: 1nl4_HFP_1_INTS_M
#    Modification time : Mon Mar 24 18:25:17 2014

@<TRIPOS>MOLECULE
1nl4_HFP_1_INTS_M
   59     0     9     0     0
SMALL
NO_CHARGES


@<TRIPOS>ATOM
      1 NZ         48.1380   41.0775    0.0005 N.4       2 LYC4        0.0000 
      2 NZ         49.7750   40.8630   -0.1960 N.4       8 LYL4        0.0000 
      3 NZ         46.5010   41.2920    0.1970 N.4       5 LYP4        0.0000 
      4 N          48.1380   41.0775    0.0005 N.am      1 SEC2        0.0000 
      5 N          49.7750   40.8630   -0.1960 N.am      7 SEL2        0.0000 
      6 N          46.5010   41.2920    0.1970 N.am      4 SEP2        0.0000 
      7 N          53.4645   40.2645   -0.5385 N.am      1 SEC2        0.0000 
      8 N          52.1080   40.1670   -0.8290 N.am      7 SEL2        0.0000 
      9 N          54.8210   40.3620   -0.2480 N.am      4 SEP2        0.0000 
     10 N          52.6885   42.0575   -2.0050 N.am      1 SEC2        0.0000 
     11 N          51.3100   42.5310   -1.2370 N.am      7 SEL2        0.0000 
     12 N          54.0670   41.5840   -2.7730 N.am      4 SEP2        0.0000 
     13 CA         53.4600   40.4695    0.8585 C.3       3 GLC5        0.0000 
     14 CA         51.7660   41.8050    1.4480 C.3       9 GLL5        0.0000 
     15 CA         55.1540   39.1340    0.2690 C.3       6 GLP5        0.0000 
     16 CA         53.9255   44.0655    4.9960 C.3       3 GLC5        0.0000 
     17 CA         53.8290   42.3600    3.7820 C.3       9 GLL5        0.0000 
     18 CA         54.0220   45.7710    6.2100 C.3       6 GLP5        0.0000 
     19 CA         53.9350   40.5700    4.6680 C.3       3 GLC5        0.0000 
     20 CA         54.0410   38.7800    5.5540 C.3       6 GLP5        0.0000 
     21 CA         55.4880   41.7090    4.1905 C.3       3 GLC5        0.0000 
     22 CA         57.1470   41.0580    4.5990 C.3       6 GLP5        0.0000 
     23 CA         54.4170   45.0640    4.3060 C.3       3 GLC5        0.0000 
     24 CA         54.8120   44.3570    2.4020 C.3       9 GLL5        0.0000 
     25 CA         56.0740   43.3280    3.8035 C.3       3 GLC5        0.0000 
     26 CA         57.3360   42.2990    5.2050 C.3       6 GLP5        0.0000 
     27 CA         58.8530   44.6810   -0.6285 C.3       3 GLC5        0.0000 
     28 CA         58.6680   46.5530    0.0130 C.3       9 GLL5        0.0000 
     29 CA         59.0380   42.8090   -1.2700 C.3       6 GLP5        0.0000 
     30 CA         58.4360   47.3030    2.9940 C.3       3 GLC5        0.0000 
     31 CA         58.6870   47.7800    0.8870 C.3       9 GLL5        0.0000 
     32 CA         58.1850   46.8260    5.1010 C.3       6 GLP5        0.0000 
     33 CA         59.8665   47.4005    2.9120 C.3       3 GLC5        0.0000 
     34 CA         60.0950   48.3630    0.8940 C.3       9 GLL5        0.0000 
     35 CA         59.6380   46.4380    4.9300 C.3       6 GLP5        0.0000 
     36 CA         59.0710   52.0215    2.0605 C.3       3 GLC5        0.0000 
     37 CA         59.4370   50.2740    2.3930 C.3       9 GLL5        0.0000 
     38 CA         58.7050   53.7690    1.7280 C.3       6 GLP5        0.0000 
     39 CA         62.2980   51.7255    0.5630 C.3       3 GLC5        0.0000 
     40 CA         61.8490   50.0080    1.5200 C.3       9 GLL5        0.0000 
     41 CA         62.7470   53.4430   -0.3940 C.3       6 GLP5        0.0000 
     42 CA         63.3930   49.5390    1.4285 C.3       3 GLC5        0.0000 
     43 CA         64.9370   49.0700    1.3370 C.3       6 GLP5        0.0000 
     44 CA         62.3705   50.6825    3.3165 C.3       3 GLC5        0.0000 
     45 CA         62.8920   51.3570    5.1130 C.3       6 GLP5        0.0000 
     46 CA         57.7265   46.6172   -2.2030 C.3       3 GLC5        0.0000 
     47 CA         57.2920   45.9020   -0.0430 C.3       9 GLL5        0.0000 
     48 CA         58.5910   47.2440   -3.7370 C.3       6 GLP5        0.0000 
     49 CA         57.8927   44.3076   -0.8393 C.3       3 GLC5        0.0000 
     50 CA         56.4320   46.0790   -1.2950 C.3       9 GLL5        0.0000 
     51 CA         58.7818   47.8073   -1.3240 C.3       3 GLC5        0.0000 
     52 CA         58.8860   48.4480   -3.0980 C.3       6 GLP5        0.0000 
     53 CA         60.2297   48.8058   -0.7627 C.3       3 GLC5        0.0000 
     54 CA         60.1930   48.6880   -2.7600 C.3       6 GLP5        0.0000 
     55 CA         60.1817   51.6060    1.0202 C.3       3 GLC5        0.0000 
     56 CA         60.4380   49.4840    1.5750 C.3       9 GLL5        0.0000 
     57 CA         59.2200   53.4660    0.4930 C.3       6 GLP5        0.0000 
     58 CA         61.9794   47.7979    1.6091 C.3       3 GLC5        0.0000 
     59 CA         62.9010   46.1300    1.8410 C.3       6 GLP5        0.0000 
@<TRIPOS>BOND
@<TRIPOS>SUBSTRUCTURE
     1 SEC2        4 GROUP        1 X    SEC  0     ROOT SEC X 2
     2 LYC4        1 GROUP        1 X    LYC  0     **** LYC X 4
     3 GLC5       13 GROUP        1 X    GLC  0     **** GLC X 6
     4 SEP2        6 GROUP        1 Y    SEP  0     ROOT SEP Y 9
     5 LYP4        3 GROUP        1 Y    LYP  0     **** LYP Y 11
     6 GLP5       15 GROUP        1 Y    GLP  0     **** GLP Y 13
     7 SEL2        5 GROUP        1 Z    SEL  0     ROOT SEL Z 16
     8 LYL4        2 GROUP        1 Z    LYL  0     **** LYL Z 18
     9 GLL5       14 GROUP        1 Z    GLL  0     **** GLL Z 20
@<TRIPOS>SET

