#    Name: 1nl4_HFP_1_ligand
#    Modification time : Mon Mar 24 18:25:17 2014

@<TRIPOS>MOLECULE
1nl4_HFP_1_ligand
   51    50     1     0     0
SMALL
NO_CHARGES


@<TRIPOS>ATOM
      1 P          51.1760   41.3100   -0.2920 P.3       1 HFP501      0.0000 
      2 O1P        49.7750   40.8630   -0.1960 O.co2     1 HFP501      0.0000 
      3 O2P        52.1080   40.1670   -0.8290 O.co2     1 HFP501      0.0000 
      4 O3P        51.3100   42.5310   -1.2370 O.co2     1 HFP501      0.0000 
      5 C1         51.7660   41.8050    1.4480 C.3       1 HFP501      0.0000 
      6 O1         50.6290   42.2890    2.1880 O.3       1 HFP501      0.0000 
      7 C2         52.8520   42.9430    1.4620 C.3       1 HFP501      0.0000 
      8 C3         53.7810   43.2030    2.5040 C.3       1 HFP501      0.0000 
      9 C4         53.8290   42.3600    3.7820 C.3       1 HFP501      0.0000 
     10 C5         54.8120   44.3570    2.4020 C.3       1 HFP501      0.0000 
     11 C6         55.4650   44.4770    0.9820 C.3       1 HFP501      0.0000 
     12 C7         56.8340   45.1650    0.9990 C.3       1 HFP501      0.0000 
     13 C8         57.2920   45.9020   -0.0430 C.3       1 HFP501      0.0000 
     14 C9         56.4320   46.0790   -1.2950 C.3       1 HFP501      0.0000 
     15 C10        58.6680   46.5530    0.0130 C.3       1 HFP501      0.0000 
     16 C11        58.6870   47.7800    0.8870 C.3       1 HFP501      0.0000 
     17 C12        60.0950   48.3630    0.8940 C.3       1 HFP501      0.0000 
     18 C13        60.4380   49.4840    1.5750 C.3       1 HFP501      0.0000 
     19 C14        59.4370   50.2740    2.3930 C.3       1 HFP501      0.0000 
     20 C15        61.8490   50.0080    1.5200 C.3       1 HFP501      0.0000 
     21 H          52.1537   40.8947    1.8106 H         1 HFP501      0.0000 
     22 H          52.2550   43.9151    1.2089 H         1 HFP501      0.0000 
     23 H          53.4171   42.8154    0.4472 H         1 HFP501      0.0000 
     24 H          52.8642   44.1104    3.1547 H         1 HFP501      0.0000 
     25 H          55.6053   44.1935    3.1346 H         1 HFP501      0.0000 
     26 H          54.3158   45.3015    2.6352 H         1 HFP501      0.0000 
     27 H          54.7806   45.0397    0.3386 H         1 HFP501      0.0000 
     28 H          55.5673   43.4686    0.5676 H         1 HFP501      0.0000 
     29 H          57.5834   44.3250    1.2856 H         1 HFP501      0.0000 
     30 H          56.8458   45.7754    1.9872 H         1 HFP501      0.0000 
     31 H          56.7143   47.1077    0.5033 H         1 HFP501      0.0000 
     32 H          58.9746   46.8236   -1.0063 H         1 HFP501      0.0000 
     33 H          59.3923   45.8202    0.3932 H         1 HFP501      0.0000 
     34 H          58.4058   47.5156    1.8999 H         1 HFP501      0.0000 
     35 H          57.9969   48.5202    0.4986 H         1 HFP501      0.0000 
     36 H          60.3850   48.4521   -0.2331 H         1 HFP501      0.0000 
     37 H          60.7854   47.4681    1.1851 H         1 HFP501      0.0000 
     38 H          60.7832   48.7265    2.7509 H         1 HFP501      0.0000 
     39 H          54.0159   41.3975    3.5852 H         1 HFP501      0.0000 
     40 H          54.5422   42.6750    4.4081 H         1 HFP501      0.0000 
     41 H          52.9638   42.3943    4.2822 H         1 HFP501      0.0000 
     42 H          56.8891   46.6428   -1.9829 H         1 HFP501      0.0000 
     43 H          56.2210   45.2025   -1.7276 H         1 HFP501      0.0000 
     44 H          55.5593   46.5207   -1.0867 H         1 HFP501      0.0000 
     45 H          59.8576   51.0718    2.8251 H         1 HFP501      0.0000 
     46 H          58.6807   50.6095    1.8313 H         1 HFP501      0.0000 
     47 H          59.0365   49.7217    3.1242 H         1 HFP501      0.0000 
     48 H          62.5071   49.3397    1.8667 H         1 HFP501      0.0000 
     49 H          62.1252   50.2338    0.5858 H         1 HFP501      0.0000 
     50 H          61.9585   50.8381    2.0668 H         1 HFP501      0.0000 
     51 H          49.8507   41.7696    1.8353 H         1 HFP501      0.0000 
@<TRIPOS>BOND
     1    2    1 ar   
     2    3    1 ar   
     3    4    1 ar   
     4    5    1 1    
     5    6    5 1    
     6    7    5 1    
     7   21    5 1    
     8   51    6 1    
     9    8    7 1    
    10   22    7 1    
    11   23    7 1    
    12    9    8 1    
    13   10    8 1    
    14   24    8 1    
    15   39    9 1    
    16   40    9 1    
    17   41    9 1    
    18   11   10 1    
    19   25   10 1    
    20   26   10 1    
    21   12   11 1    
    22   27   11 1    
    23   28   11 1    
    24   13   12 1    
    25   29   12 1    
    26   30   12 1    
    27   14   13 1    
    28   15   13 1    
    29   31   13 1    
    30   42   14 1    
    31   43   14 1    
    32   44   14 1    
    33   16   15 1    
    34   32   15 1    
    35   33   15 1    
    36   17   16 1    
    37   34   16 1    
    38   35   16 1    
    39   18   17 1    
    40   36   17 1    
    41   37   17 1    
    42   19   18 1    
    43   20   18 1    
    44   38   18 1    
    45   45   19 1    
    46   46   19 1    
    47   47   19 1    
    48   48   20 1    
    49   49   20 1    
    50   50   20 1    
@<TRIPOS>SUBSTRUCTURE
     1 HFP501      1 GROUP   
@<TRIPOS>SET

