#    Name: 2H9P_1_CAVITY_N1_ALL.mol2
#    Modification time : Mon Mar 10 16:18:34 2014

@<TRIPOS>MOLECULE
2H9P_1_CAVITY_N1_ALL.mol2
  100     0     6     0     0
SMALL
NO_CHARGES


@<TRIPOS>ATOM
      1 NZ        -23.5526   18.4876   13.5332 N.2       3 LYS4        0.0000 
      2 DU        -22.1877   18.0390   13.1021 H         6 CUB7        0.0000 
      3 CA        -26.8041   19.1258   13.0130 C.3       5 GLY6        0.0000 
      4 N         -30.0555   19.7640   12.4928 N.2       2 ALA2        0.0000 
      5 CA        -28.6906   19.3154   12.0618 C.3       5 GLY6        0.0000 
      6 NZ        -30.5772   19.5049   11.1106 N.2       3 LYS4        0.0000 
      7 O         -21.3270   19.7058   14.0927 O.2       2 ALA2        0.0000 
      8 CA        -23.2136   19.8953   13.1414 C.3       5 GLY6        0.0000 
      9 CA        -21.8487   19.4467   12.7104 C.3       5 GLY6        0.0000 
     10 CA        -25.1002   20.0849   12.1902 C.3       5 GLY6        0.0000 
     11 DU        -23.7353   19.6362   11.7591 H         6 CUB7        0.0000 
     12 CA        -29.7166   21.1717   12.1011 C.3       5 GLY6        0.0000 
     13 CA        -28.3517   20.7231   11.6700 C.3       5 GLY6        0.0000 
     14 CA        -26.9868   20.2744   11.2390 C.3       5 GLY6        0.0000 
     15 DU        -25.6219   19.8258   10.8079 H         6 CUB7        0.0000 
     16 NZ        -30.2383   20.9126   10.7188 N.2       3 LYS4        0.0000 
     17 NZ        -28.8734   20.4640   10.2877 N.2       3 LYS4        0.0000 
     18 NZ        -27.5085   20.0154    9.8567 N.2       3 LYS4        0.0000 
     19 CZ        -27.7087   18.7895    5.2788 C.ar      4 PHE5        0.0000 
     20 CA        -22.8746   21.3030   12.7497 C.3       5 GLY6        0.0000 
     21 CA        -24.7612   21.4926   11.7984 C.3       5 GLY6        0.0000 
     22 CA        -23.3963   21.0439   11.3674 C.3       5 GLY6        0.0000 
     23 CA        -22.0314   20.5953   10.9363 C.3       5 GLY6        0.0000 
     24 CA        -28.0127   22.1308   11.2782 C.3       5 GLY6        0.0000 
     25 CA        -26.6478   21.6821   10.8472 C.3       5 GLY6        0.0000 
     26 DU        -25.2829   21.2335   10.4161 H         6 CUB7        0.0000 
     27 DU        -23.9180   20.7849    9.9851 H         6 CUB7        0.0000 
     28 CZ        -22.5531   20.3362    9.5540 C.ar      4 PHE5        0.0000 
     29 CA        -29.8993   22.3203   10.3270 C.3       5 GLY6        0.0000 
     30 NZ        -28.5344   21.8717    9.8960 N.2       3 LYS4        0.0000 
     31 DU        -27.1695   21.4231    9.4649 H         6 CUB7        0.0000 
     32 DU        -25.8046   20.9744    9.0339 H         6 CUB7        0.0000 
     33 DU        -23.0748   20.0772    8.1718 H         6 CUB7        0.0000 
     34 CZ        -21.7099   19.6285    7.7407 C.ar      4 PHE5        0.0000 
     35 OG        -27.6912   21.1640    8.0826 O.2       1 SER1        0.0000 
     36 DU        -26.3263   20.7154    7.6516 H         6 CUB7        0.0000 
     37 DU        -24.9614   20.2667    7.2205 H         6 CUB7        0.0000 
     38 DU        -23.5965   19.8181    6.7895 H         6 CUB7        0.0000 
     39 CZ        -22.2316   19.3695    6.3584 C.ar      4 PHE5        0.0000 
     40 CZ        -20.8668   18.9208    5.9274 C.ar      4 PHE5        0.0000 
     41 NZ        -28.2129   20.9049    6.7003 N.2       3 LYS4        0.0000 
     42 CZ        -26.8480   20.4563    6.2693 C.ar      4 PHE5        0.0000 
     43 CZ        -25.4831   20.0077    5.8382 C.ar      4 PHE5        0.0000 
     44 DU        -24.1182   19.5590    5.4072 H         6 CUB7        0.0000 
     45 DU        -22.7534   19.1104    4.9761 H         6 CUB7        0.0000 
     46 N         -21.3885   18.6618    4.5451 N.2       2 ALA2        0.0000 
     47 CZ        -27.3697   20.1972    4.8870 C.ar      4 PHE5        0.0000 
     48 CZ        -26.0048   19.7486    4.4560 C.ar      4 PHE5        0.0000 
     49 CZ        -24.6399   19.3000    4.0249 C.ar      4 PHE5        0.0000 
     50 OG        -23.2751   18.8513    3.5938 O.2       1 SER1        0.0000 
     51 OG        -21.9102   18.4027    3.1628 O.2       1 SER1        0.0000 
     52 OG        -22.4319   18.1436    1.7805 O.2       1 SER1        0.0000 
     53 CZ        -24.3185   18.3332    0.8293 C.ar      4 PHE5        0.0000 
     54 CZ        -22.9536   17.8846    0.3982 C.ar      4 PHE5        0.0000 
     55 CA        -24.8402   18.0741   -0.5530 C.3       5 GLY6        0.0000 
     56 CZ        -23.4753   17.6255   -0.9841 C.ar      4 PHE5        0.0000 
     57 O         -25.7871   23.3489   11.8377 O.2       2 ALA2        0.0000 
     58 CA        -24.4222   22.9003   11.4067 C.3       5 GLY6        0.0000 
     59 CA        -23.0573   22.4516   10.9756 C.3       5 GLY6        0.0000 
     60 N         -27.6737   23.5385   10.8865 N.2       2 ALA2        0.0000 
     61 CA        -26.3088   23.0898   10.4554 C.3       5 GLY6        0.0000 
     62 CA        -24.9439   22.6412   10.0244 C.3       5 GLY6        0.0000 
     63 DU        -23.5790   22.1926    9.5933 H         6 CUB7        0.0000 
     64 CA        -22.2142   21.7439    9.1623 C.3       5 GLY6        0.0000 
     65 OG        -28.1954   23.2794    9.5042 O.2       1 SER1        0.0000 
     66 OG        -26.8305   22.8308    9.0731 O.2       1 SER1        0.0000 
     67 OG        -25.4656   22.3821    8.6421 O.2       1 SER1        0.0000 
     68 DU        -24.1007   21.9335    8.2110 H         6 CUB7        0.0000 
     69 DU        -22.7359   21.4849    7.7800 H         6 CUB7        0.0000 
     70 CZ        -21.3710   21.0362    7.3489 C.ar      4 PHE5        0.0000 
     71 OG        -25.9873   22.1231    7.2598 O.2       1 SER1        0.0000 
     72 CZ        -24.6225   21.6744    6.8288 C.ar      4 PHE5        0.0000 
     73 CZ        -23.2576   21.2258    6.3977 C.ar      4 PHE5        0.0000 
     74 CZ        -21.8927   20.7772    5.9666 C.ar      4 PHE5        0.0000 
     75 CA        -20.5278   20.3285    5.5356 C.3       5 GLY6        0.0000 
     76 CZ        -26.5090   21.8640    5.8775 C.ar      4 PHE5        0.0000 
     77 CZ        -23.7793   20.9667    5.0154 C.ar      4 PHE5        0.0000 
     78 OG        -22.4144   20.5181    4.5844 O.2       1 SER1        0.0000 
     79 OG        -21.0495   20.0695    4.1533 O.2       1 SER1        0.0000 
     80 CZ        -24.3010   20.7077    3.6331 C.ar      4 PHE5        0.0000 
     81 OG        -22.9361   20.2590    3.2021 O.2       1 SER1        0.0000 
     82 OG        -23.4578   20.0000    1.8198 O.2       1 SER1        0.0000 
     83 CZ        -23.9795   19.7409    0.4375 C.ar      4 PHE5        0.0000 
     84 CA        -22.7184   23.8593   10.5838 C.3       5 GLY6        0.0000 
     85 CA        -24.6050   24.0489    9.6326 C.3       5 GLY6        0.0000 
     86 CA        -23.2401   23.6003    9.2016 C.3       5 GLY6        0.0000 
     87 CA        -21.8752   23.1516    8.7705 C.3       5 GLY6        0.0000 
     88 OG        -25.1267   23.7898    8.2503 O.2       1 SER1        0.0000 
     89 DU        -23.7618   23.3412    7.8193 H         6 CUB7        0.0000 
     90 CA        -22.3969   22.8926    7.3882 C.3       5 GLY6        0.0000 
     91 CA        -21.0320   22.4439    6.9572 C.3       5 GLY6        0.0000 
     92 CZ        -24.2835   23.0821    6.4370 C.ar      4 PHE5        0.0000 
     93 CZ        -22.9186   22.6335    6.0059 C.ar      4 PHE5        0.0000 
     94 O         -21.5537   22.1849    5.5749 O.2       2 ALA2        0.0000 
     95 CZ        -22.0754   21.9258    4.1926 C.ar      4 PHE5        0.0000 
     96 N         -22.9011   25.0080    8.8098 N.2       2 ALA2        0.0000 
     97 N         -24.7877   25.1975    7.8586 N.2       2 ALA2        0.0000 
     98 CZ        -23.4228   24.7489    7.4275 C.ar      4 PHE5        0.0000 
     99 N         -22.0579   24.3003    6.9964 N.2       2 ALA2        0.0000 
    100 N         -23.0838   26.1566    7.0357 N.2       2 ALA2        0.0000 
@<TRIPOS>BOND
@<TRIPOS>SUBSTRUCTURE
     1 SER1       35 GROUP   
     2 ALA2        4 GROUP   
     3 LYS4        1 GROUP   
     4 PHE5       19 GROUP   
     5 GLY6        3 GROUP   
     6 CUB7        2 GROUP   
@<TRIPOS>SET

