#    Name: 2h9p_ALA_ARG_THR_M3L_1_INTS_M
#    Modification time : Tue Mar 25 15:45:50 2014

@<TRIPOS>MOLECULE
2h9p_ALA_ARG_THR_M3L_1_INTS_M
   50     0     9     0     0
SMALL
NO_CHARGES


@<TRIPOS>ATOM
      1 OD1       -29.5555   21.7205    7.6280 O.co2     2 ASC3        0.0000 
      2 OD1       -28.0880   21.6430    8.6720 O.co2     8 ASL3        0.0000 
      3 OD1       -31.0230   21.7980    6.5840 O.co2     5 ASP3        0.0000 
      4 OD1       -29.5775   21.0400    8.4825 O.co2     2 ASC3        0.0000 
      5 OD1       -31.0670   20.4370    8.2930 O.co2     5 ASP3        0.0000 
      6 O         -28.0190   23.0050    7.7670 O.2       1 ALC1        0.0000 
      7 O         -28.0880   21.6430    8.6720 O.2       7 ALL1        0.0000 
      8 O         -27.9500   24.3670    6.8620 O.2       4 ALP1        0.0000 
      9 O         -29.5775   21.0400    8.4825 O.2       1 ALC1        0.0000 
     10 O         -31.0670   20.4370    8.2930 O.2       4 ALP1        0.0000 
     11 O         -26.8020   23.2995    7.1000 O.2       1 ALC1        0.0000 
     12 O         -25.6540   22.2320    7.3380 O.2       7 ALL1        0.0000 
     13 CA        -24.7385   22.9595    5.5790 C.3       3 GLC5        0.0000 
     14 CA        -24.2510   22.6780    7.2060 C.3       9 GLL5        0.0000 
     15 CA        -25.2260   23.2410    3.9520 C.3       6 GLP5        0.0000 
     16 CA        -24.6475   25.3420    9.1960 C.3       3 GLC5        0.0000 
     17 CA        -24.1560   24.1940    7.4520 C.3       9 GLL5        0.0000 
     18 CA        -25.1390   26.4900   10.9400 C.3       6 GLP5        0.0000 
     19 CA        -25.9520   24.9805    7.0440 C.3       3 GLC5        0.0000 
     20 CA        -27.7480   25.7670    6.6360 C.3       6 GLP5        0.0000 
     21 CA        -21.5955   24.6735    5.2295 C.3       3 GLC5        0.0000 
     22 CA        -22.8120   24.7880    7.1120 C.3       9 GLL5        0.0000 
     23 CA        -20.3790   24.5590    3.3470 C.3       6 GLP5        0.0000 
     24 CA        -23.9600   26.3830    9.1310 C.3       3 GLC5        0.0000 
     25 CA        -22.7810   26.2760    7.3220 C.3       9 GLL5        0.0000 
     26 CA        -22.1855   28.0340    7.2895 C.3       3 GLC5        0.0000 
     27 CA        -21.5900   29.7920    7.2570 C.3       6 GLP5        0.0000 
     28 O         -24.7565   27.5250    7.0240 O.2       1 ALC1        0.0000 
     29 O         -23.6150   27.0360    6.3730 O.2       7 ALL1        0.0000 
     30 O         -25.8980   28.0140    7.6750 O.2       4 ALP1        0.0000 
     31 O         -25.5425   27.8930    4.1710 O.2       1 ALC1        0.0000 
     32 O         -23.9970   28.2350    4.4300 O.2       7 ALL1        0.0000 
     33 O         -27.0880   27.5510    3.9120 O.2       4 ALP1        0.0000 
     34 O         -20.7125   26.6755    5.2790 O.2       1 ALC1        0.0000 
     35 O         -21.9020   27.3270    4.8540 O.2       7 ALL1        0.0000 
     36 O         -19.5230   26.0240    5.7040 O.2       4 ALP1        0.0000 
     37 CA        -24.5515   24.8050   11.4135 C.3       3 GLC5        0.0000 
     38 CA        -23.9640   23.1200   11.8870 C.3       9 GLL5        0.0000 
     39 CA        -21.2710   18.1460    8.9755 C.3       3 GLC5        0.0000 
     40 CA        -23.3600   17.6250    9.0230 C.3       9 GLL5        0.0000 
     41 CA        -19.1820   18.6670    8.9280 C.3       6 GLP5        0.0000 
     42 CA        -23.7570   24.1980    5.4870 C.3       3 GLC5        0.0000 
     43 CA        -24.0300   23.9050    3.6920 C.3       6 GLP5        0.0000 
     44 CA        -21.2142   25.3900    8.3965 C.3       3 GLC5        0.0000 
     45 CA        -19.6320   25.2480    9.5760 C.3       6 GLP5        0.0000 
     46 CA        -23.6202   22.0978   13.5225 C.3       3 GLC5        0.0000 
     47 CA        -23.7970   21.5750   11.8150 C.3       9 GLL5        0.0000 
     48 CA        -23.3600   21.8480   15.1940 C.3       6 GLP5        0.0000 
     49 CA        -22.0489   22.4450   12.0119 C.3       3 GLC5        0.0000 
     50 CA        -20.3870   22.6440   12.5030 C.3       6 GLP5        0.0000 
@<TRIPOS>BOND
@<TRIPOS>SUBSTRUCTURE
     1 ALC1        6 GROUP        1 X    ALC  0     ROOT ALC X 1
     2 ASC3        1 GROUP        1 X    ASC  0     **** ASC X 3
     3 GLC5       13 GROUP        1 X    GLC  0     **** GLC X 6
     4 ALP1        8 GROUP        1 Y    ALP  0     ROOT ALP Y 8
     5 ASP3        3 GROUP        1 Y    ASP  0     **** ASP Y 10
     6 GLP5       15 GROUP        1 Y    GLP  0     **** GLP Y 13
     7 ALL1        7 GROUP        1 Z    ALL  0     ROOT ALL Z 15
     8 ASL3        2 GROUP        1 Z    ASL  0     **** ASL Z 17
     9 GLL5       14 GROUP        1 Z    GLL  0     **** GLL Z 20
@<TRIPOS>SET

