#    Name: 2h9p_ALA_ARG_THR_M3L_1_ligand
#    Modification time : Tue Mar 25 15:45:50 2014

@<TRIPOS>MOLECULE
2h9p_ALA_ARG_THR_M3L_1_ligand
   61    60     4     0     0
SMALL
NO_CHARGES


@<TRIPOS>ATOM
      1 N         -28.0880   21.6430    8.6720 N.4       1 ALA1        0.0000
      2 CA        -27.4940   20.6720    7.6830 C.3       1 ALA1        0.0000
      3 C         -26.0110   20.9460    7.4560 C.2       1 ALA1        0.0000
      4 O         -25.2100   19.9990    7.3840 O.2       1 ALA1        0.0000
      5 CB        -28.2380   20.6970    6.3350 C.3       1 ALA1        0.0000
      6 HA        -27.5855   19.6580    8.0868 H         1 ALA1        0.0000
      7 H         -29.0598   21.4663    8.8281 H         1 ALA1        0.0000
      8 H         -27.6341   21.5914    9.5615 H         1 ALA1        0.0000
      9 H         -28.0090   22.5888    8.3571 H         1 ALA1        0.0000
     10 HB1       -28.2085   21.6023    5.9112 H         1 ALA1        0.0000
     11 HB2       -27.8416   20.0537    5.6800 H         1 ALA1        0.0000
     12 HB3       -29.2023   20.4531    6.4384 H         1 ALA1        0.0000
     13 N         -25.6540   22.2320    7.3380 N.am      2 ARG2        0.0000
     14 CA        -24.2510   22.6780    7.2060 C.3       2 ARG2        0.0000
     15 C         -23.3270   21.9530    8.1870 C.2       2 ARG2        0.0000
     16 O         -22.1840   21.5890    7.8750 O.2       2 ARG2        0.0000
     17 CB        -24.1560   24.1940    7.4520 C.3       2 ARG2        0.0000
     18 CG        -22.8120   24.7880    7.1120 C.3       2 ARG2        0.0000
     19 CD        -22.7810   26.2760    7.3220 C.3       2 ARG2        0.0000
     20 NE        -23.6150   27.0360    6.3730 N.pl3     2 ARG2        0.0000
     21 CZ        -23.1740   27.5350    5.2230 C.cat     2 ARG2        0.0000
     22 NH1       -23.9970   28.2350    4.4300 N.pl3     2 ARG2        0.0000
     23 NH2       -21.9020   27.3270    4.8540 N.pl3     2 ARG2        0.0000
     24 HNCA      -26.3634   23.0036    7.3330 H         2 ARG2        0.0000
     25 HA        -23.8928   22.4889    6.2004 H         2 ARG2        0.0000
     26 HB2       -24.3879   24.3888    8.5132 H         2 ARG2        0.0000
     27 HB3       -24.9409   24.6922    6.8573 H         2 ARG2        0.0000
     28 HG2       -22.5721   24.5623    6.0633 H         2 ARG2        0.0000
     29 HG3       -22.0399   24.3152    7.7354 H         2 ARG2        0.0000
     30 HD2       -21.7266   26.6216    7.2553 H         2 ARG2        0.0000
     31 HD3       -23.1036   26.4940    8.3632 H         2 ARG2        0.0000
     32 HE        -24.6186   27.1604    6.6798 H         2 ARG2        0.0000
     33 HH11      -24.9468   28.3058    4.7346 H         2 ARG2        0.0000
     34 HH12      -23.5876   28.6238    3.6046 H         2 ARG2        0.0000
     35 HH21      -21.6287   27.7198    3.9759 H         2 ARG2        0.0000
     36 HH22      -21.3403   26.7977    5.4899 H         2 ARG2        0.0000
     37 N         -23.8560   21.7390    9.3810 N.am      3 THR3        0.0000
     38 CA        -23.1180   21.1690   10.4940 C.3       3 THR3        0.0000
     39 C         -22.9960   19.6360   10.4010 C.2       3 THR3        0.0000
     40 O         -22.4570   18.9860   11.3190 O.2       3 THR3        0.0000
     41 CB        -23.7970   21.5750   11.8150 C.3       3 THR3        0.0000
     42 OG1       -25.0750   20.9350   11.9060 O.3       3 THR3        0.0000
     43 CG2       -23.9640   23.1200   11.8870 C.3       3 THR3        0.0000
     44 HNCA      -24.8631   21.9773    9.5883 H         3 THR3        0.0000
     45 HA        -22.1042   21.5803   10.5212 H         3 THR3        0.0000
     46 HB        -23.1506   21.2771   12.6261 H         3 THR3        0.0000
     47 HG21      -23.0837   23.5915   11.8354 H         3 THR3        0.0000
     48 HG22      -24.5272   23.4680   11.1376 H         3 THR3        0.0000
     49 HG23      -24.4007   23.4070   12.7396 H         3 THR3        0.0000
     50 HG1       -24.8857   19.9607   11.7835 H         3 THR3        0.0000
     51 N         -23.5030   19.0690    9.3030 N.am      4 M3L4        0.0000
     52 CA        -23.3600   17.6250    9.0230 C.3       4 M3L4        0.0000
     53 CB        -24.7110   16.9270    8.8570 C.3       4 M3L4        0.0000
     54 C         -22.5100   17.3950    7.7990 C.2       4 M3L4        0.0000
     55 O         -22.5800   18.1620    6.8220 O.2       4 M3L4        0.0000
     56 H         -24.0261   19.6107    8.5844 H         4 M3L4        0.0000
     57 H         -22.8497   17.1447    9.8725 H         4 M3L4        0.0000
     58 H         -21.8953   16.5540    7.8859 H         4 M3L4        0.0000
     59 H         -24.6041   15.9502    8.6716 H         4 M3L4        0.0000
     60 H         -25.2750   17.0094    9.6786 H         4 M3L4        0.0000
     61 H         -25.2379   17.3131    8.0998 H         4 M3L4        0.0000
@<TRIPOS>BOND
     1    2    1 1
     2    7    1 1
     3    8    1 1
     4    9    1 1
     5    3    2 1
     6    5    2 1
     7    6    2 1
     8    4    3 2
     9   10    5 1
    10   11    5 1
    11   12    5 1
    12   14   13 1
    13   24   13 1
    14   15   14 1
    15   17   14 1
    16   25   14 1
    17   16   15 2
    18   18   17 1
    19   26   17 1
    20   27   17 1
    21   19   18 1
    22   28   18 1
    23   29   18 1
    24   20   19 1
    25   30   19 1
    26   31   19 1
    27   21   20 ar
    28   32   20 1
    29   22   21 ar
    30   23   21 ar
    31   33   22 1
    32   34   22 1
    33   35   23 1
    34   36   23 1
    35   38   37 1
    36   44   37 1
    37   39   38 1
    38   41   38 1
    39   45   38 1
    40   40   39 2
    41   42   41 1
    42   43   41 1
    43   46   41 1
    44   50   42 1
    45   47   43 1
    46   48   43 1
    47   49   43 1
    48   52   51 1
    49   56   51 1
    50   53   52 1
    51   54   52 1
    52   57   52 1
    53   59   53 1
    54   60   53 1
    55   61   53 1
    56   55   54 2
    57   58   54 1
    58   13    3 am
    59   37   15 am
    60   51   39 1 
@<TRIPOS>SUBSTRUCTURE
     1 ALA1        1 RESIDUE
     2 ARG2       13 RESIDUE
     3 THR3       37 RESIDUE
     4 M3L4       51 GROUP
@<TRIPOS>SET

