#    Name: 3ef5_DGT_1_INTS_M
#    Modification time : Tue Mar 25 01:41:42 2014

@<TRIPOS>MOLECULE
3ef5_DGT_1_INTS_M
   45     0    12     0     0
SMALL
NO_CHARGES


@<TRIPOS>ATOM
      1 NZ         27.7440   -6.2285  -15.4125 N.4       3 LYC4        0.0000 
      2 NZ         28.3870   -7.5980  -14.7860 N.4      11 LYL4        0.0000 
      3 NZ         27.1010   -4.8590  -16.0390 N.4       7 LYP4        0.0000 
      4 N          27.7440   -6.2285  -15.4125 N.am      2 SEC2        0.0000 
      5 N          28.3870   -7.5980  -14.7860 N.am     10 SEL2        0.0000 
      6 N          27.1010   -4.8590  -16.0390 N.am      6 SEP2        0.0000 
      7 NZ         28.4750   -5.5660  -16.1670 N.4       3 LYC4        0.0000 
      8 NZ         29.8490   -6.2730  -16.2950 N.4      11 LYL4        0.0000 
      9 N          28.4750   -5.5660  -16.1670 N.am      2 SEC2        0.0000 
     10 N          29.8490   -6.2730  -16.2950 N.am     10 SEL2        0.0000 
     11 NZ         27.5080  -11.6355  -14.7655 N.4       3 LYC4        0.0000 
     12 NZ         26.9520  -10.8420  -16.1920 N.4      11 LYL4        0.0000 
     13 NZ         28.0640  -12.4290  -13.3390 N.4       7 LYP4        0.0000 
     14 CA         22.3175   -9.8340  -14.3025 C.3       4 GLC5        0.0000 
     15 CA         24.4620   -9.7920  -14.5410 C.3      12 GLL5        0.0000 
     16 CA         20.1730   -9.8760  -14.0640 C.3       8 GLP5        0.0000 
     17 CA         23.9990   -7.9340  -15.7200 C.3       4 GLC5        0.0000 
     18 CA         23.5360   -6.0760  -16.8990 C.3       8 GLP5        0.0000 
     19 CA         22.5775   -8.4195  -13.0900 C.3       4 GLC5        0.0000 
     20 CA         24.2440   -9.1700  -13.1620 C.3      12 GLL5        0.0000 
     21 CA         20.9110   -7.6690  -13.0180 C.3       8 GLP5        0.0000 
     22 CA         22.2210   -8.9870  -12.1225 C.3       4 GLC5        0.0000 
     23 CA         23.5310  -10.3050  -11.2270 C.3      12 GLL5        0.0000 
     24 CA         22.9550  -15.4360  -11.8640 C.3       4 GLC5        0.0000 
     25 CA         21.8830  -13.6010  -11.2490 C.3      12 GLL5        0.0000 
     26 CA         24.0270  -17.2710  -12.4790 C.3       8 GLP5        0.0000 
     27 CA         22.7310  -14.6200   -9.8625 C.3       4 GLC5        0.0000 
     28 CA         23.5790  -15.6390   -8.4760 C.3       8 GLP5        0.0000 
     29 N          21.0930  -16.9810  -12.3800 N.am      2 SEC2        0.0000 
     30 N          20.8580  -15.6330  -11.3920 N.am     10 SEL2        0.0000 
     31 N          21.3280  -18.3290  -13.3680 N.am      6 SEP2        0.0000 
     32 N          20.6080  -16.2965  -10.1995 N.am      2 SEC2        0.0000 
     33 N          20.3580  -16.9600   -9.0070 N.am      6 SEP2        0.0000 
     34 O          21.2055  -15.5590  -14.4015 O.2       1 ALC1        0.0000 
     35 O          21.2630  -14.5850  -13.3520 O.2       9 ALL1        0.0000 
     36 O          21.1480  -16.5330  -15.4510 O.2       5 ALP1        0.0000 
     37 O          21.4450  -14.9715  -15.3945 O.2       1 ALC1        0.0000 
     38 O          21.7420  -13.4100  -15.3380 O.2       9 ALL1        0.0000 
     39 CA         21.2870  -11.1860  -12.9945 C.3       4 GLC5        0.0000 
     40 CA         22.4010  -12.4960  -11.9250 C.3      12 GLL5        0.0000 
     41 CA         24.2362   -8.6204  -10.1932 C.3       4 GLC5        0.0000 
     42 CA         25.0510  -10.2950  -11.1670 C.3      12 GLL5        0.0000 
     43 CA         24.0830   -7.1930   -8.9220 C.3       8 GLP5        0.0000 
     44 CA         20.7725  -12.0978  -10.2700 C.3       4 GLC5        0.0000 
     45 CA         19.4030  -11.1470   -8.9530 C.3       8 GLP5        0.0000 
@<TRIPOS>BOND
@<TRIPOS>SUBSTRUCTURE
     1 ALC1       34 GROUP        1 X    ALC  0     ROOT ALC X 1
     2 SEC2        4 GROUP        1 X    SEC  0     **** SEC X 2
     3 LYC4        1 GROUP        1 X    LYC  0     **** LYC X 4
     4 GLC5       14 GROUP        1 X    GLC  0     **** GLC X 6
     5 ALP1       36 GROUP        1 Y    ALP  0     ROOT ALP Y 8
     6 SEP2        6 GROUP        1 Y    SEP  0     **** SEP Y 9
     7 LYP4        3 GROUP        1 Y    LYP  0     **** LYP Y 11
     8 GLP5       16 GROUP        1 Y    GLP  0     **** GLP Y 13
     9 ALL1       35 GROUP        1 Z    ALL  0     ROOT ALL Z 15
    10 SEL2        5 GROUP        1 Z    SEL  0     **** SEL Z 16
    11 LYL4        2 GROUP        1 Z    LYL  0     **** LYL Z 18
    12 GLL5       15 GROUP        1 Z    GLL  0     **** GLL Z 20
@<TRIPOS>SET

