#    Name: 3ef5_DGT_1_ligand
#    Modification time : Tue Mar 25 01:41:42 2014

@<TRIPOS>MOLECULE
3ef5_DGT_1_ligand
   43    45     1     0     0
SMALL
NO_CHARGES


@<TRIPOS>ATOM
      1 PG         29.6400   -7.6180  -15.6360 P.3       1 DGT3800     0.0000 
      2 O1G        28.3870   -7.5980  -14.7860 O.co2     1 DGT3800     0.0000 
      3 O2G        30.8320   -7.9400  -14.7630 O.co2     1 DGT3800     0.0000 
      4 O3G        29.8490   -6.2730  -16.2950 O.co2     1 DGT3800     0.0000 
      5 O3B        29.4880   -8.7720  -16.7530 O.3       1 DGT3800     0.0000 
      6 PB         28.3930   -8.7270  -17.9390 P.3       1 DGT3800     0.0000 
      7 O1B        28.6770   -7.5670  -18.8670 O.co2     1 DGT3800     0.0000 
      8 O2B        28.3930  -10.0340  -18.7020 O.co2     1 DGT3800     0.0000 
      9 O3A        26.9790   -8.4760  -17.1930 O.3       1 DGT3800     0.0000 
     10 PA         26.0790   -9.6770  -16.5990 P.3       1 DGT3800     0.0000 
     11 O1A        25.0600  -10.1240  -17.6210 O.co2     1 DGT3800     0.0000 
     12 O2A        26.9520  -10.8420  -16.1920 O.co2     1 DGT3800     0.0000 
     13 O5'        25.3350   -9.0110  -15.3290 O.3       1 DGT3800     0.0000 
     14 C5'        24.4620   -9.7920  -14.5410 C.3       1 DGT3800     0.0000 
     15 C4'        24.2440   -9.1700  -13.1620 C.3       1 DGT3800     0.0000 
     16 O4'        23.1770   -9.8360  -12.5160 O.3       1 DGT3800     0.0000 
     17 C3'        25.4450   -9.2860  -12.2370 C.3       1 DGT3800     0.0000 
     18 O3'        25.7030   -8.0210  -11.6670 O.3       1 DGT3800     0.0000 
     19 C2'        25.0510  -10.2950  -11.1670 C.3       1 DGT3800     0.0000 
     20 C1'        23.5310  -10.3050  -11.2270 C.3       1 DGT3800     0.0000 
     21 N9         22.9060  -11.6250  -10.9760 N.pl3     1 DGT3800     0.0000 
     22 C8         22.6820  -12.1940   -9.7480 C.2       1 DGT3800     0.0000 
     23 N7         22.0650  -13.3860   -9.9290 N.2       1 DGT3800     0.0000 
     24 C5         21.8830  -13.6010  -11.2490 C.2       1 DGT3800     0.0000 
     25 C6         21.3130  -14.6500  -11.9700 C.2       1 DGT3800     0.0000 
     26 O6         20.8580  -15.6330  -11.3920 O.2       1 DGT3800     0.0000 
     27 N1         21.2630  -14.5850  -13.3520 N.am      1 DGT3800     0.0000 
     28 C2         21.7820  -13.4810  -14.0120 C.2       1 DGT3800     0.0000 
     29 N2         21.7420  -13.4100  -15.3380 N.pl3     1 DGT3800     0.0000 
     30 N3         22.3460  -12.4440  -13.2890 N.2       1 DGT3800     0.0000 
     31 C4         22.4010  -12.4960  -11.9250 C.2       1 DGT3800     0.0000 
     32 H          24.8513  -10.8145  -14.3824 H         1 DGT3800     0.0000 
     33 H          23.4680   -9.9035  -15.0120 H         1 DGT3800     0.0000 
     34 H          24.0119   -8.1211  -13.2866 H         1 DGT3800     0.0000 
     35 H          26.2596   -9.6752  -12.7929 H         1 DGT3800     0.0000 
     36 H          25.3728   -9.9549  -10.2150 H         1 DGT3800     0.0000 
     37 H          25.4288  -11.2537  -11.4191 H         1 DGT3800     0.0000 
     38 H          23.1747   -9.5881  -10.4761 H         1 DGT3800     0.0000 
     39 H          22.9265  -11.8030   -8.9039 H         1 DGT3800     0.0000 
     40 H          20.8414  -15.3545  -13.8902 H         1 DGT3800     0.0000 
     41 H          22.1591  -12.5989  -15.7480 H         1 DGT3800     0.0000 
     42 H          21.2984  -14.1741  -15.8064 H         1 DGT3800     0.0000 
     43 H          26.6654   -8.0504  -11.3968 H         1 DGT3800     0.0000 
@<TRIPOS>BOND
     1    2    1 ar   
     2    3    1 ar   
     3    4    1 ar   
     4    5    1 1    
     5    6    5 1    
     6    7    6 ar   
     7    8    6 ar   
     8    9    6 1    
     9   10    9 1    
    10   11   10 ar   
    11   12   10 ar   
    12   13   10 1    
    13   14   13 1    
    14   15   14 1    
    15   32   14 1    
    16   33   14 1    
    17   16   15 1    
    18   17   15 1    
    19   34   15 1    
    20   20   16 1    
    21   18   17 1    
    22   19   17 1    
    23   35   17 1    
    24   43   18 1    
    25   20   19 1    
    26   36   19 1    
    27   37   19 1    
    28   21   20 1    
    29   38   20 1    
    30   22   21 1    
    31   31   21 1    
    32   23   22 2    
    33   39   22 1    
    34   24   23 1    
    35   25   24 1    
    36   31   24 2    
    37   26   25 2    
    38   27   25 am   
    39   28   27 1    
    40   40   27 1    
    41   29   28 1    
    42   30   28 2    
    43   41   29 1    
    44   42   29 1    
    45   31   30 1    
@<TRIPOS>SUBSTRUCTURE
     1 DGT3800     1 GROUP   
@<TRIPOS>SET

