#    Name: 4J1I_1_CAVITY_N1_ALL.mol2
#    Modification time : Tue Mar 11 06:59:13 2014

@<TRIPOS>MOLECULE
4J1I_1_CAVITY_N1_ALL.mol2
  172     0     6     0     0
SMALL
NO_CHARGES


@<TRIPOS>ATOM
      1 N          22.6465  -43.8627   13.0340 N.2       2 ALA2        0.0000 
      2 N          20.5129  -40.9094   12.5583 N.2       2 ALA2        0.0000 
      3 N          21.7314  -40.9318   11.6838 N.2       2 ALA2        0.0000 
      4 N          20.5332  -42.4078   12.6250 N.2       2 ALA2        0.0000 
      5 N          21.7517  -42.4302   11.7505 N.2       2 ALA2        0.0000 
      6 N          24.1887  -42.4751   10.0015 N.2       2 ALA2        0.0000 
      7 N          20.5534  -43.9062   12.6916 N.2       2 ALA2        0.0000 
      8 CZ         19.6181  -39.4770   11.2748 C.ar      4 PHE5        0.0000 
      9 CZ         20.8366  -39.4994   10.4003 C.ar      4 PHE5        0.0000 
     10 N          22.0551  -39.5218    9.5258 N.2       2 ALA2        0.0000 
     11 CZ         18.4198  -40.9530   12.2159 C.ar      4 PHE5        0.0000 
     12 CZ         19.6384  -40.9754   11.3415 C.ar      4 PHE5        0.0000 
     13 DU         20.8569  -40.9978   10.4670 H         6 CUB7        0.0000 
     14 N          22.0754  -41.0202    9.5925 N.2       2 ALA2        0.0000 
     15 N          23.2939  -41.0426    8.7180 N.2       2 ALA2        0.0000 
     16 CA         18.4401  -42.4514   12.2826 C.3       5 GLY6        0.0000 
     17 N          19.6586  -42.4738   11.4081 N.2       2 ALA2        0.0000 
     18 DU         20.8771  -42.4962   10.5336 H         6 CUB7        0.0000 
     19 DU         22.0956  -42.5186    9.6591 H         6 CUB7        0.0000 
     20 N          23.3141  -42.5410    8.7846 N.2       2 ALA2        0.0000 
     21 CA         24.5327  -42.5634    7.9101 C.3       5 GLY6        0.0000 
     22 N          18.4604  -43.9497   12.3492 N.2       2 ALA2        0.0000 
     23 CZ         18.7233  -38.0446    9.9913 C.ar      4 PHE5        0.0000 
     24 CA         19.9418  -38.0670    9.1168 C.3       5 GLY6        0.0000 
     25 CA         21.1603  -38.0894    8.2423 C.3       5 GLY6        0.0000 
     26 CZ         17.5250  -39.5206   10.9324 C.ar      4 PHE5        0.0000 
     27 CZ         18.7435  -39.5430   10.0579 C.ar      4 PHE5        0.0000 
     28 CZ         19.9620  -39.5654    9.1834 C.ar      4 PHE5        0.0000 
     29 CZ         21.1806  -39.5878    8.3089 C.ar      4 PHE5        0.0000 
     30 CZ         22.3991  -39.6102    7.4344 C.ar      4 PHE5        0.0000 
     31 CZ         12.6713  -40.9293   14.4970 C.ar      4 PHE5        0.0000 
     32 CZ         16.3268  -40.9965   11.8735 C.ar      4 PHE5        0.0000 
     33 CZ         17.5453  -41.0189   10.9991 C.ar      4 PHE5        0.0000 
     34 DU         18.7638  -41.0414   10.1246 H         6 CUB7        0.0000 
     35 DU         19.9823  -41.0638    9.2501 H         6 CUB7        0.0000 
     36 DU         21.2008  -41.0862    8.3756 H         6 CUB7        0.0000 
     37 N          22.4193  -41.1086    7.5011 N.2       2 ALA2        0.0000 
     38 CA         23.6378  -41.1310    6.6266 C.3       5 GLY6        0.0000 
     39 CA         15.1286  -42.4725   12.8147 C.3       5 GLY6        0.0000 
     40 CA         16.3471  -42.4949   11.9402 C.3       5 GLY6        0.0000 
     41 DU         17.5656  -42.5173   11.0657 H         6 CUB7        0.0000 
     42 DU         21.2211  -42.5846    8.4422 H         6 CUB7        0.0000 
     43 DU         22.4396  -42.6070    7.5677 H         6 CUB7        0.0000 
     44 CA         23.6581  -42.6294    6.6932 C.3       5 GLY6        0.0000 
     45 OG         15.1488  -43.9709   12.8813 O.2       1 SER1        0.0000 
     46 CA         16.3673  -43.9933   12.0068 C.3       5 GLY6        0.0000 
     47 DU         17.5858  -44.0157   11.1323 H         6 CUB7        0.0000 
     48 DU         22.4599  -44.1053    7.6344 H         6 CUB7        0.0000 
     49 CZ         15.4117  -38.0657   10.5234 C.ar      4 PHE5        0.0000 
     50 OG         16.6302  -38.0881    9.6489 O.2       1 SER1        0.0000 
     51 CA         17.8487  -38.1105    8.7744 C.3       5 GLY6        0.0000 
     52 CZ         12.9950  -39.5193   12.3390 C.ar      4 PHE5        0.0000 
     53 CZ         14.2135  -39.5417   11.4645 C.ar      4 PHE5        0.0000 
     54 CZ         15.4320  -39.5641   10.5900 C.ar      4 PHE5        0.0000 
     55 CZ         16.6505  -39.5865    9.7155 C.ar      4 PHE5        0.0000 
     56 DU         17.8690  -39.6089    8.8410 H         6 CUB7        0.0000 
     57 CA         19.0875  -39.6313    7.9665 C.3       5 GLY6        0.0000 
     58 CA         20.3060  -39.6537    7.0920 C.3       5 GLY6        0.0000 
     59 CZ         21.5245  -39.6762    6.2175 C.ar      4 PHE5        0.0000 
     60 O          11.7967  -40.9953   13.2801 O.2       2 ALA2        0.0000 
     61 CZ         13.0152  -41.0177   12.4056 C.ar      4 PHE5        0.0000 
     62 CZ         14.2337  -41.0401   11.5312 C.ar      4 PHE5        0.0000 
     63 CZ         15.4522  -41.0625   10.6567 C.ar      4 PHE5        0.0000 
     64 DU         16.6708  -41.0849    9.7822 H         6 CUB7        0.0000 
     65 DU         17.8893  -41.1073    8.9077 H         6 CUB7        0.0000 
     66 N          19.1078  -41.1297    8.0332 N.2       2 ALA2        0.0000 
     67 N          20.3263  -41.1521    7.1587 N.2       2 ALA2        0.0000 
     68 CZ         21.5448  -41.1745    6.2842 C.ar      4 PHE5        0.0000 
     69 CZ         22.7633  -41.1970    5.4097 C.ar      4 PHE5        0.0000 
     70 DU         13.0355  -42.5160   12.4723 H         6 CUB7        0.0000 
     71 DU         14.2540  -42.5385   11.5978 H         6 CUB7        0.0000 
     72 DU         15.4725  -42.5609   10.7233 H         6 CUB7        0.0000 
     73 DU         17.9095  -42.6057    8.9743 H         6 CUB7        0.0000 
     74 N          19.1280  -42.6281    8.0998 N.2       2 ALA2        0.0000 
     75 N          20.3466  -42.6505    7.2253 N.2       2 ALA2        0.0000 
     76 DU         21.5651  -42.6729    6.3508 H         6 CUB7        0.0000 
     77 CA         22.7836  -42.6953    5.4763 C.3       5 GLY6        0.0000 
     78 OG         13.0558  -44.0144   12.5389 O.2       1 SER1        0.0000 
     79 DU         14.2743  -44.0368   11.6644 H         6 CUB7        0.0000 
     80 DU         17.9298  -44.1041    9.0410 H         6 CUB7        0.0000 
     81 DU         20.3668  -44.1489    7.2920 H         6 CUB7        0.0000 
     82 DU         21.5853  -44.1713    6.4175 H         6 CUB7        0.0000 
     83 CA         22.8038  -44.1937    5.5430 C.3       5 GLY6        0.0000 
     84 N          24.0223  -44.2161    4.6685 N.2       2 ALA2        0.0000 
     85 DU         15.5131  -45.5576   10.8566 H         6 CUB7        0.0000 
     86 O          10.8816  -38.0644   11.9300 O.2       2 ALA2        0.0000 
     87 O          12.1001  -38.0869   11.0555 O.2       2 ALA2        0.0000 
     88 CA         13.3187  -38.1093   10.1810 C.3       5 GLY6        0.0000 
     89 CA         14.5372  -38.1317    9.3065 C.3       5 GLY6        0.0000 
     90 OG         10.9019  -39.5628   11.9966 O.2       1 SER1        0.0000 
     91 N          12.1204  -39.5852   11.1221 N.2       2 ALA2        0.0000 
     92 N          13.3389  -39.6077   10.2476 N.2       2 ALA2        0.0000 
     93 DU         14.5574  -39.6301    9.3731 H         6 CUB7        0.0000 
     94 NZ         15.7759  -39.6525    8.4986 N.2       3 LYS4        0.0000 
     95 NZ         16.9944  -39.6749    7.6241 N.2       3 LYS4        0.0000 
     96 N          18.2130  -39.6973    6.7496 N.2       2 ALA2        0.0000 
     97 CA         19.4315  -39.7197    5.8752 C.3       5 GLY6        0.0000 
     98 OG         10.9222  -41.0612   12.0632 O.2       1 SER1        0.0000 
     99 DU         12.1407  -41.0836   11.1888 H         6 CUB7        0.0000 
    100 DU         13.3592  -41.1060   10.3143 H         6 CUB7        0.0000 
    101 DU         14.5777  -41.1284    9.4398 H         6 CUB7        0.0000 
    102 DU         15.7962  -41.1509    8.5653 H         6 CUB7        0.0000 
    103 N          17.0147  -41.1733    7.6908 N.2       2 ALA2        0.0000 
    104 N          19.4517  -41.2181    5.9418 N.2       2 ALA2        0.0000 
    105 N          20.6702  -41.2405    5.0673 N.2       2 ALA2        0.0000 
    106 N          21.8887  -41.2629    4.1928 N.2       2 ALA2        0.0000 
    107 OG         10.9425  -42.5596   12.1299 O.2       1 SER1        0.0000 
    108 DU         12.1610  -42.5820   11.2554 H         6 CUB7        0.0000 
    109 DU         14.5980  -42.6268    9.5064 H         6 CUB7        0.0000 
    110 DU         15.8165  -42.6492    8.6319 H         6 CUB7        0.0000 
    111 N          17.0350  -42.6716    7.7574 N.2       2 ALA2        0.0000 
    112 N          19.4720  -42.7165    6.0084 N.2       2 ALA2        0.0000 
    113 N          20.6905  -42.7389    5.1340 N.2       2 ALA2        0.0000 
    114 N          21.9090  -42.7613    4.2595 N.2       2 ALA2        0.0000 
    115 N          23.1275  -42.7837    3.3850 N.2       2 ALA2        0.0000 
    116 DU         12.1812  -44.0804   11.3220 H         6 CUB7        0.0000 
    117 DU         13.3997  -44.1028   10.4476 H         6 CUB7        0.0000 
    118 DU         14.6182  -44.1252    9.5731 H         6 CUB7        0.0000 
    119 OG         15.8368  -44.1476    8.6986 O.2       1 SER1        0.0000 
    120 OG         20.7108  -44.2373    5.2006 O.2       1 SER1        0.0000 
    121 OG         21.9293  -44.2597    4.3261 O.2       1 SER1        0.0000 
    122 O          13.4200  -45.6012   10.5142 O.2       2 ALA2        0.0000 
    123 O          14.6385  -45.6236    9.6397 O.2       2 ALA2        0.0000 
    124 OG         15.8570  -45.6460    8.7652 O.2       1 SER1        0.0000 
    125 N          11.2459  -39.6512    9.9052 N.2       2 ALA2        0.0000 
    126 N          13.6829  -39.6960    8.1562 N.2       2 ALA2        0.0000 
    127 NZ         14.9014  -39.7184    7.2817 N.2       3 LYS4        0.0000 
    128 CZ         11.2661  -41.1496    9.9719 C.ar      4 PHE5        0.0000 
    129 N          12.4847  -41.1720    9.0974 N.2       2 ALA2        0.0000 
    130 NZ         13.7032  -41.1944    8.2229 N.2       3 LYS4        0.0000 
    131 NZ         14.9217  -41.2168    7.3484 N.2       3 LYS4        0.0000 
    132 N          19.7957  -41.3065    3.8504 N.2       2 ALA2        0.0000 
    133 CA         21.0142  -41.3289    2.9759 C.3       5 GLY6        0.0000 
    134 OG         10.0679  -42.6256   10.9130 O.2       1 SER1        0.0000 
    135 DU         11.2864  -42.6480   10.0385 H         6 CUB7        0.0000 
    136 NZ         12.5049  -42.6704    9.1640 N.2       3 LYS4        0.0000 
    137 NZ         13.7234  -42.6928    8.2895 N.2       3 LYS4        0.0000 
    138 N          19.8160  -42.8048    3.9171 N.2       2 ALA2        0.0000 
    139 CA         21.0345  -42.8272    3.0426 C.3       5 GLY6        0.0000 
    140 CA         10.0882  -44.1239   10.9796 C.3       5 GLY6        0.0000 
    141 DU         11.3067  -44.1463   10.1052 H         6 CUB7        0.0000 
    142 DU         12.5252  -44.1688    9.2307 H         6 CUB7        0.0000 
    143 OG         13.7437  -44.1912    8.3562 O.2       1 SER1        0.0000 
    144 N          18.6177  -44.2808    4.8582 N.2       2 ALA2        0.0000 
    145 OG         19.8362  -44.3032    3.9837 O.2       1 SER1        0.0000 
    146 OG         21.0547  -44.3256    3.1092 O.2       1 SER1        0.0000 
    147 N          22.2733  -44.3480    2.2347 N.2       2 ALA2        0.0000 
    148 OG         11.3270  -45.6447   10.1718 O.2       1 SER1        0.0000 
    149 O          12.5455  -45.6671    9.2973 O.2       2 ALA2        0.0000 
    150 O          13.7640  -45.6895    8.4228 O.2       2 ALA2        0.0000 
    151 OG         14.9825  -45.7120    7.5483 O.2       1 SER1        0.0000 
    152 CZ         10.3916  -41.2155    8.7550 C.ar      4 PHE5        0.0000 
    153 N          11.6101  -41.2379    7.8805 N.2       2 ALA2        0.0000 
    154 CA         18.9212  -41.3724    2.6335 C.3       5 GLY6        0.0000 
    155 CA         20.1397  -41.3948    1.7590 C.3       5 GLY6        0.0000 
    156 OG          9.1934  -42.6915    9.6961 O.2       1 SER1        0.0000 
    157 CZ         10.4119  -42.7139    8.8216 C.ar      4 PHE5        0.0000 
    158 NZ         11.6304  -42.7363    7.9471 N.2       3 LYS4        0.0000 
    159 N          18.9414  -42.8708    2.7002 N.2       2 ALA2        0.0000 
    160 CA         20.1599  -42.8932    1.8257 C.3       5 GLY6        0.0000 
    161 CA          9.2136  -44.1899    9.7628 C.3       5 GLY6        0.0000 
    162 CA         10.4321  -44.2123    8.8883 C.3       5 GLY6        0.0000 
    163 NZ         11.6507  -44.2347    8.0138 N.2       3 LYS4        0.0000 
    164 OG         21.3987  -44.4140    1.0178 O.2       1 SER1        0.0000 
    165 OG         10.4524  -45.7107    8.9549 O.2       1 SER1        0.0000 
    166 CA         11.6709  -45.7331    8.0804 C.3       5 GLY6        0.0000 
    167 OG         12.8894  -45.7555    7.2059 O.2       1 SER1        0.0000 
    168 N          19.2854  -42.9592    0.6088 N.2       2 ALA2        0.0000 
    169 CA         20.5039  -42.9816   -0.2657 C.3       5 GLY6        0.0000 
    170 OG         19.3057  -44.4575    0.6754 O.2       1 SER1        0.0000 
    171 OG         20.5242  -44.4800   -0.1991 O.2       1 SER1        0.0000 
    172 O          21.7427  -44.5024   -1.0736 O.2       2 ALA2        0.0000 
@<TRIPOS>BOND
@<TRIPOS>SUBSTRUCTURE
     1 SER1       45 GROUP   
     2 ALA2        1 GROUP   
     3 LYS4       94 GROUP   
     4 PHE5        8 GROUP   
     5 GLY6       16 GROUP   
     6 CUB7       13 GROUP   
@<TRIPOS>SET

