#    Name: 4j1i_1HH_1_INTS_M
#    Modification time : Tue Mar 25 05:02:25 2014

@<TRIPOS>MOLECULE
4j1i_1HH_1_INTS_M
   63     0     6     0     0
SMALL
NO_CHARGES


@<TRIPOS>ATOM
      1 CA         20.4280  -39.9615    4.0560 C.3       2 GLC5        0.0000 
      2 CA         20.8590  -42.1060    3.9280 C.3       6 GLL5        0.0000 
      3 CA         19.9970  -37.8170    4.1840 C.3       4 GLP5        0.0000 
      4 CA         14.7145  -36.7925    8.7410 C.3       2 GLC5        0.0000 
      5 CA         16.3840  -37.6470    9.3120 C.3       6 GLL5        0.0000 
      6 CA         13.0450  -35.9380    8.1700 C.3       4 GLP5        0.0000 
      7 CA         16.5655  -37.4785   11.1540 C.3       2 GLC5        0.0000 
      8 CA         16.7470  -37.3100   12.9960 C.3       4 GLP5        0.0000 
      9 CA         18.1150  -36.8205    8.4450 C.3       2 GLC5        0.0000 
     10 CA         19.8460  -35.9940    7.5780 C.3       4 GLP5        0.0000 
     11 O          15.0530  -38.8690    6.0615 O.2       1 ALC1        0.0000 
     12 O          15.6050  -39.2720    7.6380 O.2       5 ALL1        0.0000 
     13 O          14.5010  -38.4660    4.4850 O.2       3 ALP1        0.0000 
     14 O          15.4465  -38.2880    6.9130 O.2       1 ALC1        0.0000 
     15 O          15.2880  -37.3040    6.1880 O.2       3 ALP1        0.0000 
     16 CA         18.2630  -38.3405   12.1200 C.3       2 GLC5        0.0000 
     17 CA         18.5410  -38.9040   10.7140 C.3       6 GLL5        0.0000 
     18 CA         17.9850  -37.7770   13.5260 C.3       4 GLP5        0.0000 
     19 CA         19.6335  -37.6580   10.8660 C.3       2 GLC5        0.0000 
     20 CA         20.7260  -36.4120   11.0180 C.3       4 GLP5        0.0000 
     21 CA         16.6755  -41.7545   13.0955 C.3       2 GLC5        0.0000 
     22 CA         16.4480  -42.3040   11.3750 C.3       6 GLL5        0.0000 
     23 CA         16.9030  -41.2050   14.8160 C.3       4 GLP5        0.0000 
     24 CA         13.8410  -37.6100    9.2535 C.3       2 GLC5        0.0000 
     25 CA         14.6370  -39.2820   10.3370 C.3       6 GLL5        0.0000 
     26 O          14.3775  -39.4975    5.3690 O.2       1 ALC1        0.0000 
     27 O          14.2540  -40.5290    6.2530 O.2       5 ALL1        0.0000 
     28 O          14.7710  -38.9165    6.2205 O.2       1 ALC1        0.0000 
     29 O          13.4685  -41.5320    5.7240 O.2       1 ALC1        0.0000 
     30 O          12.6830  -42.5350    5.1950 O.2       3 ALP1        0.0000 
     31 O          18.4840  -41.5530    5.3300 O.2       1 ALC1        0.0000 
     32 O          19.7400  -40.9960    5.7640 O.2       5 ALL1        0.0000 
     33 O          17.2280  -42.1100    4.8960 O.2       3 ALP1        0.0000 
     34 CA         23.1220  -45.0040    1.3395 C.3       2 GLC5        0.0000 
     35 CA         21.6350  -43.7280    2.3320 C.3       6 GLL5        0.0000 
     36 CA         24.6090  -46.2800    0.3470 C.3       4 GLP5        0.0000 
     37 CA         20.3560  -40.2475    1.9540 C.3       2 GLC5        0.0000 
     38 CA         19.6430  -42.3750    1.9700 C.3       6 GLL5        0.0000 
     39 CA         21.0690  -38.1200    1.9380 C.3       4 GLP5        0.0000 
     40 CA         18.0450  -41.5425    2.5545 C.3       2 GLC5        0.0000 
     41 CA         16.4470  -40.7100    3.1390 C.3       4 GLP5        0.0000 
     42 CA         17.9765  -43.4560    2.8285 C.3       2 GLC5        0.0000 
     43 CA         16.3100  -44.5370    3.6870 C.3       4 GLP5        0.0000 
     44 CA         18.8590  -44.5455   -0.9645 C.3       2 GLC5        0.0000 
     45 CA         20.3210  -43.9620    0.2310 C.3       6 GLL5        0.0000 
     46 CA         17.3970  -45.1290   -2.1600 C.3       4 GLP5        0.0000 
     47 CA         19.4163  -39.0242    5.6705 C.3       2 GLC5        0.0000 
     48 CA         19.5010  -40.4240    7.0190 C.3       6 GLL5        0.0000 
     49 CA         21.8190  -41.8648    1.8518 C.3       2 GLC5        0.0000 
     50 CA         22.3120  -41.1270   -0.0500 C.3       4 GLP5        0.0000 
     51 CA         19.2720  -37.5763    8.8430 C.3       2 GLC5        0.0000 
     52 CA         18.8550  -39.4130    9.5020 C.3       6 GLL5        0.0000 
     53 CA         15.4840  -38.7422   11.4776 C.3       2 GLC5        0.0000 
     54 CA         16.4180  -39.1120    8.8390 C.3       6 GLL5        0.0000 
     55 CA         15.5950  -38.0790   13.0810 C.3       4 GLP5        0.0000 
     56 CA         23.5650  -43.0853    2.2058 C.3       2 GLC5        0.0000 
     57 CA         21.7930  -43.0990    3.5790 C.3       6 GLL5        0.0000 
     58 CA         25.4160  -42.7570    1.4560 C.3       4 GLP5        0.0000 
     59 CA         19.3137  -45.3822    1.2408 C.3       2 GLC5        0.0000 
     60 CA         20.5240  -43.3630    1.5220 C.3       6 GLL5        0.0000 
     61 CA         18.2050  -47.1020    1.6050 C.3       4 GLP5        0.0000 
     62 CA         21.3266  -42.2941    0.5199 C.3       2 GLC5        0.0000 
     63 CA         19.4066  -38.0048    7.7237 C.3       2 GLC5        0.0000 
@<TRIPOS>BOND
@<TRIPOS>SUBSTRUCTURE
     1 ALC1       11 GROUP        1 X    ALC  0     ROOT ALC X 1
     2 GLC5        1 GROUP        1 X    GLC  0     **** GLC X 6
     3 ALP1       13 GROUP        1 Y    ALP  0     ROOT ALP Y 8
     4 GLP5        3 GROUP        1 Y    GLP  0     **** GLP Y 13
     5 ALL1       12 GROUP        1 Z    ALL  0     ROOT ALL Z 15
     6 GLL5        2 GROUP        1 Z    GLL  0     **** GLL Z 20
@<TRIPOS>SET

