#    Name: 4j1i_1HH_1_ligand
#    Modification time : Tue Mar 25 05:02:25 2014

@<TRIPOS>MOLECULE
4j1i_1HH_1_ligand
   46    48     1     0     0
SMALL
NO_CHARGES


@<TRIPOS>ATOM
      1 C8         20.5320  -40.3270    8.0100 C.ar      1 1HH504      0.0000 
      2 C3         15.2630  -41.3480    9.6100 C.3       1 1HH504      0.0000 
      3 C5         14.9730  -40.3870    7.4090 C.2       1 1HH504      0.0000 
      4 C9         20.1950  -39.8020    9.2570 C.ar      1 1HH504      0.0000 
      5 C11        18.1700  -40.0390    7.2950 C.ar      1 1HH504      0.0000 
      6 C14        17.8340  -39.5350    8.5300 C.ar      1 1HH504      0.0000 
      7 C7         19.5010  -40.4240    7.0190 C.ar      1 1HH504      0.0000 
      8 C2         15.8000  -39.9460    9.9840 C.3       1 1HH504      0.0000 
      9 C21        20.9170  -41.4560    5.2660 C.2       1 1HH504      0.0000 
     10 C22        20.8590  -42.1060    3.9280 C.ar      1 1HH504      0.0000 
     11 C12        16.3840  -37.6470    9.3120 C.3       1 1HH504      0.0000 
     12 C10        18.8550  -39.4130    9.5020 C.ar      1 1HH504      0.0000 
     13 C1         16.4180  -39.1120    8.8390 C.3       1 1HH504      0.0000 
     14 O4         15.0430  -41.4780    8.1960 O.3       1 1HH504      0.0000 
     15 N6         15.6050  -39.2720    7.6380 N.pl3     1 1HH504      0.0000 
     16 F13        18.5410  -38.9040   10.7140 F         1 1HH504      0.0000 
     17 F15        16.4480  -42.3040   11.3750 F         1 1HH504      0.0000 
     18 F16        15.7250  -43.6610    9.7680 F         1 1HH504      0.0000 
     19 F17        17.4330  -42.4490    9.3430 F         1 1HH504      0.0000 
     20 F18        14.6370  -39.2820   10.3370 F         1 1HH504      0.0000 
     21 N19        14.2540  -40.5290    6.2530 N.pl3     1 1HH504      0.0000 
     22 N20        19.7400  -40.9960    5.7640 N.am      1 1HH504      0.0000 
     23 O23        21.9340  -41.4220    5.9340 O.2       1 1HH504      0.0000 
     24 C24        21.7930  -43.0990    3.5790 C.ar      1 1HH504      0.0000 
     25 C25        21.6350  -43.7280    2.3320 C.ar      1 1HH504      0.0000 
     26 C26        20.5240  -43.3630    1.5220 C.ar      1 1HH504      0.0000 
     27 C27        19.6430  -42.3750    1.9700 C.ar      1 1HH504      0.0000 
     28 N28        19.8450  -41.8330    3.1440 N.ar      1 1HH504      0.0000 
     29 C29        20.3210  -43.9620    0.2310 C.1       1 1HH504      0.0000 
     30 N30        20.1680  -44.4330   -0.7910 N.1       1 1HH504      0.0000 
     31 C31        16.2400  -42.4340   10.0350 C.3       1 1HH504      0.0000 
     32 H          21.4663  -40.6338    7.7943 H         1 1HH504      0.0000 
     33 H          14.3373  -41.5065   10.1559 H         1 1HH504      0.0000 
     34 H          20.8945  -39.6957    9.9877 H         1 1HH504      0.0000 
     35 H          17.4597  -40.1427    6.5567 H         1 1HH504      0.0000 
     36 H          16.4667  -40.0251   10.7894 H         1 1HH504      0.0000 
     37 H          15.5747  -38.4501    7.0043 H         1 1HH504      0.0000 
     38 H          14.2119  -39.7253    5.6595 H         1 1HH504      0.0000 
     39 H          13.8338  -41.4240    6.1033 H         1 1HH504      0.0000 
     40 H          18.8662  -41.0751    5.1196 H         1 1HH504      0.0000 
     41 H          22.5443  -43.3485    4.1984 H         1 1HH504      0.0000 
     42 H          22.2919  -44.4251    2.0109 H         1 1HH504      0.0000 
     43 H          18.8576  -42.1054    1.3540 H         1 1HH504      0.0000 
     44 H          16.9301  -37.5108   10.1385 H         1 1HH504      0.0000 
     45 H          16.7434  -37.0240    8.6173 H         1 1HH504      0.0000 
     46 H          15.4538  -37.3462    9.5224 H         1 1HH504      0.0000 
@<TRIPOS>BOND
     1    4    1 ar   
     2    7    1 ar   
     3   32    1 1    
     4    8    2 1    
     5   14    2 1    
     6   31    2 1    
     7   33    2 1    
     8   14    3 1    
     9   15    3 2    
    10   21    3 1    
    11   12    4 ar   
    12   34    4 1    
    13    6    5 ar   
    14    7    5 ar   
    15   35    5 1    
    16   12    6 ar   
    17   13    6 1    
    18   22    7 1    
    19   13    8 1    
    20   20    8 1    
    21   36    8 1    
    22   10    9 1    
    23   22    9 am   
    24   23    9 2    
    25   24   10 ar   
    26   28   10 ar   
    27   13   11 1    
    28   44   11 1    
    29   45   11 1    
    30   46   11 1    
    31   16   12 1    
    32   15   13 1    
    33   37   15 1    
    34   31   17 1    
    35   31   18 1    
    36   31   19 1    
    37   38   21 1    
    38   39   21 1    
    39   40   22 1    
    40   25   24 ar   
    41   41   24 1    
    42   26   25 ar   
    43   42   25 1    
    44   27   26 ar   
    45   29   26 1    
    46   28   27 ar   
    47   43   27 1    
    48   30   29 3    
@<TRIPOS>SUBSTRUCTURE
     1 1HH504      1 GROUP   
@<TRIPOS>SET

