#    Name: 3cd5_7HI_1_INTS_M
#    Modification time : Mon Mar 24 20:46:51 2014

@<TRIPOS>MOLECULE
3cd5_7HI_1_INTS_M
  102     0    12     0     0
SMALL
NO_CHARGES


@<TRIPOS>ATOM
      1 CA         13.1160    2.5735   48.6905 C.3       4 GLC5        0.0000 
      2 CA         13.8900    3.2290   46.7850 C.3      12 GLL5        0.0000 
      3 CA         12.3420    1.9180   50.5960 C.3       8 GLP5        0.0000 
      4 CA         13.3685    6.6185   47.5510 C.3       4 GLC5        0.0000 
      5 CA         14.3900    5.5980   45.9650 C.3      12 GLL5        0.0000 
      6 CA         12.3470    7.6390   49.1370 C.3       8 GLP5        0.0000 
      7 CA         15.0525   10.0560   47.0360 C.3       4 GLC5        0.0000 
      8 CA         15.2240    9.0900   45.1170 C.3      12 GLL5        0.0000 
      9 CA         14.8810   11.0220   48.9550 C.3       8 GLP5        0.0000 
     10 CA         15.3635   11.3025   45.0710 C.3       4 GLC5        0.0000 
     11 CA         15.5030   13.5150   45.0250 C.3       8 GLP5        0.0000 
     12 CA         11.8505    7.7760   45.9580 C.3       4 GLC5        0.0000 
     13 CA         12.9440    7.0450   44.5330 C.3      12 GLL5        0.0000 
     14 CA         10.7570    8.5070   47.3830 C.3       8 GLP5        0.0000 
     15 CA         15.1395    5.8680   43.2880 C.3       4 GLC5        0.0000 
     16 CA         13.2580    6.5620   43.1140 C.3      12 GLL5        0.0000 
     17 CA         17.0210    5.1740   43.4620 C.3       8 GLP5        0.0000 
     18 CA         13.9195    7.0955   39.4985 C.3       4 GLC5        0.0000 
     19 CA         12.5090    6.3030   40.7300 C.3      12 GLL5        0.0000 
     20 CA         15.3300    7.8880   38.2670 C.3       8 GLP5        0.0000 
     21 CA         11.2805    7.4925   39.3825 C.3       4 GLC5        0.0000 
     22 CA         10.0520    8.6820   38.0350 C.3       8 GLP5        0.0000 
     23 CA         15.8510   11.1720   42.9315 C.3       4 GLC5        0.0000 
     24 CA         16.0580    9.2280   43.8610 C.3      12 GLL5        0.0000 
     25 CA         15.6440   13.1160   42.0020 C.3       8 GLP5        0.0000 
     26 CA         17.6775   10.1295   44.8225 C.3       4 GLC5        0.0000 
     27 CA         19.2970   11.0310   45.7840 C.3       8 GLP5        0.0000 
     28 CA         16.5395    7.2010   43.6615 C.3       4 GLC5        0.0000 
     29 CA         20.0270    6.1040   47.8265 C.3       4 GLC5        0.0000 
     30 CA         19.8810    8.0990   48.4850 C.3      12 GLL5        0.0000 
     31 CA         20.1730    4.1090   47.1680 C.3       8 GLP5        0.0000 
     32 CA         23.0240    9.3270   49.0040 C.3       4 GLC5        0.0000 
     33 CA         20.8860    8.8230   49.1320 C.3      12 GLL5        0.0000 
     34 CA         25.1620    9.8310   48.8760 C.3       8 GLP5        0.0000 
     35 CA         16.5520   10.1080   49.3965 C.3       4 GLC5        0.0000 
     36 CA         18.2230    9.1940   49.8380 C.3      12 GLL5        0.0000 
     37 N          18.9470    9.0270   45.6310 N.am      2 SEC2        0.0000 
     38 N          18.0330    8.1570   46.1220 N.am     10 SEL2        0.0000 
     39 N          19.8610    9.8970   45.1400 N.am      6 SEP2        0.0000 
     40 CA         13.7360    7.6470   47.3670 C.3       4 GLC5        0.0000 
     41 CA         15.1250    7.6550   45.5970 C.3      12 GLL5        0.0000 
     42 CA         14.5290    0.8690   45.7565 C.3       4 GLC5        0.0000 
     43 CA         15.2480    2.6960   46.4000 C.3      12 GLL5        0.0000 
     44 CA         13.8100   -0.9580   45.1130 C.3       8 GLP5        0.0000 
     45 N          12.6025    9.1105   41.1855 N.am      2 SEC2        0.0000 
     46 N          11.8610    8.1820   42.0210 N.am     10 SEL2        0.0000 
     47 N          13.3440   10.0390   40.3500 N.am      6 SEP2        0.0000 
     48 N          10.7600    8.8150   41.1975 N.am      2 SEC2        0.0000 
     49 N           9.6590    9.4480   40.3740 N.am      6 SEP2        0.0000 
     50 O          11.1340    8.8570   42.9855 O.2       1 ALC1        0.0000 
     51 O          11.8610    8.1820   42.0210 O.2       9 ALL1        0.0000 
     52 O          10.4070    9.5320   43.9500 O.2       5 ALP1        0.0000 
     53 N          11.1960    2.7935   41.0130 N.am      2 SEC2        0.0000 
     54 N          11.3650    4.1980   40.8150 N.am     10 SEL2        0.0000 
     55 N          11.0270    1.3890   41.2110 N.am      6 SEP2        0.0000 
     56 O          10.1445    4.6510   40.2935 O.2       1 ALC1        0.0000 
     57 O          11.3650    4.1980   40.8150 O.2       9 ALL1        0.0000 
     58 O           8.9240    5.1040   39.7720 O.2       5 ALP1        0.0000 
     59 CA         14.2070    6.1615   38.7290 C.3       4 GLC5        0.0000 
     60 CA         13.0840    4.4350   39.1910 C.3      12 GLL5        0.0000 
     61 CA         11.1095    3.9185   38.6210 C.3       4 GLC5        0.0000 
     62 CA          9.1350    3.4020   38.0510 C.3       8 GLP5        0.0000 
     63 NZ         14.4885    1.2955   38.7290 N.4       3 LYC4        0.0000 
     64 NZ         12.9530    2.1020   38.8010 N.4      11 LYL4        0.0000 
     65 NZ         16.0240    0.4890   38.6570 N.4       7 LYP4        0.0000 
     66 NZ         13.3310    2.5215   37.3460 N.4       3 LYC4        0.0000 
     67 NZ         13.7090    2.9410   35.8910 N.4       7 LYP4        0.0000 
     68 N          12.9105    0.8280   39.0785 N.am      2 SEC2        0.0000 
     69 N          12.9530    2.1020   38.8010 N.am     10 SEL2        0.0000 
     70 N          12.8680   -0.4460   39.3560 N.am      6 SEP2        0.0000 
     71 NZ         15.4580    1.6545   39.1325 N.4       3 LYC4        0.0000 
     72 NZ         14.8920    2.8200   39.6080 N.4      11 LYL4        0.0000 
     73 NZ         14.3005    2.8805   37.7495 N.4       3 LYC4        0.0000 
     74 N          15.4580    1.6545   39.1325 N.am      2 SEC2        0.0000 
     75 N          14.8920    2.8200   39.6080 N.am     10 SEL2        0.0000 
     76 N          16.0240    0.4890   38.6570 N.am      6 SEP2        0.0000 
     77 CA         15.4768    5.0838   44.6933 C.3       4 GLC5        0.0000 
     78 CA         13.4750    4.3890   45.8840 C.3      12 GLL5        0.0000 
     79 CA         23.6460   10.0110   50.0322 C.3       4 GLC5        0.0000 
     80 CA         21.6210   10.5220   50.8440 C.3      12 GLL5        0.0000 
     81 CA         19.2538    9.6108   47.2212 C.3       4 GLC5        0.0000 
     82 CA         20.5505   10.6322   47.9778 C.3       4 GLC5        0.0000 
     83 CA         20.3760   11.9820   46.3240 C.3       8 GLP5        0.0000 
     84 CA         24.3847   10.5575   50.5385 C.3       4 GLC5        0.0000 
     85 CA         23.6230   10.5870   52.2040 C.3      12 GLL5        0.0000 
     86 CA         20.6067   13.4485   50.4657 C.3       4 GLC5        0.0000 
     87 CA         22.5730   12.6470   51.5220 C.3      12 GLL5        0.0000 
     88 CA         19.1320   14.6150   49.7460 C.3       8 GLP5        0.0000 
     89 CA         16.3017    6.2490   44.7308 C.3       4 GLC5        0.0000 
     90 CA         16.0400    6.9930   46.4020 C.3      12 GLL5        0.0000 
     91 CA         16.4135    4.0973   45.0127 C.3       4 GLC5        0.0000 
     92 CA         16.3640    3.3450   46.7270 C.3      12 GLL5        0.0000 
     93 CA         16.2820    1.7503   45.2167 C.3       4 GLC5        0.0000 
     94 CA         16.7580    0.4800   43.8700 C.3       8 GLP5        0.0000 
     95 CA         18.2575    4.0540   47.1333 C.3       4 GLC5        0.0000 
     96 CA         17.2090    2.7175   48.4972 C.3       4 GLC5        0.0000 
     97 CA         16.3200    4.6530   47.4700 C.3      12 GLL5        0.0000 
     98 CA         18.0760    1.4360   49.8960 C.3       8 GLP5        0.0000 
     99 CA         16.4922    5.1758   45.2590 C.3       4 GLC5        0.0000 
    100 CA         14.7646    5.2564   40.4685 C.3       4 GLC5        0.0000 
    101 CA         12.6280    4.7900   40.5960 C.3      12 GLL5        0.0000 
    102 CA         16.7030    5.5220   41.0100 C.3       8 GLP5        0.0000 
@<TRIPOS>BOND
@<TRIPOS>SUBSTRUCTURE
     1 ALC1       50 GROUP        1 X    ALC  0     ROOT ALC X 1
     2 SEC2       37 GROUP        1 X    SEC  0     **** SEC X 2
     3 LYC4       63 GROUP        1 X    LYC  0     **** LYC X 4
     4 GLC5        1 GROUP        1 X    GLC  0     **** GLC X 6
     5 ALP1       52 GROUP        1 Y    ALP  0     ROOT ALP Y 8
     6 SEP2       39 GROUP        1 Y    SEP  0     **** SEP Y 9
     7 LYP4       65 GROUP        1 Y    LYP  0     **** LYP Y 11
     8 GLP5        3 GROUP        1 Y    GLP  0     **** GLP Y 13
     9 ALL1       51 GROUP        1 Z    ALL  0     ROOT ALL Z 15
    10 SEL2       38 GROUP        1 Z    SEL  0     **** SEL Z 16
    11 LYL4       64 GROUP        1 Z    LYL  0     **** LYL Z 18
    12 GLL5        2 GROUP        1 Z    GLL  0     **** GLL Z 20
@<TRIPOS>SET

