#    Name: 3cd5_7HI_1_ligand
#    Modification time : Mon Mar 24 20:46:51 2014

@<TRIPOS>MOLECULE
3cd5_7HI_1_ligand
   75    78     1     0     0
SMALL
NO_CHARGES


@<TRIPOS>ATOM
      1 N1         14.1290    6.7820   45.3590 N.pl3     1 7HI2        0.0000 
      2 C4         13.8900    3.2290   46.7850 C.3       1 7HI2        0.0000 
      3 C5         14.3900    5.5980   45.9650 C.2       1 7HI2        0.0000 
      4 C6         15.2240    9.0900   45.1170 C.3       1 7HI2        0.0000 
      5 C7         12.9440    7.0450   44.5330 C.3       1 7HI2        0.0000 
      6 C8         13.2580    6.5620   43.1140 C.3       1 7HI2        0.0000 
      7 C10        12.5090    6.3030   40.7300 C.3       1 7HI2        0.0000 
      8 C13        16.0580    9.2280   43.8610 C.3       1 7HI2        0.0000 
      9 C15        22.6390    9.8600   51.5330 C.ar      1 7HI2        0.0000 
     10 C17        19.8810    8.0990   48.4850 C.ar      1 7HI2        0.0000 
     11 C20        20.8860    8.8230   49.1320 C.ar      1 7HI2        0.0000 
     12 C21        23.5920   11.9810   52.1980 C.ar      1 7HI2        0.0000 
     13 C22        21.6210   10.5220   50.8440 C.ar      1 7HI2        0.0000 
     14 C24        22.5730   12.6470   51.5220 C.ar      1 7HI2        0.0000 
     15 C26        18.2230    9.1940   49.8380 C.ar      1 7HI2        0.0000 
     16 O2         18.0330    8.1570   46.1220 O.2       1 7HI2        0.0000 
     17 C3         17.3130    7.5790   46.9200 C.2       1 7HI2        0.0000 
     18 N2         17.5250    7.5920   48.2400 N.am      1 7HI2        0.0000 
     19 C32        18.5400    8.2820   48.8320 C.ar      1 7HI2        0.0000 
     20 C23        19.2270    9.9190   50.4810 C.ar      1 7HI2        0.0000 
     21 C29        20.5640    9.7420   50.1310 C.ar      1 7HI2        0.0000 
     22 C18        21.5900   11.9170   50.8490 C.ar      1 7HI2        0.0000 
     23 C16        23.6230   10.5870   52.2040 C.ar      1 7HI2        0.0000 
     24 C2         16.0400    6.9930   46.4020 C.2       1 7HI2        0.0000 
     25 C12        15.1250    7.6550   45.5970 C.2       1 7HI2        0.0000 
     26 C27        13.4750    4.3890   45.8840 C.3       1 7HI2        0.0000 
     27 C25        15.2480    2.6960   46.4000 C.3       1 7HI2        0.0000 
     28 C19        16.3640    3.3450   46.7270 C.3       1 7HI2        0.0000 
     29 C14        16.3200    4.6530   47.4700 C.3       1 7HI2        0.0000 
     30 C1         15.6070    5.7020   46.6420 C.2       1 7HI2        0.0000 
     31 C9         12.1220    6.7900   42.1210 C.3       1 7HI2        0.0000 
     32 O4         11.8610    8.1820   42.0210 O.3       1 7HI2        0.0000 
     33 C11        12.6280    4.7900   40.5960 C.3       1 7HI2        0.0000 
     34 O3         11.3650    4.1980   40.8150 O.3       1 7HI2        0.0000 
     35 C35        13.0840    4.4350   39.1910 C.3       1 7HI2        0.0000 
     36 C36        13.6440    3.0340   39.1850 C.2       1 7HI2        0.0000 
     37 O7         12.9530    2.1020   38.8010 O.co2     1 7HI2        0.0000 
     38 O6         14.8920    2.8200   39.6080 O.co2     1 7HI2        0.0000 
     39 H          13.1461    2.4326   46.7035 H         1 7HI2        0.0000 
     40 H          13.9113    3.5747   47.8215 H         1 7HI2        0.0000 
     41 H          14.2128    9.4756   44.9240 H         1 7HI2        0.0000 
     42 H          15.6647    9.7064   45.9134 H         1 7HI2        0.0000 
     43 H          12.7231    8.1027   44.4949 H         1 7HI2        0.0000 
     44 H          12.0853    6.4997   44.8994 H         1 7HI2        0.0000 
     45 H          13.4946    5.4869   43.1487 H         1 7HI2        0.0000 
     46 H          14.1600    7.0809   42.7534 H         1 7HI2        0.0000 
     47 H          13.4735    6.7643   40.4451 H         1 7HI2        0.0000 
     48 H          11.7605    6.6688   40.0019 H         1 7HI2        0.0000 
     49 H          22.6634    8.8317   51.5458 H         1 7HI2        0.0000 
     50 H          20.1306    7.4258   47.7472 H         1 7HI2        0.0000 
     51 H          21.8705    8.6765   48.8689 H         1 7HI2        0.0000 
     52 H          24.3177   12.5132   52.6901 H         1 7HI2        0.0000 
     53 H          22.5422   13.6728   51.5168 H         1 7HI2        0.0000 
     54 H          17.2384    9.3342   50.1094 H         1 7HI2        0.0000 
     55 H          16.8710    7.0363   48.8722 H         1 7HI2        0.0000 
     56 H          18.9764   10.5913   51.2214 H         1 7HI2        0.0000 
     57 H          20.8362   12.4137   50.3524 H         1 7HI2        0.0000 
     58 H          24.3732   10.0928   52.7044 H         1 7HI2        0.0000 
     59 H          12.4475    4.6953   46.1494 H         1 7HI2        0.0000 
     60 H          13.4393    4.0324   44.8392 H         1 7HI2        0.0000 
     61 H          15.1822    2.5010   45.2574 H         1 7HI2        0.0000 
     62 H          15.2602    1.5993   46.7808 H         1 7HI2        0.0000 
     63 H          17.0314    3.5468   45.7980 H         1 7HI2        0.0000 
     64 H          17.0879    2.6735   47.3388 H         1 7HI2        0.0000 
     65 H          17.3353    4.9897   47.6804 H         1 7HI2        0.0000 
     66 H          15.7924    4.5206   48.4148 H         1 7HI2        0.0000 
     67 H          11.2594    6.2501   42.4451 H         1 7HI2        0.0000 
     68 H          13.3619    4.4400   41.2913 H         1 7HI2        0.0000 
     69 H          13.8493    5.1369   38.8739 H         1 7HI2        0.0000 
     70 H          12.2378    4.4943   38.5132 H         1 7HI2        0.0000 
     71 H          16.9959    8.9106   44.0012 H         1 7HI2        0.0000 
     72 H          15.6790    8.6968   43.1033 H         1 7HI2        0.0000 
     73 H          16.1129   10.1782   43.5542 H         1 7HI2        0.0000 
     74 H          11.7569    8.4942   42.9653 H         1 7HI2        0.0000 
     75 H          10.7195    4.7716   40.3107 H         1 7HI2        0.0000 
@<TRIPOS>BOND
     1    3    1 1    
     2    5    1 1    
     3   25    1 1    
     4   26    2 1    
     5   27    2 1    
     6   39    2 1    
     7   40    2 1    
     8   26    3 1    
     9   30    3 2    
    10    8    4 1    
    11   25    4 1    
    12   41    4 1    
    13   42    4 1    
    14    6    5 1    
    15   43    5 1    
    16   44    5 1    
    17   31    6 1    
    18   45    6 1    
    19   46    6 1    
    20   31    7 1    
    21   33    7 1    
    22   47    7 1    
    23   48    7 1    
    24   71    8 1    
    25   72    8 1    
    26   73    8 1    
    27   13    9 ar   
    28   23    9 ar   
    29   49    9 1    
    30   11   10 ar   
    31   19   10 ar   
    32   50   10 1    
    33   21   11 ar   
    34   51   11 1    
    35   14   12 ar   
    36   23   12 ar   
    37   52   12 1    
    38   21   13 1    
    39   22   13 ar   
    40   22   14 ar   
    41   53   14 1    
    42   19   15 ar   
    43   20   15 ar   
    44   54   15 1    
    45   17   16 2    
    46   18   17 am   
    47   24   17 1    
    48   19   18 1    
    49   55   18 1    
    50   21   20 ar   
    51   56   20 1    
    52   57   22 1    
    53   58   23 1    
    54   25   24 2    
    55   30   24 1    
    56   59   26 1    
    57   60   26 1    
    58   28   27 1    
    59   61   27 1    
    60   62   27 1    
    61   29   28 1    
    62   63   28 1    
    63   64   28 1    
    64   30   29 1    
    65   65   29 1    
    66   66   29 1    
    67   32   31 1    
    68   67   31 1    
    69   74   32 1    
    70   34   33 1    
    71   35   33 1    
    72   68   33 1    
    73   75   34 1    
    74   36   35 1    
    75   69   35 1    
    76   70   35 1    
    77   37   36 ar   
    78   38   36 ar   
@<TRIPOS>SUBSTRUCTURE
     1 7HI2        1 GROUP   
@<TRIPOS>SET

