#    Name: 2y88_2ER_1_INTS_M
#    Modification time : Tue Mar 25 07:47:17 2014

@<TRIPOS>MOLECULE
2y88_2ER_1_INTS_M
  102     0    12     0     0
SMALL
NO_CHARGES


@<TRIPOS>ATOM
      1 CA         45.0630    8.5750   -1.0165 C.3       4 GLC5        0.0000 
      2 CA         42.9400    9.1240   -0.5980 C.3      12 GLL5        0.0000 
      3 CA         47.1860    8.0260   -1.4350 C.3       8 GLP5        0.0000 
      4 O          43.3710    9.5075   -4.4480 O.2       1 ALC1        0.0000 
      5 O          43.4810    9.2690   -2.9100 O.2       9 ALL1        0.0000 
      6 O          43.2610    9.7460   -5.9860 O.2       5 ALP1        0.0000 
      7 O          44.7100    8.4755   -3.1595 O.2       1 ALC1        0.0000 
      8 O          45.9390    7.6820   -3.4090 O.2       5 ALP1        0.0000 
      9 N          47.0415    6.0415    7.2155 N.am      2 SEC2        0.0000 
     10 N          47.7350    7.2540    6.7330 N.am     10 SEL2        0.0000 
     11 N          46.3480    4.8290    7.6980 N.am      6 SEP2        0.0000 
     12 N          33.0525    9.0075   -3.2155 N.am      2 SEC2        0.0000 
     13 N          32.2120    9.0540   -2.1290 N.am     10 SEL2        0.0000 
     14 N          33.8930    8.9610   -4.3020 N.am      6 SEP2        0.0000 
     15 N          31.6375    7.7690   -2.0030 N.am      2 SEC2        0.0000 
     16 N          31.0630    6.4840   -1.8770 N.am      6 SEP2        0.0000 
     17 CA         42.4520   10.6485    3.5340 C.3       4 GLC5        0.0000 
     18 CA         42.7150    8.7630    2.9600 C.3      12 GLL5        0.0000 
     19 CA         42.1890   12.5340    4.1080 C.3       8 GLP5        0.0000 
     20 O          41.6325    5.8115    2.9085 O.2       1 ALC1        0.0000 
     21 O          41.3230    6.9840    3.3350 O.2       9 ALL1        0.0000 
     22 O          41.9420    4.6390    2.4820 O.2       5 ALP1        0.0000 
     23 N          42.0920    9.5025    6.4810 N.am      2 SEC2        0.0000 
     24 N          41.9030    8.3600    5.6680 N.am     10 SEL2        0.0000 
     25 N          42.2810   10.6450    7.2940 N.am      6 SEP2        0.0000 
     26 O          36.4460   12.9175    1.0055 O.2       1 ALC1        0.0000 
     27 O          35.6270   11.9800    1.1320 O.2       9 ALL1        0.0000 
     28 O          37.2650   13.8550    0.8790 O.2       5 ALP1        0.0000 
     29 CA         43.1525   10.6105    4.4920 C.3       4 GLC5        0.0000 
     30 CA         44.1160    8.6870    4.8760 C.3      12 GLL5        0.0000 
     31 CA         45.4250    9.7935    3.4380 C.3       4 GLC5        0.0000 
     32 CA         46.7340   10.9000    2.0000 C.3       8 GLP5        0.0000 
     33 N          35.2300    7.6450    2.6220 N.am      2 SEC2        0.0000 
     34 N          35.2430    8.3760    1.5790 N.am     10 SEL2        0.0000 
     35 N          35.2170    6.9140    3.6650 N.am      6 SEP2        0.0000 
     36 O          35.5520    7.9065    0.4105 O.2       1 ALC1        0.0000 
     37 O          35.2430    8.3760    1.5790 O.2       9 ALL1        0.0000 
     38 O          35.8610    7.4370   -0.7580 O.2       5 ALP1        0.0000 
     39 CA         45.7730    5.8895    5.7600 C.3       4 GLC5        0.0000 
     40 CA         45.3480    7.7410    5.0380 C.3      12 GLL5        0.0000 
     41 CA         46.1980    4.0380    6.4820 C.3       8 GLP5        0.0000 
     42 CA         33.1170    8.1990    0.5785 C.3       4 GLC5        0.0000 
     43 CA         33.5620   10.0810    1.2040 C.3      12 GLL5        0.0000 
     44 CA         32.6720    6.3170   -0.0470 C.3       8 GLP5        0.0000 
     45 CA         31.6710   10.6380    2.2110 C.3       4 GLC5        0.0000 
     46 CA         29.7800   11.1950    3.2180 C.3       8 GLP5        0.0000 
     47 CA         32.6210   11.8220    1.0585 C.3       4 GLC5        0.0000 
     48 CA         31.6800   13.5630    0.9130 C.3       8 GLP5        0.0000 
     49 NZ         49.8765    8.7745    4.1765 N.4       3 LYC4        0.0000 
     50 NZ         48.9050    8.9550    5.1770 N.4      11 LYL4        0.0000 
     51 NZ         51.8690    8.2670    3.9130 N.4       7 LYP4        0.0000 
     52 N          48.8550   10.0565    5.8625 N.am      2 SEC2        0.0000 
     53 N          48.9050    8.9550    5.1770 N.am     10 SEL2        0.0000 
     54 N          48.8050   11.1580    6.5480 N.am      6 SEP2        0.0000 
     55 N          50.2850    8.5115    5.1875 N.am      2 SEC2        0.0000 
     56 N          51.6650    8.0680    5.1980 N.am      6 SEP2        0.0000 
     57 N          49.8765    8.7745    4.1765 N.am      2 SEC2        0.0000 
     58 N          50.8480    8.5940    3.1760 N.am      6 SEP2        0.0000 
     59 NZ         33.8015   12.3720   -1.6870 N.4       3 LYC4        0.0000 
     60 NZ         32.7610   11.5080   -1.7610 N.4      11 LYL4        0.0000 
     61 NZ         35.8450   12.4430   -1.9250 N.4       7 LYP4        0.0000 
     62 N          33.8015   12.3720   -1.6870 N.am      2 SEC2        0.0000 
     63 N          32.7610   11.5080   -1.7610 N.am     10 SEL2        0.0000 
     64 N          34.8420   13.2360   -1.6130 N.am      6 SEP2        0.0000 
     65 N          34.1805   11.3415   -2.0485 N.am      2 SEC2        0.0000 
     66 N          35.6000   11.1750   -2.3360 N.am      6 SEP2        0.0000 
     67 N          31.9180   12.5600   -1.5915 N.am      2 SEC2        0.0000 
     68 N          31.0750   13.6120   -1.4220 N.am      6 SEP2        0.0000 
     69 N          48.1320    5.3255    4.9120 N.am      2 SEC2        0.0000 
     70 N          47.9380    6.6140    4.3830 N.am     10 SEL2        0.0000 
     71 N          48.3260    4.0370    5.4410 N.am      6 SEP2        0.0000 
     72 N          48.8845    5.9085    3.8250 N.am      2 SEC2        0.0000 
     73 N          49.8310    5.2030    3.2670 N.am      6 SEP2        0.0000 
     74 N          31.0820   11.3540    0.6445 N.am      2 SEC2        0.0000 
     75 N          31.1810   10.2640   -0.2160 N.am     10 SEL2        0.0000 
     76 N          30.9830   12.4440    1.5050 N.am      6 SEP2        0.0000 
     77 CA         41.5375   11.0365    0.0150 C.3       4 GLC5        0.0000 
     78 CA         40.0240    9.4720   -0.0720 C.3      12 GLL5        0.0000 
     79 CA         43.0510   12.6010    0.1020 C.3       8 GLP5        0.0000 
     80 CA         39.9475    8.0350   -0.8550 C.3       4 GLC5        0.0000 
     81 CA         39.8710    6.5980   -1.6380 C.3       8 GLP5        0.0000 
     82 O          37.8505    9.3845   -0.9510 O.2       1 ALC1        0.0000 
     83 O          38.7350    9.9950    0.1770 O.2       9 ALL1        0.0000 
     84 O          36.9660    8.7740   -2.0790 O.2       5 ALP1        0.0000 
     85 CA         39.2830   11.6215    3.3050 C.3       4 GLC5        0.0000 
     86 CA         38.5780   10.8310    1.3630 C.3      12 GLL5        0.0000 
     87 CA         39.9880   12.4120    5.2470 C.3       8 GLP5        0.0000 
     88 N          37.7450   12.6030    2.9925 N.am      2 SEC2        0.0000 
     89 N          37.1800   11.4760    3.1930 N.am     10 SEL2        0.0000 
     90 N          38.3100   13.7300    2.7920 N.am      6 SEP2        0.0000 
     91 CA         42.8347   10.8870    0.0490 C.3       4 GLC5        0.0000 
     92 CA         42.2970    9.2220    0.5900 C.3      12 GLL5        0.0000 
     93 CA         43.3242    9.1855    6.6267 C.3       4 GLC5        0.0000 
     94 CA         42.9710    7.7250    4.9750 C.3      12 GLL5        0.0000 
     95 CA         43.1050   10.1650    8.3280 C.3       8 GLP5        0.0000 
     96 CA         45.6250    9.9500    5.6870 C.3       4 GLC5        0.0000 
     97 CA         46.5180   11.6860    6.4170 C.3       8 GLP5        0.0000 
     98 CA         33.8990   10.0217    3.3327 C.3       4 GLC5        0.0000 
     99 CA         34.9060    9.7640    1.8490 C.3      12 GLL5        0.0000 
    100 CA         33.5640   10.1210    5.1390 C.3       8 GLP5        0.0000 
    101 CA         34.4910   11.8468    2.5722 C.3       4 GLC5        0.0000 
    102 CA         34.4780   13.5570    3.7830 C.3       8 GLP5        0.0000 
@<TRIPOS>BOND
@<TRIPOS>SUBSTRUCTURE
     1 ALC1        4 GROUP        1 X    ALC  0     ROOT ALC X 1
     2 SEC2        9 GROUP        1 X    SEC  0     **** SEC X 2
     3 LYC4       49 GROUP        1 X    LYC  0     **** LYC X 4
     4 GLC5        1 GROUP        1 X    GLC  0     **** GLC X 6
     5 ALP1        6 GROUP        1 Y    ALP  0     ROOT ALP Y 8
     6 SEP2       11 GROUP        1 Y    SEP  0     **** SEP Y 9
     7 LYP4       51 GROUP        1 Y    LYP  0     **** LYP Y 11
     8 GLP5        3 GROUP        1 Y    GLP  0     **** GLP Y 13
     9 ALL1        5 GROUP        1 Z    ALL  0     ROOT ALL Z 15
    10 SEL2       10 GROUP        1 Z    SEL  0     **** SEL Z 16
    11 LYL4       50 GROUP        1 Z    LYL  0     **** LYL Z 18
    12 GLL5        2 GROUP        1 Z    GLL  0     **** GLL Z 20
@<TRIPOS>SET

