#    Name: 2y88_2ER_1_ligand
#    Modification time : Tue Mar 25 07:47:17 2014

@<TRIPOS>MOLECULE
2y88_2ER_1_ligand
   59    60     1     0     0
SMALL
NO_CHARGES


@<TRIPOS>ATOM
      1 N1         43.1170    8.7550    1.5550 N.pl3     1 2ER1246     0.0000 
      2 C2         44.2090    8.3490    0.9350 C.2       1 2ER1246     0.0000 
      3 N3         44.1340    8.5830   -0.3770 N.2       1 2ER1246     0.0000 
      4 C4         42.9400    9.1240   -0.5980 C.2       1 2ER1246     0.0000 
      5 C5         42.2970    9.2220    0.5900 C.2       1 2ER1246     0.0000 
      6 N6         41.0740    9.7140    0.9300 N.pl3     1 2ER1246     0.0000 
      7 C9         42.5430    9.5370   -1.9560 C.2       1 2ER1246     0.0000 
      8 N9         43.4810    9.2690   -2.9100 N.am      1 2ER1246     0.0000 
      9 O9         41.5350   10.2370   -2.1990 O.2       1 2ER1246     0.0000 
     10 O'1        47.7350    7.2540    6.7330 O.co2     1 2ER1246     0.0000 
     11 O'L        32.2120    9.0540   -2.1290 O.co2     1 2ER1246     0.0000 
     12 C1'        42.7150    8.7630    2.9600 C.3       1 2ER1246     0.0000 
     13 C2'        42.6520    7.4520    3.4960 C.3       1 2ER1246     0.0000 
     14 O2'        41.3230    6.9840    3.3350 O.3       1 2ER1246     0.0000 
     15 C3''       35.9860   10.6200    1.1890 C.3       1 2ER1246     0.0000 
     16 C3'        42.9710    7.7250    4.9750 C.3       1 2ER1246     0.0000 
     17 O3'        41.9030    8.3600    5.6680 O.3       1 2ER1246     0.0000 
     18 O3B        35.6270   11.9800    1.1320 O.3       1 2ER1246     0.0000 
     19 C4'        44.1160    8.6870    4.8760 C.3       1 2ER1246     0.0000 
     20 O4'        43.9780    9.2640    3.5830 O.3       1 2ER1246     0.0000 
     21 C4B        34.9060    9.7640    1.8490 C.3       1 2ER1246     0.0000 
     22 O4B        35.2430    8.3760    1.5790 O.3       1 2ER1246     0.0000 
     23 C5'        45.3480    7.7410    5.0380 C.3       1 2ER1246     0.0000 
     24 C5B        33.5620   10.0810    1.2040 C.3       1 2ER1246     0.0000 
     25 O6'        46.4730    8.5300    5.0580 O.3       1 2ER1246     0.0000 
     26 O6B        33.5860    9.6620   -0.2380 O.3       1 2ER1246     0.0000 
     27 P7'        47.8780    7.8150    5.3570 P.3       1 2ER1246     0.0000 
     28 P7B        32.3580   10.1830   -1.1450 P.3       1 2ER1246     0.0000 
     29 O8'        48.9050    8.9550    5.1770 O.co2     1 2ER1246     0.0000 
     30 O8B        32.7610   11.5080   -1.7610 O.co2     1 2ER1246     0.0000 
     31 O9'        47.9380    6.6140    4.3830 O.co2     1 2ER1246     0.0000 
     32 O9B        31.1810   10.2640   -0.2160 O.co2     1 2ER1246     0.0000 
     33 C7         40.0240    9.4720   -0.0720 C.2       1 2ER1246     0.0000 
     34 N8         38.7350    9.9950    0.1770 N.pl3     1 2ER1246     0.0000 
     35 C1B        38.5780   10.8310    1.3630 C.3       1 2ER1246     0.0000 
     36 C2''       37.1850   10.9370    2.0770 C.2       1 2ER1246     0.0000 
     37 O2B        37.1800   11.4760    3.1930 O.2       1 2ER1246     0.0000 
     38 H          44.9881    7.9246    1.3784 H         1 2ER1246     0.0000 
     39 H          40.8552   10.1951    1.7564 H         1 2ER1246     0.0000 
     40 H          43.2233    9.4819   -3.8525 H         1 2ER1246     0.0000 
     41 H          44.3436    8.8833   -2.5828 H         1 2ER1246     0.0000 
     42 H          41.9544    9.3760    3.1734 H         1 2ER1246     0.0000 
     43 H          43.3868    6.8358    3.1027 H         1 2ER1246     0.0000 
     44 H          36.3230   10.2712    0.2860 H         1 2ER1246     0.0000 
     45 H          43.3138    6.8349    5.4158 H         1 2ER1246     0.0000 
     46 H          44.0739    9.3473    5.6692 H         1 2ER1246     0.0000 
     47 H          34.8736    9.9699    2.8772 H         1 2ER1246     0.0000 
     48 H          45.3114    7.0452    4.1983 H         1 2ER1246     0.0000 
     49 H          45.1844    7.1816    5.9605 H         1 2ER1246     0.0000 
     50 H          33.3766   11.1492    1.2768 H         1 2ER1246     0.0000 
     51 H          32.7791    9.5445    1.7331 H         1 2ER1246     0.0000 
     52 H          40.2424    8.9511   -0.8938 H         1 2ER1246     0.0000 
     53 H          37.9591    9.8152   -0.4133 H         1 2ER1246     0.0000 
     54 H          38.8957   11.8969    1.1361 H         1 2ER1246     0.0000 
     55 H          39.3179   10.5171    2.1646 H         1 2ER1246     0.0000 
     56 H          41.3827    6.2708    2.6365 H         1 2ER1246     0.0000 
     57 H          41.0711    7.9572    5.2862 H         1 2ER1246     0.0000 
     58 H          36.3441   12.4142    0.5869 H         1 2ER1246     0.0000 
     59 H          35.4020    8.3356    0.5925 H         1 2ER1246     0.0000 
@<TRIPOS>BOND
     1    2    1 1    
     2    5    1 1    
     3   12    1 1    
     4    3    2 2    
     5   38    2 1    
     6    4    3 1    
     7    5    4 2    
     8    7    4 1    
     9    6    5 1    
    10   33    6 2    
    11   39    6 1    
    12    8    7 am   
    13    9    7 2    
    14   40    8 1    
    15   41    8 1    
    16   27   10 ar   
    17   28   11 ar   
    18   13   12 1    
    19   20   12 1    
    20   42   12 1    
    21   14   13 1    
    22   16   13 1    
    23   43   13 1    
    24   56   14 1    
    25   18   15 1    
    26   21   15 1    
    27   36   15 1    
    28   44   15 1    
    29   17   16 1    
    30   19   16 1    
    31   45   16 1    
    32   57   17 1    
    33   58   18 1    
    34   20   19 1    
    35   23   19 1    
    36   46   19 1    
    37   22   21 1    
    38   24   21 1    
    39   47   21 1    
    40   59   22 1    
    41   25   23 1    
    42   48   23 1    
    43   49   23 1    
    44   26   24 1    
    45   50   24 1    
    46   51   24 1    
    47   27   25 1    
    48   28   26 1    
    49   29   27 ar   
    50   31   27 ar   
    51   30   28 ar   
    52   32   28 ar   
    53   34   33 1    
    54   52   33 1    
    55   35   34 1    
    56   53   34 1    
    57   36   35 1    
    58   54   35 1    
    59   55   35 1    
    60   37   36 2    
@<TRIPOS>SUBSTRUCTURE
     1 2ER1246     1 GROUP   
@<TRIPOS>SET

