#    Name: 2y00_Y00_6_INTS_M
#    Modification time : Tue Mar 25 07:14:50 2014

@<TRIPOS>MOLECULE
2y00_Y00_6_INTS_M
   57     0    12     0     0
SMALL
NO_CHARGES


@<TRIPOS>ATOM
      1 N          19.4760  -12.5965   19.1785 N.am      2 SEC2        0.0000 
      2 N          19.1750  -13.4290   17.7850 N.am     10 SEL2        0.0000 
      3 N          19.7770  -11.7640   20.5720 N.am      6 SEP2        0.0000 
      4 CA         19.9995  -13.4300   18.1805 C.3       4 GLC5        0.0000 
      5 CA         17.8660  -13.0720   17.7030 C.3      12 GLL5        0.0000 
      6 CA         22.1330  -13.7880   18.6580 C.3       8 GLP5        0.0000 
      7 CA         17.1645  -10.4755   15.8940 C.3       4 GLC5        0.0000 
      8 CA         15.9680  -12.2520   16.4440 C.3      12 GLL5        0.0000 
      9 CA         18.3610   -8.6990   15.3440 C.3       8 GLP5        0.0000 
     10 CA         14.2350  -10.2870   18.9940 C.3       4 GLC5        0.0000 
     11 CA         13.7340  -11.9340   17.5880 C.3      12 GLL5        0.0000 
     12 CA         14.7360   -8.6400   20.4000 C.3       8 GLP5        0.0000 
     13 CA         10.7520  -12.5825   15.8760 C.3       4 GLC5        0.0000 
     14 CA         11.3740  -12.8460   17.7770 C.3      12 GLL5        0.0000 
     15 CA         10.1300  -12.3190   13.9750 C.3       8 GLP5        0.0000 
     16 CA         12.2435  -15.6065   17.4800 C.3       4 GLC5        0.0000 
     17 CA         10.5960  -14.1540   17.9680 C.3      12 GLL5        0.0000 
     18 CA         13.8910  -17.0590   16.9920 C.3       8 GLP5        0.0000 
     19 CA          9.0960  -14.9855   17.2580 C.3       4 GLC5        0.0000 
     20 CA          7.5960  -15.8170   16.5480 C.3       8 GLP5        0.0000 
     21 CA         10.1315  -14.5645   19.8795 C.3       4 GLC5        0.0000 
     22 CA          9.6670  -14.9750   21.7910 C.3       8 GLP5        0.0000 
     23 CA          9.6535  -13.3370   16.1735 C.3       4 GLC5        0.0000 
     24 CA          8.7110  -12.5200   14.3790 C.3       8 GLP5        0.0000 
     25 OD1        11.1175  -12.5710   19.9430 O.co2     3 ASC3        0.0000 
     26 OD1        10.9560  -11.8240   18.7420 O.co2    11 ASL3        0.0000 
     27 OD1        11.2790  -13.3180   21.1440 O.co2     7 ASP3        0.0000 
     28 CA          8.8710  -11.4150   16.9765 C.3       4 GLC5        0.0000 
     29 CA          9.6240  -11.2110   18.7020 C.3      12 GLL5        0.0000 
     30 CA          8.1180  -11.6190   15.2510 C.3       8 GLP5        0.0000 
     31 O           3.8760   -8.3615   17.6900 O.2       1 ALC1        0.0000 
     32 O           5.3140   -8.4710   17.9160 O.2       9 ALL1        0.0000 
     33 O           2.4380   -8.2520   17.4640 O.2       5 ALP1        0.0000 
     34 CA          3.2050   -9.0235   19.0840 C.3       4 GLC5        0.0000 
     35 CA          5.1260   -9.1930   20.1860 C.3      12 GLL5        0.0000 
     36 CA          1.2840   -8.8540   17.9820 C.3       8 GLP5        0.0000 
     37 O           3.1465   -8.4800   18.7965 O.2       1 ALC1        0.0000 
     38 O           3.8550   -8.7080   20.1290 O.2       9 ALL1        0.0000 
     39 CA          6.2230  -11.7525   20.5695 C.3       4 GLC5        0.0000 
     40 CA          7.0300  -10.2220   21.2440 C.3      12 GLL5        0.0000 
     41 CA          5.4160  -13.2830   19.8950 C.3       8 GLP5        0.0000 
     42 CA         17.7767  -14.4968   16.1590 C.3       4 GLC5        0.0000 
     43 CA         17.3110  -12.6170   16.5010 C.3      12 GLL5        0.0000 
     44 CA         17.9650  -16.1490   15.2160 C.3       8 GLP5        0.0000 
     45 CA         18.6187  -11.1158   17.2665 C.3       4 GLC5        0.0000 
     46 CA         19.6490   -9.3870   17.4310 C.3       8 GLP5        0.0000 
     47 CA         13.9810  -14.4310   17.8227 C.3       4 GLC5        0.0000 
     48 CA         14.6640  -16.3170   17.9170 C.3       8 GLP5        0.0000 
     49 CA          9.9578   -9.0003   19.1073 C.3       4 GLC5        0.0000 
     50 CA         10.4940   -7.0890   18.8370 C.3       8 GLP5        0.0000 
     51 CA          6.0687  -11.3541   19.5627 C.3       4 GLC5        0.0000 
     52 CA          7.7910  -10.0990   20.0690 C.3      12 GLL5        0.0000 
     53 CA          4.3593  -11.0665   20.9842 C.3       4 GLC5        0.0000 
     54 CA          5.6950   -9.7930   21.3110 C.3      12 GLL5        0.0000 
     55 CA          3.3080  -12.6400   21.2200 C.3       8 GLP5        0.0000 
     56 CA          6.3528  -10.1952   23.0808 C.3       4 GLC5        0.0000 
     57 CA          6.3430  -10.3830   24.8840 C.3       8 GLP5        0.0000 
@<TRIPOS>BOND
@<TRIPOS>SUBSTRUCTURE
     1 ALC1       31 GROUP        1 X    ALC  0     ROOT ALC X 1
     2 SEC2        1 GROUP        1 X    SEC  0     **** SEC X 2
     3 ASC3       25 GROUP        1 X    ASC  0     **** ASC X 3
     4 GLC5        4 GROUP        1 X    GLC  0     **** GLC X 6
     5 ALP1       33 GROUP        1 Y    ALP  0     ROOT ALP Y 8
     6 SEP2        3 GROUP        1 Y    SEP  0     **** SEP Y 9
     7 ASP3       27 GROUP        1 Y    ASP  0     **** ASP Y 10
     8 GLP5        6 GROUP        1 Y    GLP  0     **** GLP Y 13
     9 ALL1       32 GROUP        1 Z    ALL  0     ROOT ALL Z 15
    10 SEL2        2 GROUP        1 Z    SEL  0     **** SEL Z 16
    11 ASL3       26 GROUP        1 Z    ASL  0     **** ASL Z 17
    12 GLL5        5 GROUP        1 Z    GLL  0     **** GLL Z 20
@<TRIPOS>SET

