#    Name: 2y00_Y00_6_ligand
#    Modification time : Tue Mar 25 07:14:51 2014

@<TRIPOS>MOLECULE
2y00_Y00_6_ligand
   44    45     1     0     0
SMALL
NO_CHARGES


@<TRIPOS>ATOM
      1 O3         19.1750  -13.4290   17.7850 O.3       1 Y00601      0.0000 
      2 C16        17.8660  -13.0720   17.7030 C.ar      1 Y00601      0.0000 
      3 C15        17.3110  -12.6170   16.5010 C.ar      1 Y00601      0.0000 
      4 C14        15.9680  -12.2520   16.4440 C.ar      1 Y00601      0.0000 
      5 C17        17.0990  -13.1560   18.8510 C.ar      1 Y00601      0.0000 
      6 C18        15.7560  -12.7800   18.7990 C.ar      1 Y00601      0.0000 
      7 C13        15.1900  -12.3300   17.6050 C.ar      1 Y00601      0.0000 
      8 C12        13.7340  -11.9340   17.5880 C.3       1 Y00601      0.0000 
      9 C11        12.8620  -13.1560   17.8690 C.3       1 Y00601      0.0000 
     10 C9         11.3740  -12.8460   17.7770 C.3       1 Y00601      0.0000 
     11 C10        10.5960  -14.1540   17.9680 C.3       1 Y00601      0.0000 
     12 N1         10.9560  -11.8240   18.7420 N.4       1 Y00601      0.0000 
     13 C8          9.6240  -11.2110   18.7020 C.3       1 Y00601      0.0000 
     14 C1          9.2190  -10.6120   20.0530 C.3       1 Y00601      0.0000 
     15 C2          7.7910  -10.0990   20.0690 C.ar      1 Y00601      0.0000 
     16 C7          7.2410   -9.5000   18.9250 C.ar      1 Y00601      0.0000 
     17 C6          5.9270   -9.0510   18.9640 C.ar      1 Y00601      0.0000 
     18 O1          5.3140   -8.4710   17.9160 O.3       1 Y00601      0.0000 
     19 C5          5.1260   -9.1930   20.1860 C.ar      1 Y00601      0.0000 
     20 O2          3.8550   -8.7080   20.1290 O.3       1 Y00601      0.0000 
     21 C4          5.6950   -9.7930   21.3110 C.ar      1 Y00601      0.0000 
     22 C3          7.0300  -10.2220   21.2440 C.ar      1 Y00601      0.0000 
     23 H          17.8985  -12.5533   15.6604 H         1 Y00601      0.0000 
     24 H          15.5535  -11.9313   15.5683 H         1 Y00601      0.0000 
     25 H          17.5051  -13.4883   19.7285 H         1 Y00601      0.0000 
     26 H          15.1768  -12.8350   19.6498 H         1 Y00601      0.0000 
     27 H          13.4740  -11.5287   16.6139 H         1 Y00601      0.0000 
     28 H          13.5479  -11.1822   18.3502 H         1 Y00601      0.0000 
     29 H          13.0900  -13.5344   18.8730 H         1 Y00601      0.0000 
     30 H          13.1109  -13.9456   17.1495 H         1 Y00601      0.0000 
     31 H          11.1735  -12.5032   16.7566 H         1 Y00601      0.0000 
     32 H           8.8630  -11.9548   18.4173 H         1 Y00601      0.0000 
     33 H           9.5890  -10.4077   17.9490 H         1 Y00601      0.0000 
     34 H           9.9045   -9.7880   20.2939 H         1 Y00601      0.0000 
     35 H           9.3388  -11.3794   20.8300 H         1 Y00601      0.0000 
     36 H           7.8034   -9.3989   18.0804 H         1 Y00601      0.0000 
     37 H           5.1562   -9.9183   22.1633 H         1 Y00601      0.0000 
     38 H           7.4676  -10.6417   22.0852 H         1 Y00601      0.0000 
     39 H          10.8327  -14.8319   17.2720 H         1 Y00601      0.0000 
     40 H          10.7822  -14.5703   18.8579 H         1 Y00601      0.0000 
     41 H           9.6080  -14.0099   17.9128 H         1 Y00601      0.0000 
     42 H          19.1764  -14.2932   18.2881 H         1 Y00601      0.0000 
     43 H           4.4462   -8.1318   18.2791 H         1 Y00601      0.0000 
     44 H           3.6279   -8.6913   19.1553 H         1 Y00601      0.0000 
@<TRIPOS>BOND
     1    2    1 1    
     2   42    1 1    
     3    3    2 ar   
     4    5    2 ar   
     5    4    3 ar   
     6   23    3 1    
     7    7    4 ar   
     8   24    4 1    
     9    6    5 ar   
    10   25    5 1    
    11    7    6 ar   
    12   26    6 1    
    13    8    7 1    
    14    9    8 1    
    15   27    8 1    
    16   28    8 1    
    17   10    9 1    
    18   29    9 1    
    19   30    9 1    
    20   11   10 1    
    21   12   10 1    
    22   31   10 1    
    23   39   11 1    
    24   40   11 1    
    25   41   11 1    
    26   13   12 1    
    27   14   13 1    
    28   32   13 1    
    29   33   13 1    
    30   15   14 1    
    31   34   14 1    
    32   35   14 1    
    33   16   15 ar   
    34   22   15 ar   
    35   17   16 ar   
    36   36   16 1    
    37   18   17 1    
    38   19   17 ar   
    39   43   18 1    
    40   20   19 1    
    41   21   19 ar   
    42   44   20 1    
    43   22   21 ar   
    44   37   21 1    
    45   38   22 1    
@<TRIPOS>SUBSTRUCTURE
     1 Y00601      1 GROUP   
@<TRIPOS>SET

