#    Name: 2pws_IBP_1_INTS_M
#    Modification time : Mon Mar 24 19:27:39 2014

@<TRIPOS>MOLECULE
2pws_IBP_1_INTS_M
   30     0     9     0     0
SMALL
NO_CHARGES


@<TRIPOS>ATOM
      1 CA        -21.7360    2.3590   -8.6860 C.3       3 GLC5        0.0000 
      2 CA        -20.3170    3.1910  -10.0650 C.3       9 GLL5        0.0000 
      3 CA        -23.1550    1.5270   -7.3070 C.3       6 GLP5        0.0000 
      4 CA        -25.1415    5.8690   -8.6045 C.3       3 GLC5        0.0000 
      5 CA        -23.7080    6.3350   -9.9940 C.3       9 GLL5        0.0000 
      6 CA        -26.5750    5.4030   -7.2150 C.3       6 GLP5        0.0000 
      7 CA        -19.5780    6.6075   -8.9505 C.3       3 GLC5        0.0000 
      8 CA        -21.2960    6.2470  -10.0410 C.3       9 GLL5        0.0000 
      9 CA        -17.8600    6.9680   -7.8600 C.3       6 GLP5        0.0000 
     10 CA        -22.3870   10.2980  -11.0700 C.3       3 GLC5        0.0000 
     11 CA        -22.4610    8.2220  -10.7840 C.3       9 GLL5        0.0000 
     12 CA        -22.3130   12.3740  -11.3560 C.3       6 GLP5        0.0000 
     13 NZ        -24.8050   11.2245  -10.6130 N.4       2 LYC4        0.0000 
     14 NZ        -25.8800   10.4720  -10.1040 N.4       8 LYL4        0.0000 
     15 NZ        -23.7300   11.9770  -11.1220 N.4       5 LYP4        0.0000 
     16 NZ        -23.9050   10.9575  -10.1380 N.4       2 LYC4        0.0000 
     17 NZ        -24.0800    9.9380   -9.1540 N.4       8 LYL4        0.0000 
     18 N         -23.9050   10.9575  -10.1380 N.am      1 SEC2        0.0000 
     19 N         -24.0800    9.9380   -9.1540 N.am      7 SEL2        0.0000 
     20 N         -23.7300   11.9770  -11.1220 N.am      4 SEP2        0.0000 
     21 CA        -18.7223    5.7821   -8.3214 C.3       3 GLC5        0.0000 
     22 CA        -19.4630    4.2070   -7.9140 C.3       9 GLL5        0.0000 
     23 CA        -19.1071    2.6077   -8.9714 C.3       3 GLC5        0.0000 
     24 CA        -19.4760    4.2970   -9.4390 C.3       9 GLL5        0.0000 
     25 CA        -18.3210    1.4940   -8.5720 C.3       6 GLP5        0.0000 
     26 CA        -25.9552    7.3078  -12.2920 C.3       3 GLC5        0.0000 
     27 CA        -24.9170    8.4100  -10.7730 C.3       9 GLL5        0.0000 
     28 CA        -26.9770    6.0270  -13.0710 C.3       6 GLP5        0.0000 
     29 CA        -20.5185    8.4853   -9.2680 C.3       3 GLC5        0.0000 
     30 CA        -19.1630    9.0930   -7.8690 C.3       6 GLP5        0.0000 
@<TRIPOS>BOND
@<TRIPOS>SUBSTRUCTURE
     1 SEC2       18 GROUP        1 X    SEC  0     ROOT SEC X 2
     2 LYC4       13 GROUP        1 X    LYC  0     **** LYC X 4
     3 GLC5        1 GROUP        1 X    GLC  0     **** GLC X 6
     4 SEP2       20 GROUP        1 Y    SEP  0     ROOT SEP Y 9
     5 LYP4       15 GROUP        1 Y    LYP  0     **** LYP Y 11
     6 GLP5        3 GROUP        1 Y    GLP  0     **** GLP Y 13
     7 SEL2       19 GROUP        1 Z    SEL  0     ROOT SEL Z 16
     8 LYL4       14 GROUP        1 Z    LYL  0     **** LYL Z 18
     9 GLL5        2 GROUP        1 Z    GLL  0     **** GLL Z 20
@<TRIPOS>SET

