#    Name: 2pws_IBP_1_ligand
#    Modification time : Mon Mar 24 19:27:39 2014

@<TRIPOS>MOLECULE
2pws_IBP_1_ligand
   32    32     1     0     0
SMALL
NO_CHARGES


@<TRIPOS>ATOM
      1 C1        -24.9610    9.6790   -9.9600 C.2       1 IBP3960     0.0000 
      2 C2        -19.9360    5.6740   -9.8640 C.3       1 IBP3960     0.0000 
      3 C3        -19.4760    4.2970   -9.4390 C.3       1 IBP3960     0.0000 
      4 C4        -19.4630    4.2070   -7.9140 C.3       1 IBP3960     0.0000 
      5 C5        -20.3170    3.1910  -10.0650 C.3       1 IBP3960     0.0000 
      6 C6        -24.9170    8.4100  -10.7730 C.3       1 IBP3960     0.0000 
      7 C7        -24.9500    8.7670  -12.2530 C.3       1 IBP3960     0.0000 
      8 C8        -23.6810    7.6340  -10.5010 C.ar      1 IBP3960     0.0000 
      9 C9        -23.7080    6.3350   -9.9940 C.ar      1 IBP3960     0.0000 
     10 C10       -22.5170    5.6360   -9.7550 C.ar      1 IBP3960     0.0000 
     11 C11       -21.2960    6.2470  -10.0410 C.ar      1 IBP3960     0.0000 
     12 C12       -21.2870    7.5330  -10.5500 C.ar      1 IBP3960     0.0000 
     13 C13       -22.4610    8.2220  -10.7840 C.ar      1 IBP3960     0.0000 
     14 O1        -25.8800   10.4720  -10.1040 O.co2     1 IBP3960     0.0000 
     15 O2        -24.0800    9.9380   -9.1540 O.co2     1 IBP3960     0.0000 
     16 H         -19.3339    5.9167  -10.8661 H         1 IBP3960     0.0000 
     17 H         -19.3341    6.4393   -9.1729 H         1 IBP3960     0.0000 
     18 H         -18.4379    4.1698   -9.7814 H         1 IBP3960     0.0000 
     19 H         -25.7830    7.8136  -10.5524 H         1 IBP3960     0.0000 
     20 H         -24.6113    5.8820   -9.7921 H         1 IBP3960     0.0000 
     21 H         -22.5459    4.6885   -9.3750 H         1 IBP3960     0.0000 
     22 H         -20.3763    7.9903  -10.7608 H         1 IBP3960     0.0000 
     23 H         -22.4292    9.1785  -11.1711 H         1 IBP3960     0.0000 
     24 H         -19.1590    3.3084   -7.5976 H         1 IBP3960     0.0000 
     25 H         -18.8496    4.8840   -7.5072 H         1 IBP3960     0.0000 
     26 H         -20.3709    4.3630   -7.5250 H         1 IBP3960     0.0000 
     27 H         -20.2784    3.2153  -11.0640 H         1 IBP3960     0.0000 
     28 H         -20.0072    2.2834   -9.7817 H         1 IBP3960     0.0000 
     29 H         -21.2803    3.2657   -9.8070 H         1 IBP3960     0.0000 
     30 H         -24.1720    9.3381  -12.5147 H         1 IBP3960     0.0000 
     31 H         -24.9235    7.9523  -12.8322 H         1 IBP3960     0.0000 
     32 H         -25.7786    9.2718  -12.4949 H         1 IBP3960     0.0000 
@<TRIPOS>BOND
     1    6    1 1    
     2   14    1 ar   
     3   15    1 ar   
     4    3    2 1    
     5   11    2 1    
     6   16    2 1    
     7   17    2 1    
     8    4    3 1    
     9    5    3 1    
    10   18    3 1    
    11   24    4 1    
    12   25    4 1    
    13   26    4 1    
    14   27    5 1    
    15   28    5 1    
    16   29    5 1    
    17    7    6 1    
    18    8    6 1    
    19   19    6 1    
    20   30    7 1    
    21   31    7 1    
    22   32    7 1    
    23    9    8 ar   
    24   13    8 ar   
    25   10    9 ar   
    26   20    9 1    
    27   11   10 ar   
    28   21   10 1    
    29   12   11 ar   
    30   13   12 ar   
    31   22   12 1    
    32   23   13 1    
@<TRIPOS>SUBSTRUCTURE
     1 IBP3960     1 GROUP   
@<TRIPOS>SET

