#    Name: 4igh_1EA_2_INTS_M
#    Modification time : Tue Mar 25 03:56:16 2014

@<TRIPOS>MOLECULE
4igh_1EA_2_INTS_M
  107     0     9     0     0
SMALL
NO_CHARGES


@<TRIPOS>ATOM
      1 NZ         -3.0025   37.7860   -7.4585 N.4       2 LYC4        0.0000 
      2 NZ         -4.1000   37.0770   -6.4640 N.4       8 LYL4        0.0000 
      3 NZ         -2.9650   38.9320   -9.1080 N.4       5 LYP4        0.0000 
      4 N          -3.7790   36.1110   -7.4460 N.am      1 SEC2        0.0000 
      5 N          -4.1000   37.0770   -6.4640 N.am      7 SEL2        0.0000 
      6 N          -3.4580   35.1450   -8.4280 N.am      4 SEP2        0.0000 
      7 N          -3.0025   37.7860   -7.4585 N.am      1 SEC2        0.0000 
      8 N          -1.9050   38.4950   -8.4530 N.am      4 SEP2        0.0000 
      9 N          -4.1330   37.9225   -7.5210 N.am      1 SEC2        0.0000 
     10 N          -4.1660   38.7680   -8.5780 N.am      4 SEP2        0.0000 
     11 NZ         -2.0760   38.1785   -7.0695 N.4       2 LYC4        0.0000 
     12 NZ         -2.2470   37.8620   -5.6860 N.4       8 LYL4        0.0000 
     13 N          -2.0760   38.1785   -7.0695 N.am      1 SEC2        0.0000 
     14 N          -2.2470   37.8620   -5.6860 N.am      7 SEL2        0.0000 
     15 CA         -2.5040   40.2645   -4.5200 C.3       3 GLC5        0.0000 
     16 CA         -2.5670   38.9650   -2.9840 C.3       9 GLL5        0.0000 
     17 CA         -2.4410   41.5640   -6.0560 C.3       6 GLP5        0.0000 
     18 CA         -1.8985   41.0455   -3.9725 C.3       3 GLC5        0.0000 
     19 CA         -1.3560   40.5270   -1.8890 C.3       9 GLL5        0.0000 
     20 CA          0.6720   40.7670   -2.3495 C.3       3 GLC5        0.0000 
     21 CA          2.7000   41.0070   -2.8100 C.3       6 GLP5        0.0000 
     22 CA         -0.5560   41.3245   -0.2780 C.3       3 GLC5        0.0000 
     23 CA          0.2440   42.1220    1.3330 C.3       6 GLP5        0.0000 
     24 CA         -4.2295   40.1915   -0.0475 C.3       3 GLC5        0.0000 
     25 CA         -2.8550   39.2850   -0.6400 C.3       9 GLL5        0.0000 
     26 CA         -5.6040   41.0980    0.5450 C.3       6 GLP5        0.0000 
     27 CA         -4.8685   39.5965   -0.7400 C.3       3 GLC5        0.0000 
     28 CA         -3.7710   38.2830   -0.5690 C.3       9 GLL5        0.0000 
     29 CA         -5.9660   40.9100   -0.9110 C.3       6 GLP5        0.0000 
     30 CA         -5.6000   38.7220   -1.4790 C.3       3 GLC5        0.0000 
     31 CA         -4.1510   37.5640   -1.7070 C.3       9 GLL5        0.0000 
     32 CA         -7.0490   39.8800   -1.2510 C.3       6 GLP5        0.0000 
     33 CA         -3.4540   34.8995   -2.7925 C.3       3 GLC5        0.0000 
     34 CA         -5.3880   35.9290   -2.7280 C.3       9 GLL5        0.0000 
     35 CA         -1.5200   33.8700   -2.8570 C.3       6 GLP5        0.0000 
     36 CA         -7.2340   36.7950   -4.5735 C.3       3 GLC5        0.0000 
     37 CA         -7.4660   34.9110   -3.5190 C.3       9 GLL5        0.0000 
     38 CA         -7.0020   38.6790   -5.6280 C.3       6 GLP5        0.0000 
     39 CA        -12.0995   35.8615   -3.8625 C.3       3 GLC5        0.0000 
     40 CA        -10.8520   34.2830   -3.7640 C.3       9 GLL5        0.0000 
     41 CA        -13.3470   37.4400   -3.9610 C.3       6 GLP5        0.0000 
     42 CA        -10.5190   35.2165   -1.9580 C.3       3 GLC5        0.0000 
     43 CA        -10.1860   36.1500   -0.1520 C.3       6 GLP5        0.0000 
     44 CA        -12.3660   33.7335   -3.1065 C.3       3 GLC5        0.0000 
     45 CA        -13.8800   33.1840   -2.4490 C.3       6 GLP5        0.0000 
     46 CA        -11.2995   36.0415   -5.5200 C.3       3 GLC5        0.0000 
     47 CA         -9.4810   34.8490   -5.6120 C.3       9 GLL5        0.0000 
     48 CA        -13.1180   37.2340   -5.4280 C.3       6 GLP5        0.0000 
     49 CA         -7.0635   30.6905   -1.3230 C.3       3 GLC5        0.0000 
     50 CA         -7.2740   32.7790   -1.7300 C.3       9 GLL5        0.0000 
     51 CA         -6.8530   28.6020   -0.9160 C.3       6 GLP5        0.0000 
     52 CA         -5.5595   35.0380    0.9505 C.3       3 GLC5        0.0000 
     53 CA         -5.1570   33.6340   -0.7430 C.3       9 GLL5        0.0000 
     54 CA         -5.9620   36.4420    2.6440 C.3       6 GLP5        0.0000 
     55 CA         -3.6075   32.8350    0.1110 C.3       3 GLC5        0.0000 
     56 CA         -2.0580   32.0360    0.9650 C.3       6 GLP5        0.0000 
     57 CA         -3.3385   33.7520   -1.8000 C.3       3 GLC5        0.0000 
     58 CA        -10.1215   34.1100   -0.2940 C.3       3 GLC5        0.0000 
     59 CA        -10.0570   32.0700   -0.4360 C.3       9 GLL5        0.0000 
     60 CA        -11.6545   32.2780    2.4305 C.3       3 GLC5        0.0000 
     61 CA        -10.7760   31.5380    0.5740 C.3       9 GLL5        0.0000 
     62 CA        -12.5330   33.0180    4.2870 C.3       6 GLP5        0.0000 
     63 CA         -9.5450   30.9430    2.3175 C.3       3 GLC5        0.0000 
     64 CA         -8.3140   30.3480    4.0610 C.3       6 GLP5        0.0000 
     65 CA         -5.3483   38.1135   -4.5983 C.3       3 GLC5        0.0000 
     66 CA         -3.9050   37.1610   -4.1590 C.3       9 GLL5        0.0000 
     67 CA         -2.6440   35.9810   -3.4585 C.3       3 GLC5        0.0000 
     68 CA         -0.9200   35.2930   -2.8510 C.3       6 GLP5        0.0000 
     69 CA         -2.0118   37.1975   -2.2555 C.3       3 GLC5        0.0000 
     70 CA         -3.4840   37.9350   -2.9780 C.3       9 GLL5        0.0000 
     71 CA         -0.9980   35.9450   -1.5300 C.3       6 GLP5        0.0000 
     72 CA         -4.3004   39.9715   -1.6595 C.3       3 GLC5        0.0000 
     73 CA         -1.0610   41.6953   -2.5550 C.3       3 GLC5        0.0000 
     74 CA         -2.2440   39.6160   -1.8350 C.3       9 GLL5        0.0000 
     75 CA         -0.3220   43.3190   -3.2480 C.3       6 GLP5        0.0000 
     76 CA         -1.7737   37.6977   -1.3838 C.3       3 GLC5        0.0000 
     77 CA         -2.4795   36.9343   -1.3340 C.3       3 GLC5        0.0000 
     78 CA         -5.0388   34.0665   -4.1273 C.3       3 GLC5        0.0000 
     79 CA         -4.9680   32.0800   -4.9040 C.3       6 GLP5        0.0000 
     80 CA         -6.0557   37.3660   -4.4893 C.3       3 GLC5        0.0000 
     81 CA         -4.8310   36.1770   -3.9730 C.3       9 GLL5        0.0000 
     82 CA         -7.2835   35.6872   -1.4832 C.3       3 GLC5        0.0000 
     83 CA         -8.6820   35.9800   -0.2790 C.3       6 GLP5        0.0000 
     84 CA         -5.9460   33.4827   -3.9935 C.3       3 GLC5        0.0000 
     85 CA         -6.3820   34.8600   -2.6470 C.3       9 GLL5        0.0000 
     86 CA         -8.3150   35.2037   -1.9055 C.3       3 GLC5        0.0000 
     87 CA         -6.6833   32.7375   -3.9885 C.3       3 GLC5        0.0000 
     88 CA         -8.4300   33.9440   -3.5450 C.3       9 GLL5        0.0000 
     89 CA         -9.5782   33.5023   -6.1866 C.3       3 GLC5        0.0000 
     90 CA         -9.4530   32.4840   -7.6250 C.3       6 GLP5        0.0000 
     91 CA         -8.2512   34.3962   -1.2222 C.3       3 GLC5        0.0000 
     92 CA         -8.3670   32.8460   -2.6010 C.3       9 GLL5        0.0000 
     93 CA         -7.2050   34.8342   -0.7520 C.3       3 GLC5        0.0000 
     94 CA         -6.2990   33.7430   -1.7070 C.3       9 GLL5        0.0000 
     95 CA         -5.4699   32.7638   -3.0674 C.3       3 GLC5        0.0000 
     96 CA         -8.8588   30.1735   -0.3485 C.3       3 GLC5        0.0000 
     97 CA         -9.9940   31.4120   -1.6300 C.3       9 GLL5        0.0000 
     98 CA         -7.6920   28.6060    0.3360 C.3       6 GLP5        0.0000 
     99 CA        -12.1182   32.5845    0.0355 C.3       3 GLC5        0.0000 
    100 CA        -13.8200   33.3650    0.0020 C.3       6 GLP5        0.0000 
    101 CA         -9.4060   29.7800    0.4103 C.3       3 GLC5        0.0000 
    102 CA        -11.4640   30.3700    0.3950 C.3       9 GLL5        0.0000 
    103 CA        -12.6205   31.7055   -0.0970 C.3       3 GLC5        0.0000 
    104 CA        -11.0430   29.0320    1.2949 C.3       3 GLC5        0.0000 
    105 CA        -10.8370   27.7260    2.7410 C.3       6 GLP5        0.0000 
    106 CA         -9.3570   29.2930   -0.4778 C.3       3 GLC5        0.0000 
    107 CA        -11.3780   29.7220   -0.7870 C.3       9 GLL5        0.0000 
@<TRIPOS>BOND
@<TRIPOS>SUBSTRUCTURE
     1 SEC2        4 GROUP        1 X    SEC  0     ROOT SEC X 2
     2 LYC4        1 GROUP        1 X    LYC  0     **** LYC X 4
     3 GLC5       15 GROUP        1 X    GLC  0     **** GLC X 6
     4 SEP2        6 GROUP        1 Y    SEP  0     ROOT SEP Y 9
     5 LYP4        3 GROUP        1 Y    LYP  0     **** LYP Y 11
     6 GLP5       17 GROUP        1 Y    GLP  0     **** GLP Y 13
     7 SEL2        5 GROUP        1 Z    SEL  0     ROOT SEL Z 16
     8 LYL4        2 GROUP        1 Z    LYL  0     **** LYL Z 18
     9 GLL5       16 GROUP        1 Z    GLL  0     **** GLL Z 20
@<TRIPOS>SET

