#    Name: 4igh_1EA_2_ligand
#    Modification time : Tue Mar 25 03:56:16 2014

@<TRIPOS>MOLECULE
4igh_1EA_2_ligand
   52    55     1     0     0
SMALL
NO_CHARGES


@<TRIPOS>ATOM
      1 O1         -4.1000   37.0770   -6.4640 O.co2     1 1EA503      0.0000 
      2 C22        -3.3580   37.3830   -5.5460 C.2       1 1EA503      0.0000 
      3 O2         -2.2470   37.8620   -5.6860 O.co2     1 1EA503      0.0000 
      4 C3         -3.9050   37.1610   -4.1590 C.ar      1 1EA503      0.0000 
      5 C4         -3.4840   37.9350   -2.9780 C.ar      1 1EA503      0.0000 
      6 C5         -2.5670   38.9650   -2.9840 C.ar      1 1EA503      0.0000 
      7 C6         -2.2440   39.6160   -1.8350 C.ar      1 1EA503      0.0000 
      8 F1         -1.3560   40.5270   -1.8890 F         1 1EA503      0.0000 
      9 C7         -2.8550   39.2850   -0.6400 C.ar      1 1EA503      0.0000 
     10 C8         -3.7710   38.2830   -0.5690 C.ar      1 1EA503      0.0000 
     11 C9         -4.1510   37.5640   -1.7070 C.ar      1 1EA503      0.0000 
     12 N1         -5.0430   36.5710   -1.6400 N.ar      1 1EA503      0.0000 
     13 C1         -5.3880   35.9290   -2.7280 C.ar      1 1EA503      0.0000 
     14 C2         -4.8310   36.1770   -3.9730 C.ar      1 1EA503      0.0000 
     15 C10        -6.3820   34.8600   -2.6470 C.ar      1 1EA503      0.0000 
     16 C15        -7.4660   34.9110   -3.5190 C.ar      1 1EA503      0.0000 
     17 C14        -8.4300   33.9440   -3.5450 C.ar      1 1EA503      0.0000 
     18 C24        -9.5690   34.2580   -4.4650 C.3       1 1EA503      0.0000 
     19 C26       -10.8520   34.2830   -3.7640 C.3       1 1EA503      0.0000 
     20 C25        -9.4810   34.8490   -5.6120 C.3       1 1EA503      0.0000 
     21 C13        -8.3670   32.8460   -2.6010 C.ar      1 1EA503      0.0000 
     22 C12        -7.2740   32.7790   -1.7300 C.ar      1 1EA503      0.0000 
     23 C11        -6.2990   33.7430   -1.7070 C.ar      1 1EA503      0.0000 
     24 C23        -5.1570   33.6340   -0.7430 C.3       1 1EA503      0.0000 
     25 O3         -9.3180   31.8920   -2.6590 O.3       1 1EA503      0.0000 
     26 C16        -9.9940   31.4120   -1.6300 C.ar      1 1EA503      0.0000 
     27 C21       -10.0570   32.0700   -0.4360 C.ar      1 1EA503      0.0000 
     28 C20       -10.7760   31.5380    0.5740 C.ar      1 1EA503      0.0000 
     29 C19       -11.4640   30.3700    0.3950 C.ar      1 1EA503      0.0000 
     30 C18       -11.3780   29.7220   -0.7870 C.ar      1 1EA503      0.0000 
     31 C17       -10.6660   30.2380   -1.7960 C.ar      1 1EA503      0.0000 
     32 H          -2.1216   39.2409   -3.8834 H         1 1EA503      0.0000 
     33 H          -2.6013   39.8209    0.2191 H         1 1EA503      0.0000 
     34 H          -4.2081   38.0329    0.3424 H         1 1EA503      0.0000 
     35 H          -5.1343   35.5905   -4.7826 H         1 1EA503      0.0000 
     36 H          -7.5348   35.7262   -4.1754 H         1 1EA503      0.0000 
     37 H          -9.7185   32.9959   -4.8799 H         1 1EA503      0.0000 
     38 H          -7.2093   31.9628   -1.0803 H         1 1EA503      0.0000 
     39 H          -9.5560   32.9671   -0.3138 H         1 1EA503      0.0000 
     40 H         -10.8125   32.0144    1.5003 H         1 1EA503      0.0000 
     41 H         -12.0444   29.9914    1.1643 H         1 1EA503      0.0000 
     42 H         -11.8749   28.8080   -0.9096 H         1 1EA503      0.0000 
     43 H         -10.6184   29.7489   -2.7158 H         1 1EA503      0.0000 
     44 H         -11.0591   33.4028   -3.3369 H         1 1EA503      0.0000 
     45 H         -10.8655   34.9712   -3.0386 H         1 1EA503      0.0000 
     46 H         -11.6090   34.4940   -4.3824 H         1 1EA503      0.0000 
     47 H          -9.0865   35.7641   -5.5290 H         1 1EA503      0.0000 
     48 H          -8.9046   34.3381   -6.2498 H         1 1EA503      0.0000 
     49 H         -10.3761   34.9539   -6.0454 H         1 1EA503      0.0000 
     50 H          -4.2772   33.5747   -1.2147 H         1 1EA503      0.0000 
     51 H          -5.1096   34.4246   -0.1325 H         1 1EA503      0.0000 
     52 H          -5.2351   32.8216   -0.1651 H         1 1EA503      0.0000 
@<TRIPOS>BOND
     1    2    1 ar   
     2    3    2 ar   
     3    4    2 1    
     4    5    4 ar   
     5   14    4 ar   
     6    6    5 ar   
     7   11    5 ar   
     8    7    6 ar   
     9   32    6 1    
    10    8    7 1    
    11    9    7 ar   
    12   10    9 ar   
    13   33    9 1    
    14   11   10 ar   
    15   34   10 1    
    16   12   11 ar   
    17   13   12 ar   
    18   14   13 ar   
    19   15   13 1    
    20   35   14 1    
    21   16   15 ar   
    22   23   15 ar   
    23   17   16 ar   
    24   36   16 1    
    25   18   17 1    
    26   21   17 ar   
    27   19   18 1    
    28   20   18 1    
    29   37   18 1    
    30   44   19 1    
    31   45   19 1    
    32   46   19 1    
    33   47   20 1    
    34   48   20 1    
    35   49   20 1    
    36   22   21 ar   
    37   25   21 1    
    38   23   22 ar   
    39   38   22 1    
    40   24   23 1    
    41   50   24 1    
    42   51   24 1    
    43   52   24 1    
    44   26   25 1    
    45   27   26 ar   
    46   31   26 ar   
    47   28   27 ar   
    48   39   27 1    
    49   29   28 ar   
    50   40   28 1    
    51   30   29 ar   
    52   41   29 1    
    53   31   30 ar   
    54   42   30 1    
    55   43   31 1    
@<TRIPOS>SUBSTRUCTURE
     1 1EA503      1 GROUP   
@<TRIPOS>SET

