#    Name: 3b04_OOP_1_INTS_M
#    Modification time : Mon Mar 24 18:32:38 2014

@<TRIPOS>MOLECULE
3b04_OOP_1_INTS_M
  122     0    15     0     0
SMALL
NO_CHARGES


@<TRIPOS>ATOM
      1 N          62.4765   16.1635   18.9615 N.am      2 SEC2        0.0000 
      2 N          61.4390   17.2270   18.8580 N.am     12 SEL2        0.0000 
      3 N          63.5140   15.1000   19.0650 N.am      7 SEP2        0.0000 
      4 N          61.7465   18.4950   19.1750 N.am      2 SEC2        0.0000 
      5 N          62.0540   19.7630   19.4920 N.am      7 SEP2        0.0000 
      6 O          61.4985   14.9340   17.7630 O.2       1 ALC1        0.0000 
      7 O          61.1980   16.2080   16.8380 O.2      11 ALL1        0.0000 
      8 O          61.7990   13.6600   18.6880 O.2       6 ALP1        0.0000 
      9 N          61.6935   14.0775   14.8855 N.am      2 SEC2        0.0000 
     10 N          61.0930   15.3600   14.7300 N.am     12 SEL2        0.0000 
     11 N          62.2940   12.7950   15.0410 N.am      7 SEP2        0.0000 
     12 O          61.8155   16.9555   12.7260 O.2       1 ALC1        0.0000 
     13 O          60.8630   17.7010   13.5600 O.2      11 ALL1        0.0000 
     14 O          62.7680   16.2100   11.8920 O.2       6 ALP1        0.0000 
     15 CA         59.5865   21.1545   17.2720 C.3       5 GLC5        0.0000 
     16 CA         61.2090   21.1780   16.0200 C.3      15 GLL5        0.0000 
     17 CA         57.9640   21.1310   18.5240 C.3      10 GLP5        0.0000 
     18 CA         57.5250   14.8655   16.7590 C.3       5 GLC5        0.0000 
     19 CA         56.7130   15.8370   14.9590 C.3      15 GLL5        0.0000 
     20 CA         58.3370   13.8940   18.5590 C.3      10 GLP5        0.0000 
     21 CA         57.7140   16.4000   17.9400 C.3       5 GLC5        0.0000 
     22 CA         58.2250   17.3370   16.2810 C.3      15 GLL5        0.0000 
     23 CA         57.2030   15.4630   19.5990 C.3      10 GLP5        0.0000 
     24 CA         58.0945   19.2340   17.4025 C.3       5 GLC5        0.0000 
     25 O          56.1375   18.8745   16.0875 O.2       1 ALC1        0.0000 
     26 O          57.5100   18.4310   16.8780 O.2      11 ALL1        0.0000 
     27 O          54.7650   19.3180   15.2970 O.2       6 ALP1        0.0000 
     28 Zn         52.9470   13.4130   15.1145 Zn        4 ZIC7        0.0000 
     29 Zn         54.0200   13.5980   14.9470 Zn       14 ZIL7        0.0000 
     30 Zn         51.8740   13.2280   15.2820 Zn        9 ZIP7        0.0000 
     31 NZ         53.8225    9.7590   14.6570 N.4       3 LYC4        0.0000 
     32 NZ         54.8290   10.5770   14.3610 N.4      13 LYL4        0.0000 
     33 NZ         52.9760    7.6040   15.0210 N.4       8 LYP4        0.0000 
     34 N          54.0260   10.8890   12.8970 N.am      2 SEC2        0.0000 
     35 N          54.8290   10.5770   14.3610 N.am     12 SEL2        0.0000 
     36 N          53.2230   11.2010   11.4330 N.am      7 SEP2        0.0000 
     37 N          53.8225    9.7590   14.6570 N.am      2 SEC2        0.0000 
     38 N          52.8160    8.9410   14.9530 N.am      7 SEP2        0.0000 
     39 NZ         65.4635   28.3730   14.7320 N.4       3 LYC4        0.0000 
     40 NZ         65.2600   26.9970   15.3620 N.4      13 LYL4        0.0000 
     41 NZ         64.8740   30.2180   13.1270 N.4       8 LYP4        0.0000 
     42 N          65.4635   28.3730   14.7320 N.am      2 SEC2        0.0000 
     43 N          65.2600   26.9970   15.3620 N.am     12 SEL2        0.0000 
     44 N          65.6670   29.7490   14.1020 N.am      7 SEP2        0.0000 
     45 N          66.2440   25.9910   15.0575 N.am      2 SEC2        0.0000 
     46 N          67.2280   24.9850   14.7530 N.am      7 SEP2        0.0000 
     47 N          64.7525   21.3860   17.1230 N.am      2 SEC2        0.0000 
     48 N          63.5120   20.7470   16.8480 N.am     12 SEL2        0.0000 
     49 N          65.9930   22.0250   17.3980 N.am      7 SEP2        0.0000 
     50 N          62.7830   20.2550   18.1700 N.am      2 SEC2        0.0000 
     51 O          63.8050   19.6990   16.1570 O.2       1 ALC1        0.0000 
     52 O          63.5120   20.7470   16.8480 O.2      11 ALL1        0.0000 
     53 O          64.0980   18.6510   15.4660 O.2       6 ALP1        0.0000 
     54 NZ         56.5105   13.3795   12.3840 N.4       3 LYC4        0.0000 
     55 NZ         55.1270   14.6360   12.7630 N.4      13 LYL4        0.0000 
     56 NZ         57.8940   12.1230   12.0050 N.4       8 LYP4        0.0000 
     57 N          57.7735   11.3825   16.1090 N.am      2 SEC2        0.0000 
     58 N          56.2170   11.8380   16.0890 N.am     12 SEL2        0.0000 
     59 N          59.3300   10.9270   16.1290 N.am      7 SEP2        0.0000 
     60 NZ         63.2995   28.9420   14.1495 N.4       3 LYC4        0.0000 
     61 NZ         62.9710   28.1370   15.3300 N.4      13 LYL4        0.0000 
     62 N          63.2080   29.2180   16.2225 N.am      2 SEC2        0.0000 
     63 N          62.9710   28.1370   15.3300 N.am     12 SEL2        0.0000 
     64 N          63.4450   30.2990   17.1150 N.am      7 SEP2        0.0000 
     65 N          61.6520   28.4570   14.5845 N.am      2 SEC2        0.0000 
     66 N          60.3330   28.7770   13.8390 N.am      7 SEP2        0.0000 
     67 N          63.2995   28.9420   14.1495 N.am      2 SEC2        0.0000 
     68 N          63.6280   29.7470   12.9690 N.am      7 SEP2        0.0000 
     69 N          64.3190   28.9430   14.7160 N.am      2 SEC2        0.0000 
     70 N          61.5005   23.5940   19.0945 N.am      2 SEC2        0.0000 
     71 N          62.4510   22.8070   18.2630 N.am     12 SEL2        0.0000 
     72 N          60.5500   24.3810   19.9260 N.am      7 SEP2        0.0000 
     73 N          56.9340   12.3225   12.8305 N.am      2 SEC2        0.0000 
     74 N          55.9740   12.5220   13.6560 N.am     12 SEL2        0.0000 
     75 N          57.8940   12.1230   12.0050 N.am      7 SEP2        0.0000 
     76 NZ         57.6105   11.3530   13.0635 N.4       3 LYC4        0.0000 
     77 NZ         57.3270   10.5830   14.1220 N.4      13 LYL4        0.0000 
     78 N          57.6105   11.3530   13.0635 N.am      2 SEC2        0.0000 
     79 N          57.3270   10.5830   14.1220 N.am     12 SEL2        0.0000 
     80 N          58.3285   10.7550   15.1255 N.am      2 SEC2        0.0000 
     81 N          62.3840   26.2920   13.1865 N.am      2 SEC2        0.0000 
     82 N          63.3390   26.0240   14.0280 N.am     12 SEL2        0.0000 
     83 N          61.4290   26.5600   12.3450 N.am      7 SEP2        0.0000 
     84 N          64.4980   25.5695   13.0680 N.am      2 SEC2        0.0000 
     85 N          65.6570   25.1150   12.1080 N.am      7 SEP2        0.0000 
     86 CA         62.4720   17.6435   13.8755 C.3       5 GLC5        0.0000 
     87 CA         60.4980   17.6460   14.9470 C.3      15 GLL5        0.0000 
     88 CA         64.4460   17.6410   12.8040 C.3      10 GLP5        0.0000 
     89 CA         62.3925   27.1720   17.9025 C.3       5 GLC5        0.0000 
     90 CA         62.0520   25.5740   16.8750 C.3      15 GLL5        0.0000 
     91 CA         62.7330   28.7700   18.9300 C.3      10 GLP5        0.0000 
     92 CA         62.2270   18.9915    7.9750 C.3       5 GLC5        0.0000 
     93 CA         61.8670   20.2010    9.5720 C.3      15 GLL5        0.0000 
     94 CA         62.5870   17.7820    6.3780 C.3      10 GLP5        0.0000 
     95 CA         61.1065   21.9150    8.6315 C.3       5 GLC5        0.0000 
     96 CA         60.3460   23.6290    7.6910 C.3      10 GLP5        0.0000 
     97 CA         63.5375   19.4015   10.7110 C.3       5 GLC5        0.0000 
     98 CA         65.2080   18.6020   11.8500 C.3      10 GLP5        0.0000 
     99 CA         60.1575   20.7410   10.7905 C.3       5 GLC5        0.0000 
    100 CA         58.4480   21.2810   12.0090 C.3      10 GLP5        0.0000 
    101 CA         63.1620   21.1565    8.2440 C.3       5 GLC5        0.0000 
    102 CA         64.4570   22.1120    6.9160 C.3      10 GLP5        0.0000 
    103 CA         61.2730   23.1625    9.4635 C.3       5 GLC5        0.0000 
    104 CA         62.2000   22.6960   11.2360 C.3      15 GLL5        0.0000 
    105 CA         64.1440   21.9445   11.3050 C.3       5 GLC5        0.0000 
    106 CA         66.0880   21.1930   11.3740 C.3      10 GLP5        0.0000 
    107 CA         60.7465   24.1730   11.5390 C.3       5 GLC5        0.0000 
    108 CA         59.2930   25.6500   11.8420 C.3      10 GLP5        0.0000 
    109 CA         60.3240   21.9885   11.6225 C.3       5 GLC5        0.0000 
    110 CA         62.7100   24.2340    9.9595 C.3       5 GLC5        0.0000 
    111 CA         63.2200   25.7720    8.6830 C.3      10 GLP5        0.0000 
    112 CA         63.4636   20.5209   12.3930 C.3       5 GLC5        0.0000 
    113 CA         61.4860   20.2250   11.0360 C.3      15 GLL5        0.0000 
    114 CA         65.2850   20.0380   12.4840 C.3      10 GLP5        0.0000 
    115 CA         57.8050   19.2278   12.3323 C.3       5 GLC5        0.0000 
    116 CA         57.8060   18.4190   13.0340 C.3      15 GLL5        0.0000 
    117 CA         57.6500   20.5000   11.2010 C.3      10 GLP5        0.0000 
    118 CA         63.8126   23.3189   15.4507 C.3       5 GLC5        0.0000 
    119 CA         62.6610   21.7100   16.1590 C.3      15 GLL5        0.0000 
    120 CA         65.4000   23.3820   14.4300 C.3      10 GLP5        0.0000 
    121 CA         62.8311   18.5681   12.9210 C.3       5 GLC5        0.0000 
    122 CA         61.2420   20.0510   13.7680 C.3      15 GLL5        0.0000 
@<TRIPOS>BOND
@<TRIPOS>SUBSTRUCTURE
     1 ALC1        6 GROUP        1 X    ALC  0     ROOT ALC X 1
     2 SEC2        1 GROUP        1 X    SEC  0     **** SEC X 2
     3 LYC4       31 GROUP        1 X    LYC  0     **** LYC X 4
     4 ZIC7       28 GROUP        1 X    ZIC  0     **** ZIC X 5
     5 GLC5       15 GROUP        1 X    GLC  0     **** GLC X 6
     6 ALP1        8 GROUP        1 Y    ALP  0     ROOT ALP Y 8
     7 SEP2        3 GROUP        1 Y    SEP  0     **** SEP Y 9
     8 LYP4       33 GROUP        1 Y    LYP  0     **** LYP Y 11
     9 ZIP7       30 GROUP        1 Y    ZIP  0     **** ZIP Y 12
    10 GLP5       17 GROUP        1 Y    GLP  0     **** GLP Y 13
    11 ALL1        7 GROUP        1 Z    ALL  0     ROOT ALL Z 15
    12 SEL2        2 GROUP        1 Z    SEL  0     **** SEL Z 16
    13 LYL4       32 GROUP        1 Z    LYL  0     **** LYL Z 18
    14 ZIL7       29 GROUP        1 Z    ZIL  0     **** ZIL Z 19
    15 GLL5       16 GROUP        1 Z    GLL  0     **** GLL Z 20
@<TRIPOS>SET

