#    Name: 3b04_OOP_1_ligand
#    Modification time : Mon Mar 24 18:32:38 2014

@<TRIPOS>MOLECULE
3b04_OOP_1_ligand
   76    78     1     0     0
SMALL
NO_CHARGES


@<TRIPOS>ATOM
      1 P          63.7490   26.8200   15.2150 P.3       1 OOP669      0.0000 
      2 N1         61.1720   18.5690   17.0840 N.am      1 OOP669      0.0000 
      3 C2         61.1500   17.3220   17.6370 C.2       1 OOP669      0.0000 
      4 O2         61.4390   17.2270   18.8580 O.2       1 OOP669      0.0000 
      5 N3         61.1980   16.2080   16.8380 N.am      1 OOP669      0.0000 
      6 C4         60.9820   16.3250   15.5000 C.2       1 OOP669      0.0000 
      7 O4         61.0930   15.3600   14.7300 O.2       1 OOP669      0.0000 
      8 N5         60.8630   17.7010   13.5600 N.pl3     1 OOP669      0.0000 
      9 C6         61.2490   18.9890   11.6150 C.ar      1 OOP669      0.0000 
     10 C7         61.4860   20.2250   11.0360 C.ar      1 OOP669      0.0000 
     11 C8         61.8750   21.3040   11.8260 C.ar      1 OOP669      0.0000 
     12 C9         61.6040   21.2430   13.1730 C.ar      1 OOP669      0.0000 
     13 PA         55.2500   13.9010   14.0820 P.3       1 OOP669      0.0000 
     14 PB         56.1170   11.2930   14.6740 P.3       1 OOP669      0.0000 
     15 C1'        61.2090   21.1780   16.0200 C.3       1 OOP669      0.0000 
     16 C10        61.1740   18.6830   15.7210 C.2       1 OOP669      0.0000 
     17 N10        61.1750   19.9710   15.1660 N.pl3     1 OOP669      0.0000 
     18 C11        56.7130   15.8370   14.9590 C.3       1 OOP669      0.0000 
     19 O11        56.4060   14.4760   15.0310 O.3       1 OOP669      0.0000 
     20 C12        57.5810   16.0890   13.7280 C.3       1 OOP669      0.0000 
     21 C13        58.9440   17.9050   15.0620 C.3       1 OOP669      0.0000 
     22 C14        58.2250   17.3370   16.2810 C.3       1 OOP669      0.0000 
     23 C15        57.8060   18.4190   13.0340 C.2       1 OOP669      0.0000 
     24 O15        57.5100   18.4310   16.8780 O.3       1 OOP669      0.0000 
     25 C16        58.1140   17.4920   13.8930 C.2       1 OOP669      0.0000 
     26 O1A        54.0200   13.5980   14.9470 O.co2     1 OOP669      0.0000 
     27 O1B        54.8290   10.5770   14.3610 O.co2     1 OOP669      0.0000 
     28 O1P        65.2600   26.9970   15.3620 O.co2     1 OOP669      0.0000 
     29 C2'        62.6610   21.7100   16.1590 C.3       1 OOP669      0.0000 
     30 O2'        63.5120   20.7470   16.8480 O.3       1 OOP669      0.0000 
     31 O2A        55.1270   14.6360   12.7630 O.co2     1 OOP669      0.0000 
     32 O2B        56.2170   11.8380   16.0890 O.co2     1 OOP669      0.0000 
     33 O2P        62.9710   28.1370   15.3300 O.co2     1 OOP669      0.0000 
     34 C3'        62.7460   23.0670   16.9010 C.3       1 OOP669      0.0000 
     35 O3'        62.4510   22.8070   18.2630 O.3       1 OOP669      0.0000 
     36 O3A        55.9740   12.5220   13.6560 O.3       1 OOP669      0.0000 
     37 O3B        57.3270   10.5830   14.1220 O.co2     1 OOP669      0.0000 
     38 O3P        63.3390   26.0240   14.0280 O.co2     1 OOP669      0.0000 
     39 C4'        61.7470   24.1230   16.4130 C.3       1 OOP669      0.0000 
     40 O4'        61.7890   24.0800   15.0000 O.3       1 OOP669      0.0000 
     41 C4A        60.4980   17.6460   14.9470 C.3       1 OOP669      0.0000 
     42 C5'        62.0520   25.5740   16.8750 C.3       1 OOP669      0.0000 
     43 O5'        63.4190   25.9610   16.5470 O.3       1 OOP669      0.0000 
     44 C5A        61.1320   18.8900   13.0010 C.ar      1 OOP669      0.0000 
     45 C7M        61.8670   20.2010    9.5720 C.3       1 OOP669      0.0000 
     46 C8M        62.2000   22.6960   11.2360 C.3       1 OOP669      0.0000 
     47 C9A        61.2420   20.0510   13.7680 C.ar      1 OOP669      0.0000 
     48 H          61.1868   19.4070   17.6783 H         1 OOP669      0.0000 
     49 H          61.3985   15.2828   17.2571 H         1 OOP669      0.0000 
     50 H          60.9055   16.8192   13.0404 H         1 OOP669      0.0000 
     51 H          61.1596   18.1503   11.0320 H         1 OOP669      0.0000 
     52 H          61.6718   22.1024   13.7513 H         1 OOP669      0.0000 
     53 H          60.8360   20.9560   17.0211 H         1 OOP669      0.0000 
     54 H          60.5996   21.9748   15.5906 H         1 OOP669      0.0000 
     55 H          57.2755   16.1893   15.8333 H         1 OOP669      0.0000 
     56 H          55.8189   16.4665   14.8630 H         1 OOP669      0.0000 
     57 H          56.9777   16.0254   12.8481 H         1 OOP669      0.0000 
     58 H          58.3877   15.3882   13.7118 H         1 OOP669      0.0000 
     59 H          58.8137   19.0320   15.1444 H         1 OOP669      0.0000 
     60 H          58.9678   16.9270   16.9524 H         1 OOP669      0.0000 
     61 H          57.5574   16.5540   15.9466 H         1 OOP669      0.0000 
     62 H          63.0507   21.8741   15.1465 H         1 OOP669      0.0000 
     63 H          63.7424   23.4505   16.7959 H         1 OOP669      0.0000 
     64 H          60.7641   23.8514   16.7684 H         1 OOP669      0.0000 
     65 H          61.8743   25.6195   17.9564 H         1 OOP669      0.0000 
     66 H          61.3239   26.2345   16.3883 H         1 OOP669      0.0000 
     67 H          62.0234   21.1215    9.2138 H         1 OOP669      0.0000 
     68 H          62.7054   19.6790    9.4149 H         1 OOP669      0.0000 
     69 H          61.1528   19.7849    9.0092 H         1 OOP669      0.0000 
     70 H          62.4584   23.3497   11.9473 H         1 OOP669      0.0000 
     71 H          62.9583   22.6558   10.5854 H         1 OOP669      0.0000 
     72 H          61.4174   23.0854   10.7503 H         1 OOP669      0.0000 
     73 H          56.6957   18.5487   16.3097 H         1 OOP669      0.0000 
     74 H          63.2708   19.8601   16.4539 H         1 OOP669      0.0000 
     75 H          62.6118   21.8269   18.3800 H         1 OOP669      0.0000 
     76 H          62.4187   24.8112   14.7375 H         1 OOP669      0.0000 
@<TRIPOS>BOND
     1   28    1 ar   
     2   33    1 ar   
     3   38    1 ar   
     4   43    1 1    
     5    3    2 1    
     6   16    2 2    
     7   48    2 1    
     8    4    3 2    
     9    5    3 1    
    10    6    5 1    
    11   49    5 1    
    12    7    6 2    
    13   41    6 1    
    14   41    8 1    
    15   44    8 1    
    16   50    8 1    
    17   10    9 ar   
    18   44    9 ar   
    19   51    9 1    
    20   11   10 ar   
    21   45   10 1    
    22   12   11 ar   
    23   46   11 1    
    24   47   12 ar   
    25   52   12 1    
    26   19   13 1    
    27   26   13 ar   
    28   31   13 ar   
    29   36   13 1    
    30   27   14 ar   
    31   32   14 ar   
    32   36   14 1    
    33   37   14 ar   
    34   17   15 1    
    35   29   15 1    
    36   53   15 1    
    37   54   15 1    
    38   17   16 1    
    39   41   16 1    
    40   47   17 1    
    41   19   18 1    
    42   20   18 1    
    43   55   18 1    
    44   56   18 1    
    45   25   20 1    
    46   57   20 1    
    47   58   20 1    
    48   22   21 1    
    49   25   21 1    
    50   41   21 1    
    51   59   21 1    
    52   24   22 1    
    53   60   22 1    
    54   61   22 1    
    55   25   23 2    
    56   73   24 1    
    57   30   29 1    
    58   34   29 1    
    59   62   29 1    
    60   74   30 1    
    61   35   34 1    
    62   39   34 1    
    63   63   34 1    
    64   75   35 1    
    65   40   39 1    
    66   42   39 1    
    67   64   39 1    
    68   76   40 1    
    69   43   42 1    
    70   65   42 1    
    71   66   42 1    
    72   47   44 ar   
    73   67   45 1    
    74   68   45 1    
    75   69   45 1    
    76   70   46 1    
    77   71   46 1    
    78   72   46 1    
@<TRIPOS>SUBSTRUCTURE
     1 OOP669      1 GROUP   
@<TRIPOS>SET

