#    Name: 1v79_FR7_1_INTS_M
#    Modification time : Tue Mar 25 07:31:45 2014

@<TRIPOS>MOLECULE
1v79_FR7_1_INTS_M
   60     0     9     0     0
SMALL
NO_CHARGES


@<TRIPOS>ATOM
      1 N          63.6845   65.8135   43.2835 N.am      2 SEC2        0.0000 
      2 N          62.9900   65.8200   44.3710 N.am      8 SEL2        0.0000 
      3 N          64.3790   65.8070   42.1960 N.am      5 SEP2        0.0000 
      4 O          66.0495   65.6340   44.4315 O.2       1 ALC1        0.0000 
      5 O          65.7620   65.8040   45.9000 O.2       7 ALL1        0.0000 
      6 O          66.3370   65.4640   42.9630 O.2       4 ALP1        0.0000 
      7 O          67.1655   66.0635   46.3865 O.2       1 ALC1        0.0000 
      8 O          68.5690   66.3230   46.8730 O.2       4 ALP1        0.0000 
      9 CA         58.2845   61.9870   44.9760 C.3       3 GLC5        0.0000 
     10 CA         59.1240   63.8220   45.9310 C.3       9 GLL5        0.0000 
     11 CA         57.4450   60.1520   44.0210 C.3       6 GLP5        0.0000 
     12 CA         57.1180   63.2450   46.6065 C.3       3 GLC5        0.0000 
     13 CA         55.1120   62.6680   47.2820 C.3       6 GLP5        0.0000 
     14 N          60.7685   62.6095   44.9630 N.am      2 SEC2        0.0000 
     15 N          59.3510   62.6680   45.0710 N.am      8 SEL2        0.0000 
     16 N          62.1860   62.5510   44.8550 N.am      5 SEP2        0.0000 
     17 O          59.2485   63.6470   43.8335 O.2       1 ALC1        0.0000 
     18 O          59.3510   62.6680   45.0710 O.2       7 ALL1        0.0000 
     19 O          59.1460   64.6260   42.5960 O.2       4 ALP1        0.0000 
     20 CA         58.7135   66.0650   48.7020 C.3       3 GLC5        0.0000 
     21 CA         59.2300   66.3100   46.7330 C.3       9 GLL5        0.0000 
     22 CA         58.1970   65.8200   50.6710 C.3       6 GLP5        0.0000 
     23 CA         60.0925   68.1700   44.9835 C.3       3 GLC5        0.0000 
     24 CA         59.8110   67.7760   46.6780 C.3       9 GLL5        0.0000 
     25 CA         60.3740   68.5640   43.2890 C.3       6 GLP5        0.0000 
     26 CA         61.0725   70.5575   50.3850 C.3       3 GLC5        0.0000 
     27 CA         60.3630   69.4420   51.6430 C.3       9 GLL5        0.0000 
     28 CA         61.7820   71.6730   49.1270 C.3       6 GLP5        0.0000 
     29 CA         60.9835   67.6590   51.9820 C.3       3 GLC5        0.0000 
     30 CA         61.6040   65.8760   52.3210 C.3       6 GLP5        0.0000 
     31 CA         61.5495   69.3930   53.5420 C.3       3 GLC5        0.0000 
     32 CA         62.7360   69.3440   55.4410 C.3       6 GLP5        0.0000 
     33 CA         61.6945   69.8695   49.1250 C.3       3 GLC5        0.0000 
     34 CA         61.6070   68.0660   49.1230 C.3       9 GLL5        0.0000 
     35 CA         59.9020   66.9430   49.8970 C.3       3 GLC5        0.0000 
     36 CA         61.6055   66.9710   50.7220 C.3       3 GLC5        0.0000 
     37 CA         58.5565   63.7210   48.7920 C.3       3 GLC5        0.0000 
     38 CA         59.6760   63.2060   47.2370 C.3       9 GLL5        0.0000 
     39 CA         57.4370   64.2360   50.3470 C.3       6 GLP5        0.0000 
     40 CA         60.5575   62.6755   48.7330 C.3       3 GLC5        0.0000 
     41 CA         61.4390   62.1450   50.2290 C.3       6 GLP5        0.0000 
     42 CA         62.8040   64.0840   44.9210 C.3       3 GLC5        0.0000 
     43 CA         62.0880   65.4480   46.3820 C.3       9 GLL5        0.0000 
     44 CA         62.9320   62.5830   43.7540 C.3       6 GLP5        0.0000 
     45 CA         59.9002   67.1825   44.7287 C.3       3 GLC5        0.0000 
     46 CA         59.6230   65.2920   45.6040 C.3       9 GLL5        0.0000 
     47 CA         59.2210   61.5280   46.9475 C.3       3 GLC5        0.0000 
     48 CA         59.0420   59.5420   47.3110 C.3       6 GLP5        0.0000 
     49 CA         57.5692   66.9045   47.1307 C.3       3 GLC5        0.0000 
     50 CA         55.6180   66.7660   47.5560 C.3       6 GLP5        0.0000 
     51 CA         60.7340   70.1573   48.7800 C.3       3 GLC5        0.0000 
     52 CA         59.3510   68.6040   47.8340 C.3       9 GLL5        0.0000 
     53 CA         58.9415   67.2308   49.5520 C.3       3 GLC5        0.0000 
     54 CA         56.8779   68.0844   47.9507 C.3       3 GLC5        0.0000 
     55 CA         58.0252   67.8307   50.0927 C.3       3 GLC5        0.0000 
     56 CA         57.5320   69.8640   48.8940 C.3       9 GLL5        0.0000 
     57 CA         60.2965   70.6103   49.6365 C.3       3 GLC5        0.0000 
     58 CA         58.1750   69.8190   50.1350 C.3       9 GLL5        0.0000 
     59 CA         59.0510   67.5895   50.7855 C.3       3 GLC5        0.0000 
     60 CA         59.4470   69.2760   50.1570 C.3       9 GLL5        0.0000 
@<TRIPOS>BOND
@<TRIPOS>SUBSTRUCTURE
     1 ALC1        4 GROUP        1 X    ALC  0     ROOT ALC X 1
     2 SEC2        1 GROUP        1 X    SEC  0     **** SEC X 2
     3 GLC5        9 GROUP        1 X    GLC  0     **** GLC X 6
     4 ALP1        6 GROUP        1 Y    ALP  0     ROOT ALP Y 8
     5 SEP2        3 GROUP        1 Y    SEP  0     **** SEP Y 9
     6 GLP5       11 GROUP        1 Y    GLP  0     **** GLP Y 13
     7 ALL1        5 GROUP        1 Z    ALL  0     ROOT ALL Z 15
     8 SEL2        2 GROUP        1 Z    SEL  0     **** SEL Z 16
     9 GLL5       10 GROUP        1 Z    GLL  0     **** GLL Z 20
@<TRIPOS>SET

