#    Name: 1v79_FR7_1_ligand
#    Modification time : Tue Mar 25 07:31:45 2014

@<TRIPOS>MOLECULE
1v79_FR7_1_ligand
   39    40     1     0     0
SMALL
NO_CHARGES


@<TRIPOS>ATOM
      1 C1         62.0880   65.4480   46.3820 C.2       1 FR71001     0.0000 
      2 N2         61.0600   65.2680   45.3450 N.pl3     1 FR71001     0.0000 
      3 C3         61.6880   65.5840   44.2340 C.2       1 FR71001     0.0000 
      4 N4         62.9900   65.8200   44.3710 N.2       1 FR71001     0.0000 
      5 C5         63.2640   65.7220   45.7940 C.2       1 FR71001     0.0000 
      6 C8         64.5920   65.8730   46.4960 C.2       1 FR71001     0.0000 
      7 O9         64.4650   66.0780   47.6370 O.2       1 FR71001     0.0000 
      8 N10        65.7620   65.8040   45.9000 N.am      1 FR71001     0.0000 
      9 C13        59.6230   65.2920   45.6040 C.3       1 FR71001     0.0000 
     10 C14        59.1240   63.8220   45.9310 C.3       1 FR71001     0.0000 
     11 O15        59.3510   62.6680   45.0710 O.3       1 FR71001     0.0000 
     12 C18        59.2300   66.3100   46.7330 C.3       1 FR71001     0.0000 
     13 C2         59.8110   67.7760   46.6780 C.3       1 FR71001     0.0000 
     14 C22        59.3510   68.6040   47.8340 C.ar      1 FR71001     0.0000 
     15 C25        58.1360   69.2790   47.7600 C.ar      1 FR71001     0.0000 
     16 C26        57.5320   69.8640   48.8940 C.ar      1 FR71001     0.0000 
     17 C27        58.1750   69.8190   50.1350 C.ar      1 FR71001     0.0000 
     18 C28        59.4470   69.2760   50.1570 C.ar      1 FR71001     0.0000 
     19 C29        60.0210   68.6790   49.0320 C.ar      1 FR71001     0.0000 
     20 CL1        60.3630   69.4420   51.6430 Cl        1 FR71001     0.0000 
     21 CL2        61.6070   68.0660   49.1230 Cl        1 FR71001     0.0000 
     22 C9         59.6760   63.2060   47.2370 C.3       1 FR71001     0.0000 
     23 H          61.8798   65.3680   47.3055 H         1 FR71001     0.0000 
     24 H          61.2198   65.6456   43.3318 H         1 FR71001     0.0000 
     25 H          66.5623   65.9357   46.4850 H         1 FR71001     0.0000 
     26 H          65.7448   65.6261   44.9161 H         1 FR71001     0.0000 
     27 H          59.0870   65.5947   44.6940 H         1 FR71001     0.0000 
     28 H          58.0123   63.8660   46.1326 H         1 FR71001     0.0000 
     29 H          59.5164   65.8658   47.7159 H         1 FR71001     0.0000 
     30 H          58.1169   66.3846   46.7608 H         1 FR71001     0.0000 
     31 H          59.4902   68.2197   45.7326 H         1 FR71001     0.0000 
     32 H          60.9005   67.6959   46.6690 H         1 FR71001     0.0000 
     33 H          57.6510   69.3596   46.8440 H         1 FR71001     0.0000 
     34 H          56.6197   70.3215   48.8014 H         1 FR71001     0.0000 
     35 H          57.7285   70.1662   50.9662 H         1 FR71001     0.0000 
     36 H          60.6743   63.1482   47.2274 H         1 FR71001     0.0000 
     37 H          59.4214   63.7463   48.0390 H         1 FR71001     0.0000 
     38 H          59.3301   62.2796   47.3858 H         1 FR71001     0.0000 
     39 H          59.3120   63.0283   44.1390 H         1 FR71001     0.0000 
@<TRIPOS>BOND
     1    2    1 1    
     2    5    1 2    
     3   23    1 1    
     4    3    2 1    
     5    9    2 1    
     6    4    3 2    
     7   24    3 1    
     8    5    4 1    
     9    6    5 1    
    10    7    6 2    
    11    8    6 am   
    12   25    8 1    
    13   26    8 1    
    14   10    9 1    
    15   12    9 1    
    16   27    9 1    
    17   11   10 1    
    18   22   10 1    
    19   28   10 1    
    20   39   11 1    
    21   13   12 1    
    22   29   12 1    
    23   30   12 1    
    24   14   13 1    
    25   31   13 1    
    26   32   13 1    
    27   15   14 ar   
    28   19   14 ar   
    29   16   15 ar   
    30   33   15 1    
    31   17   16 ar   
    32   34   16 1    
    33   18   17 ar   
    34   35   17 1    
    35   19   18 ar   
    36   20   18 1    
    37   21   19 1    
    38   36   22 1    
    39   37   22 1    
    40   38   22 1    
@<TRIPOS>SUBSTRUCTURE
     1 FR71001     1 GROUP   
@<TRIPOS>SET

