#    Name: 3blr_CPB_1_INTS_M
#    Modification time : Mon Mar 24 19:51:03 2014

@<TRIPOS>MOLECULE
3blr_CPB_1_INTS_M
   76     0    12     0     0
SMALL
NO_CHARGES


@<TRIPOS>ATOM
      1 CA         49.4285  -22.4940  -12.3375 C.3       4 GLC5        0.0000 
      2 CA         49.4980  -21.3640  -10.7920 C.3      12 GLL5        0.0000 
      3 CA         49.3590  -23.6240  -13.8830 C.3       8 GLP5        0.0000 
      4 CA         48.3975  -19.5210  -10.2195 C.3       4 GLC5        0.0000 
      5 CA         47.2970  -17.6780   -9.6470 C.3       8 GLP5        0.0000 
      6 OD1        48.6175  -20.0290  -11.0305 O.co2     3 ASC3        0.0000 
      7 OD1        50.2020  -20.2380  -11.3840 O.co2    11 ASL3        0.0000 
      8 OD1        47.0330  -19.8200  -10.6770 O.co2     7 ASP3        0.0000 
      9 O          48.6175  -20.0290  -11.0305 O.2       1 ALC1        0.0000 
     10 O          50.2020  -20.2380  -11.3840 O.2       9 ALL1        0.0000 
     11 O          47.0330  -19.8200  -10.6770 O.2       5 ALP1        0.0000 
     12 CA         51.0270  -19.0200   -8.3510 C.3       4 GLC5        0.0000 
     13 CA         50.9700  -19.3940  -10.4650 C.3      12 GLL5        0.0000 
     14 CA         51.0840  -18.6460   -6.2370 C.3       8 GLP5        0.0000 
     15 CA         52.7085  -17.2335   -9.9700 C.3       4 GLC5        0.0000 
     16 CA         50.8570  -17.9390  -10.8980 C.3      12 GLL5        0.0000 
     17 CA         54.5600  -16.5280   -9.0420 C.3       8 GLP5        0.0000 
     18 CA         50.7185  -16.1395   -9.8915 C.3       4 GLC5        0.0000 
     19 CA         50.5800  -14.3400   -8.8850 C.3       8 GLP5        0.0000 
     20 CA         48.5385  -18.1260  -14.3250 C.3       4 GLC5        0.0000 
     21 CA         50.1790  -18.5560  -13.2110 C.3      12 GLL5        0.0000 
     22 CA         46.8980  -17.6960  -15.4390 C.3       8 GLP5        0.0000 
     23 CA         53.0560  -16.7385  -15.0665 C.3       4 GLC5        0.0000 
     24 CA         52.8130  -16.0660  -12.9980 C.3      12 GLL5        0.0000 
     25 CA         53.2990  -17.4110  -17.1350 C.3       8 GLP5        0.0000 
     26 CA         54.1885  -17.1125  -15.1515 C.3       4 GLC5        0.0000 
     27 CA         55.0780  -16.8140  -13.1680 C.3      12 GLL5        0.0000 
     28 CA         54.7450  -14.3205  -15.1840 C.3       4 GLC5        0.0000 
     29 CA         55.5330  -15.5430  -13.4920 C.3      12 GLL5        0.0000 
     30 CA         53.9570  -13.0980  -16.8760 C.3       8 GLP5        0.0000 
     31 CA         57.0860  -14.9485  -14.9775 C.3       4 GLC5        0.0000 
     32 CA         58.6390  -14.3540  -16.4630 C.3       8 GLP5        0.0000 
     33 N          56.2810  -12.4875  -13.5270 N.am      2 SEC2        0.0000 
     34 N          55.0230  -13.3640  -13.8940 N.am     10 SEL2        0.0000 
     35 N          57.5390  -11.6110  -13.1600 N.am      6 SEP2        0.0000 
     36 CA         51.8655  -11.9250  -14.3885 C.3       4 GLC5        0.0000 
     37 CA         52.2280  -13.7770  -13.4060 C.3      12 GLL5        0.0000 
     38 CA         51.5030  -10.0730  -15.3710 C.3       8 GLP5        0.0000 
     39 CA         55.2985  -17.2285  -11.0190 C.3       4 GLC5        0.0000 
     40 CA         56.0370  -17.9290  -12.9960 C.3      12 GLL5        0.0000 
     41 CA         54.3660  -21.1165  -15.0795 C.3       4 GLC5        0.0000 
     42 CA         54.0340  -19.7670  -13.6430 C.3      12 GLL5        0.0000 
     43 CA         54.6980  -22.4660  -16.5160 C.3       8 GLP5        0.0000 
     44 CA         52.6760  -21.3915  -14.3835 C.3       4 GLC5        0.0000 
     45 CA         51.3180  -23.0160  -15.1240 C.3       8 GLP5        0.0000 
     46 CA         52.7775  -19.4360  -15.2105 C.3       4 GLC5        0.0000 
     47 CA         51.5210  -19.1050  -16.7780 C.3       8 GLP5        0.0000 
     48 CA         59.4770  -17.5095  -10.7965 C.3       4 GLC5        0.0000 
     49 CA         58.2720  -18.5590  -12.3330 C.3      12 GLL5        0.0000 
     50 CA         60.6820  -16.4600   -9.2600 C.3       8 GLP5        0.0000 
     51 CA         49.1052  -18.1723  -10.1643 C.3       4 GLC5        0.0000 
     52 CA         49.6890  -20.6225  -14.3003 C.3       4 GLC5        0.0000 
     53 CA         49.2230  -21.9490  -15.5750 C.3       8 GLP5        0.0000 
     54 CA         50.8380  -19.2005  -14.9017 C.3       4 GLC5        0.0000 
     55 CA         50.1310  -20.0360  -12.8400 C.3      12 GLL5        0.0000 
     56 CA         53.0482  -15.3417  -11.5410 C.3       4 GLC5        0.0000 
     57 CA         51.4840  -16.3970  -12.7500 C.3      12 GLL5        0.0000 
     58 CA         53.9480  -14.4520  -10.2080 C.3       8 GLP5        0.0000 
     59 CA         56.2188  -16.8788  -14.7960 C.3       4 GLC5        0.0000 
     60 CA         57.1320  -17.5790  -16.2620 C.3       8 GLP5        0.0000 
     61 CA         54.6268  -15.3152  -11.7690 C.3       4 GLC5        0.0000 
     62 CA         53.3332  -13.6867  -15.1223 C.3       4 GLC5        0.0000 
     63 CA         53.1910  -14.7740  -13.3310 C.3      12 GLL5        0.0000 
     64 CA         53.3287  -14.3637  -11.7883 C.3       4 GLC5        0.0000 
     65 CA         51.5102  -12.3435  -12.1410 C.3       4 GLC5        0.0000 
     66 CA         51.4570  -10.7530  -11.0050 C.3       8 GLP5        0.0000 
     67 CA         52.3293  -14.5950  -11.5915 C.3       4 GLC5        0.0000 
     68 CA         50.8990  -14.0910  -13.1480 C.3      12 GLL5        0.0000 
     69 CA         50.7655  -14.6655  -10.9235 C.3       4 GLC5        0.0000 
     70 CA         56.4958  -18.0885  -14.6628 C.3       4 GLC5        0.0000 
     71 CA         57.2088  -18.8253  -14.4795 C.3       4 GLC5        0.0000 
     72 CA         56.6420  -20.2480  -12.8930 C.3      12 GLL5        0.0000 
     73 CA         57.5067  -19.2480  -10.3740 C.3       4 GLC5        0.0000 
     74 CA         57.9290  -19.8950  -12.5010 C.3      12 GLL5        0.0000 
     75 CA         56.9130  -19.2690   -8.3310 C.3       8 GLP5        0.0000 
     76 CA         57.4630  -17.8245  -14.3565 C.3       4 GLC5        0.0000 
@<TRIPOS>BOND
@<TRIPOS>SUBSTRUCTURE
     1 ALC1        9 GROUP        1 X    ALC  0     ROOT ALC X 1
     2 SEC2       33 GROUP        1 X    SEC  0     **** SEC X 2
     3 ASC3        6 GROUP        1 X    ASC  0     **** ASC X 3
     4 GLC5        1 GROUP        1 X    GLC  0     **** GLC X 6
     5 ALP1       11 GROUP        1 Y    ALP  0     ROOT ALP Y 8
     6 SEP2       35 GROUP        1 Y    SEP  0     **** SEP Y 9
     7 ASP3        8 GROUP        1 Y    ASP  0     **** ASP Y 10
     8 GLP5        3 GROUP        1 Y    GLP  0     **** GLP Y 13
     9 ALL1       10 GROUP        1 Z    ALL  0     ROOT ALL Z 15
    10 SEL2       34 GROUP        1 Z    SEL  0     **** SEL Z 16
    11 ASL3        7 GROUP        1 Z    ASL  0     **** ASL Z 17
    12 GLL5        2 GROUP        1 Z    GLL  0     **** GLL Z 20
@<TRIPOS>SET

