#    Name: 3blr_CPB_1_ligand
#    Modification time : Mon Mar 24 19:51:03 2014

@<TRIPOS>MOLECULE
3blr_CPB_1_ligand
   49    52     1     0     0
SMALL
NO_CHARGES


@<TRIPOS>ATOM
      1 C1         49.4980  -21.3640  -10.7920 C.3       1 CPB940      0.0000 
      2 N1         50.2020  -20.2380  -11.3840 N.4       1 CPB940      0.0000 
      3 C16        50.9700  -19.3940  -10.4650 C.3       1 CPB940      0.0000 
      4 C15        50.8570  -17.9390  -10.8980 C.3       1 CPB940      0.0000 
      5 C14        51.2170  -17.8200  -12.3680 C.3       1 CPB940      0.0000 
      6 C13        50.1790  -18.5560  -13.2110 C.3       1 CPB940      0.0000 
      7 C12        50.1310  -20.0360  -12.8400 C.3       1 CPB940      0.0000 
      8 C8         51.4840  -16.3970  -12.7500 C.ar      1 CPB940      0.0000 
      9 C9         52.8130  -16.0660  -12.9980 C.ar      1 CPB940      0.0000 
     10 O1         53.7580  -17.0500  -12.9140 O.3       1 CPB940      0.0000 
     11 C2         55.0780  -16.8140  -13.1680 C.2       1 CPB940      0.0000 
     12 C3         55.5330  -15.5430  -13.4920 C.2       1 CPB940      0.0000 
     13 C4         54.6270  -14.5020  -13.5910 C.2       1 CPB940      0.0000 
     14 O4         55.0230  -13.3640  -13.8940 O.2       1 CPB940      0.0000 
     15 C10        53.1910  -14.7740  -13.3310 C.ar      1 CPB940      0.0000 
     16 C5         52.2280  -13.7770  -13.4060 C.ar      1 CPB940      0.0000 
     17 O5         52.5790  -12.5040  -13.7320 O.3       1 CPB940      0.0000 
     18 C6         50.8990  -14.0910  -13.1480 C.ar      1 CPB940      0.0000 
     19 C7         50.5220  -15.3850  -12.8020 C.ar      1 CPB940      0.0000 
     20 O7         49.2040  -15.6190  -12.5610 O.3       1 CPB940      0.0000 
     21 C21        56.0370  -17.9290  -12.9960 C.ar      1 CPB940      0.0000 
     22 C22        55.6820  -19.2670  -13.1310 C.ar      1 CPB940      0.0000 
     23 CL1        54.0340  -19.7670  -13.6430 Cl        1 CPB940      0.0000 
     24 C23        56.6420  -20.2480  -12.8930 C.ar      1 CPB940      0.0000 
     25 C24        57.9290  -19.8950  -12.5010 C.ar      1 CPB940      0.0000 
     26 C25        58.2720  -18.5590  -12.3330 C.ar      1 CPB940      0.0000 
     27 C26        57.3160  -17.5810  -12.5690 C.ar      1 CPB940      0.0000 
     28 O3         48.8760  -18.0110  -13.0010 O.3       1 CPB940      0.0000 
     29 H          49.0384  -19.4158  -11.1890 H         1 CPB940      0.0000 
     30 H          52.0239  -19.6758  -10.4686 H         1 CPB940      0.0000 
     31 H          50.5891  -19.4831   -9.4466 H         1 CPB940      0.0000 
     32 H          51.5368  -17.3341  -10.3079 H         1 CPB940      0.0000 
     33 H          49.8396  -17.5959  -10.7447 H         1 CPB940      0.0000 
     34 H          52.1805  -18.3900  -12.4855 H         1 CPB940      0.0000 
     35 H          50.4650  -18.4847  -14.2495 H         1 CPB940      0.0000 
     36 H          49.2008  -20.4624  -13.2425 H         1 CPB940      0.0000 
     37 H          50.9682  -20.5442  -13.3400 H         1 CPB940      0.0000 
     38 H          56.5321  -15.3794  -13.6561 H         1 CPB940      0.0000 
     39 H          50.1776  -13.3512  -13.2141 H         1 CPB940      0.0000 
     40 H          56.3958  -21.2426  -13.0085 H         1 CPB940      0.0000 
     41 H          58.6329  -20.6302  -12.3341 H         1 CPB940      0.0000 
     42 H          59.2171  -18.3004  -12.0392 H         1 CPB940      0.0000 
     43 H          57.5531  -16.5862  -12.4274 H         1 CPB940      0.0000 
     44 H          50.1248  -21.9953  -10.3353 H         1 CPB940      0.0000 
     45 H          48.8312  -21.0673  -10.1084 H         1 CPB940      0.0000 
     46 H          48.9985  -21.8923  -11.4786 H         1 CPB940      0.0000 
     47 H          53.5712  -12.5322  -13.8532 H         1 CPB940      0.0000 
     48 H          49.1571  -16.5809  -12.2917 H         1 CPB940      0.0000 
     49 H          48.4287  -18.0585  -13.8942 H         1 CPB940      0.0000 
@<TRIPOS>BOND
     1    2    1 1    
     2   44    1 1    
     3   45    1 1    
     4   46    1 1    
     5    3    2 1    
     6    7    2 1    
     7   29    2 1    
     8    4    3 1    
     9   30    3 1    
    10   31    3 1    
    11    5    4 1    
    12   32    4 1    
    13   33    4 1    
    14    6    5 1    
    15    8    5 1    
    16   34    5 1    
    17    7    6 1    
    18   28    6 1    
    19   35    6 1    
    20   36    7 1    
    21   37    7 1    
    22    9    8 ar   
    23   19    8 ar   
    24   10    9 1    
    25   15    9 ar   
    26   11   10 1    
    27   12   11 2    
    28   21   11 1    
    29   13   12 1    
    30   38   12 1    
    31   14   13 2    
    32   15   13 1    
    33   16   15 ar   
    34   17   16 1    
    35   18   16 ar   
    36   47   17 1    
    37   19   18 ar   
    38   39   18 1    
    39   20   19 1    
    40   48   20 1    
    41   22   21 ar   
    42   27   21 ar   
    43   23   22 1    
    44   24   22 ar   
    45   25   24 ar   
    46   40   24 1    
    47   26   25 ar   
    48   41   25 1    
    49   27   26 ar   
    50   42   26 1    
    51   43   27 1    
    52   49   28 1    
@<TRIPOS>SUBSTRUCTURE
     1 CPB940      1 GROUP   
@<TRIPOS>SET

