#    Name: 4gfn_SUY_1_INTS_M
#    Modification time : Mon Mar 24 22:10:13 2014

@<TRIPOS>MOLECULE
4gfn_SUY_1_INTS_M
   60     0     6     0     0
SMALL
NO_CHARGES


@<TRIPOS>ATOM
      1 CA        -15.9650   -1.8905   -9.8405 C.3       2 GLC5        0.0000 
      2 CA        -14.4880   -3.3330  -10.1430 C.3       6 GLL5        0.0000 
      3 CA        -17.4420   -0.4480   -9.5380 C.3       4 GLP5        0.0000 
      4 O         -14.6435   -4.5225  -12.9165 O.2       1 ALC1        0.0000 
      5 O         -13.3590   -4.2660  -12.7830 O.2       5 ALL1        0.0000 
      6 O         -15.9280   -4.7790  -13.0500 O.2       3 ALP1        0.0000 
      7 CA        -12.9580   -5.9280  -12.0115 C.3       2 GLC5        0.0000 
      8 CA        -12.4000   -4.8090  -13.5740 C.3       6 GLL5        0.0000 
      9 CA        -13.5160   -7.0470  -10.4490 C.3       4 GLP5        0.0000 
     10 CA        -11.2870   -2.2305  -13.8745 C.3       2 GLC5        0.0000 
     11 CA        -11.0880   -4.1340  -13.3990 C.3       6 GLL5        0.0000 
     12 CA        -11.4860   -0.3270  -14.3500 C.3       4 GLP5        0.0000 
     13 CA         -7.3300   -6.0850  -13.5120 C.3       2 GLC5        0.0000 
     14 CA         -7.5540   -4.7770  -15.0060 C.3       6 GLL5        0.0000 
     15 CA         -7.1060   -7.3930  -12.0180 C.3       4 GLP5        0.0000 
     16 CA         -7.2845   -7.0050  -15.0095 C.3       2 GLC5        0.0000 
     17 CA         -7.0150   -9.2330  -15.0130 C.3       4 GLP5        0.0000 
     18 O          -6.5055   -0.0635  -16.4720 O.2       1 ALC1        0.0000 
     19 O          -6.4450   -1.5820  -16.7750 O.2       5 ALL1        0.0000 
     20 O          -6.5660    1.4550  -16.1690 O.2       3 ALP1        0.0000 
     21 CA         -9.8835   -1.5550  -14.0470 C.3       2 GLC5        0.0000 
     22 CA         -8.2810   -2.7830  -13.7440 C.3       6 GLL5        0.0000 
     23 CA         -8.7125   -4.2075  -12.1260 C.3       2 GLC5        0.0000 
     24 CA         -9.1440   -5.6320  -10.5080 C.3       4 GLP5        0.0000 
     25 CA         -6.9435   -2.7710  -12.2590 C.3       2 GLC5        0.0000 
     26 CA         -5.6060   -2.7590  -10.7740 C.3       4 GLP5        0.0000 
     27 CA        -10.4220   -6.4050  -13.4025 C.3       2 GLC5        0.0000 
     28 CA        -11.3970   -6.2410  -15.1360 C.3       6 GLL5        0.0000 
     29 CA         -9.4470   -6.5690  -11.6690 C.3       4 GLP5        0.0000 
     30 CA        -12.0265   -9.0545  -14.6255 C.3       2 GLC5        0.0000 
     31 CA        -11.6320   -7.5660  -16.1430 C.3       6 GLL5        0.0000 
     32 CA        -12.4210  -10.5430  -13.1080 C.3       4 GLP5        0.0000 
     33 CA        -10.3380   -8.1685  -14.5205 C.3       2 GLC5        0.0000 
     34 CA         -9.0440   -8.7710  -12.8980 C.3       4 GLP5        0.0000 
     35 CA        -11.4955  -10.4070  -17.3735 C.3       2 GLC5        0.0000 
     36 CA         -9.8750   -9.1760  -17.3620 C.3       6 GLL5        0.0000 
     37 CA        -13.1160  -11.6380  -17.3850 C.3       4 GLP5        0.0000 
     38 CA         -7.1205   -9.1890  -17.3395 C.3       2 GLC5        0.0000 
     39 CA         -8.1990   -8.3900  -18.8010 C.3       6 GLL5        0.0000 
     40 CA         -6.0420   -9.9880  -15.8780 C.3       4 GLP5        0.0000 
     41 CA        -11.1867   -1.4385  -13.1585 C.3       2 GLC5        0.0000 
     42 CA        -11.4590   -3.1370  -12.3800 C.3       6 GLL5        0.0000 
     43 CA        -10.0158   -4.0910  -11.2375 C.3       2 GLC5        0.0000 
     44 CA        -12.3712   -1.5802  -12.9337 C.3       2 GLC5        0.0000 
     45 CA        -12.8740   -3.2510  -12.0190 C.3       6 GLL5        0.0000 
     46 CA        -13.8483   -1.0838   -9.8033 C.3       2 GLC5        0.0000 
     47 CA        -13.6330    0.7070   -9.0270 C.3       4 GLP5        0.0000 
     48 CA        -13.0612   -2.9468   -8.8993 C.3       2 GLC5        0.0000 
     49 CA        -13.6390   -2.4160  -11.0160 C.3       6 GLL5        0.0000 
     50 CA        -12.0590   -3.0190   -7.2190 C.3       4 GLP5        0.0000 
     51 CA        -13.1806   -4.7601  -10.1391 C.3       2 GLC5        0.0000 
     52 CA        -12.4890   -6.4370   -9.4480 C.3       4 GLP5        0.0000 
     53 CA        -10.1385   -5.5614  -12.7541 C.3       2 GLC5        0.0000 
     54 CA         -9.9160   -4.6360  -14.1920 C.3       6 GLL5        0.0000 
     55 CA         -5.7153   -3.8268  -13.5839 C.3       2 GLC5        0.0000 
     56 CA         -4.3340   -4.3630  -12.2490 C.3       4 GLP5        0.0000 
     57 CA        -13.1977   -6.7452  -16.7358 C.3       2 GLC5        0.0000 
     58 CA        -14.8810   -6.5870  -17.8320 C.3       4 GLP5        0.0000 
     59 CA         -8.5527   -8.8777  -16.1380 C.3       2 GLC5        0.0000 
     60 CA        -10.3060   -7.8690  -17.1640 C.3       6 GLL5        0.0000 
@<TRIPOS>BOND
@<TRIPOS>SUBSTRUCTURE
     1 ALC1        4 GROUP        1 X    ALC  0     ROOT ALC X 1
     2 GLC5        1 GROUP        1 X    GLC  0     **** GLC X 6
     3 ALP1        6 GROUP        1 Y    ALP  0     ROOT ALP Y 8
     4 GLP5        3 GROUP        1 Y    GLP  0     **** GLP Y 13
     5 ALL1        5 GROUP        1 Z    ALL  0     ROOT ALL Z 15
     6 GLL5        2 GROUP        1 Z    GLL  0     **** GLL Z 20
@<TRIPOS>SET

