#    Name: 4gfn_SUY_1_ligand
#    Modification time : Mon Mar 24 22:10:13 2014

@<TRIPOS>MOLECULE
4gfn_SUY_1_ligand
   45    49     1     0     0
SMALL
NO_CHARGES


@<TRIPOS>ATOM
      1 CL1       -10.3160   -1.9630  -11.5540 Cl        1 SUY301      0.0000 
      2 C9        -11.4590   -3.1370  -12.3800 C.2       1 SUY301      0.0000 
      3 C8        -12.8740   -3.2510  -12.0190 C.2       1 SUY301      0.0000 
      4 C10       -13.6390   -2.4160  -11.0160 C.3       1 SUY301      0.0000 
      5 C11       -14.4880   -3.3330  -10.1430 C.3       1 SUY301      0.0000 
      6 N7        -13.3590   -4.2660  -12.7830 N.pl3     1 SUY301      0.0000 
      7 C6        -12.4000   -4.8090  -13.5740 C.ar      1 SUY301      0.0000 
      8 N1        -12.4710   -5.8220  -14.4570 N.ar      1 SUY301      0.0000 
      9 C5        -11.0880   -4.1340  -13.3990 C.ar      1 SUY301      0.0000 
     10 C4         -9.9160   -4.6360  -14.1920 C.ar      1 SUY301      0.0000 
     11 N13        -8.6090   -4.1130  -14.2400 N.3       1 SUY301      0.0000 
     12 C17        -7.5540   -4.7770  -15.0060 C.3       1 SUY301      0.0000 
     13 C16        -6.6460   -3.6090  -15.4250 C.3       1 SUY301      0.0000 
     14 C18        -7.3930   -2.4700  -16.1140 C.3       1 SUY301      0.0000 
     15 N19        -6.4450   -1.5820  -16.7750 N.4       1 SUY301      0.0000 
     16 C15        -7.0930   -2.3880  -14.6220 C.3       1 SUY301      0.0000 
     17 C14        -8.2810   -2.7830  -13.7440 C.3       1 SUY301      0.0000 
     18 N3        -10.1750   -5.6650  -15.0250 N.ar      1 SUY301      0.0000 
     19 C2        -11.3970   -6.2410  -15.1360 C.ar      1 SUY301      0.0000 
     20 S20       -11.6320   -7.5660  -16.1430 S.3       1 SUY301      0.0000 
     21 C21       -10.3060   -7.8690  -17.1640 C.ar      1 SUY301      0.0000 
     22 C26        -9.8750   -9.1760  -17.3620 C.ar      1 SUY301      0.0000 
     23 N25        -8.8240   -9.4080  -18.1730 N.ar      1 SUY301      0.0000 
     24 C24        -8.1990   -8.3900  -18.8010 C.ar      1 SUY301      0.0000 
     25 N23        -8.6020   -7.1190  -18.6330 N.ar      1 SUY301      0.0000 
     26 C22        -9.6420   -6.8330  -17.8300 C.ar      1 SUY301      0.0000 
     27 H         -14.2856   -1.7193  -11.5373 H         1 SUY301      0.0000 
     28 H         -12.9439   -1.8688  -10.3895 H         1 SUY301      0.0000 
     29 H         -14.2961   -4.5697  -12.7631 H         1 SUY301      0.0000 
     30 H          -7.9377   -5.2402  -15.8833 H         1 SUY301      0.0000 
     31 H          -6.9899   -5.4451  -14.4002 H         1 SUY301      0.0000 
     32 H          -5.7778   -3.5761  -15.5735 H         1 SUY301      0.0000 
     33 H          -8.2369   -2.6763  -16.2463 H         1 SUY301      0.0000 
     34 H          -6.3977   -1.8582  -14.4583 H         1 SUY301      0.0000 
     35 H          -7.9629   -2.8084  -12.7295 H         1 SUY301      0.0000 
     36 H          -9.0737   -2.0938  -13.9109 H         1 SUY301      0.0000 
     37 H         -10.3671   -9.9458  -16.8847 H         1 SUY301      0.0000 
     38 H          -7.3845   -8.5970  -19.4309 H         1 SUY301      0.0000 
     39 H          -9.9672   -5.8638  -17.6896 H         1 SUY301      0.0000 
     40 H         -13.9276   -3.9935   -9.6432 H         1 SUY301      0.0000 
     41 H         -15.0113   -2.8189   -9.4634 H         1 SUY301      0.0000 
     42 H         -15.1457   -3.8569  -10.6843 H         1 SUY301      0.0000 
     43 H          -6.6074   -1.5326  -17.7605 H         1 SUY301      0.0000 
     44 H          -6.5020   -0.6483  -16.4214 H         1 SUY301      0.0000 
     45 H          -5.5008   -1.8862  -16.6485 H         1 SUY301      0.0000 
@<TRIPOS>BOND
     1    2    1 1    
     2    3    2 2    
     3    9    2 1    
     4    4    3 1    
     5    6    3 1    
     6    5    4 1    
     7   27    4 1    
     8   28    4 1    
     9   40    5 1    
    10   41    5 1    
    11   42    5 1    
    12    7    6 1    
    13   29    6 1    
    14    8    7 ar   
    15    9    7 ar   
    16   19    8 ar   
    17   10    9 ar   
    18   11   10 1    
    19   18   10 ar   
    20   12   11 1    
    21   17   11 1    
    22   13   12 1    
    23   30   12 1    
    24   31   12 1    
    25   14   13 1    
    26   16   13 1    
    27   32   13 1    
    28   15   14 1    
    29   16   14 1    
    30   33   14 1    
    31   43   15 1    
    32   44   15 1    
    33   45   15 1    
    34   17   16 1    
    35   34   16 1    
    36   35   17 1    
    37   36   17 1    
    38   19   18 ar   
    39   20   19 1    
    40   21   20 1    
    41   22   21 ar   
    42   26   21 ar   
    43   23   22 ar   
    44   37   22 1    
    45   24   23 ar   
    46   25   24 ar   
    47   38   24 1    
    48   26   25 ar   
    49   39   26 1    
@<TRIPOS>SUBSTRUCTURE
     1 SUY301      1 GROUP   
@<TRIPOS>SET

