#    Name: 2kce_D16_2_INTS_M
#    Modification time : Tue Mar 25 21:15:41 2014

@<TRIPOS>MOLECULE
2kce_D16_2_INTS_M
   52     0     6     0     0
SMALL
NO_CHARGES


@<TRIPOS>ATOM
      1 CA         49.7375   33.7945   26.8290 C.3       2 GLC5        0.0000 
      2 CA         49.5560   33.9330   25.0390 C.3       6 GLL5        0.0000 
      3 CA         49.9190   33.6560   28.6190 C.3       4 GLP5        0.0000 
      4 CA         50.2965   35.6240   24.0055 C.3       2 GLC5        0.0000 
      5 CA         51.0370   37.3150   22.9720 C.3       4 GLP5        0.0000 
      6 CA         51.4600   33.8075   25.4235 C.3       2 GLC5        0.0000 
      7 CA         53.3640   33.6820   25.8080 C.3       4 GLP5        0.0000 
      8 CA         48.1320   32.8300   24.9215 C.3       2 GLC5        0.0000 
      9 CA         46.7080   31.7270   24.8040 C.3       4 GLP5        0.0000 
     10 N          48.2035   36.2070   26.2980 N.am      1 SEC2        0.0000 
     11 N          47.9020   35.7000   25.0150 N.am      5 SEL2        0.0000 
     12 N          48.5050   36.7140   27.5810 N.am      3 SEP2        0.0000 
     13 CA         43.8095   36.9250   18.9780 C.3       2 GLC5        0.0000 
     14 CA         44.7890   37.9210   20.1650 C.3       6 GLL5        0.0000 
     15 CA         42.8300   35.9290   17.7910 C.3       4 GLP5        0.0000 
     16 CA         48.9415   43.5660   24.7490 C.3       2 GLC5        0.0000 
     17 CA         48.5660   44.9180   23.2160 C.3       6 GLL5        0.0000 
     18 CA         49.3170   42.2140   26.2820 C.3       4 GLP5        0.0000 
     19 CA         46.9950   44.4850   19.5515 C.3       2 GLC5        0.0000 
     20 CA         47.9580   45.8550   20.7110 C.3       6 GLL5        0.0000 
     21 CA         46.0320   43.1150   18.3920 C.3       4 GLP5        0.0000 
     22 N          48.0620   48.1660   24.2060 N.am      1 SEC2        0.0000 
     23 N          48.6790   46.6670   24.8530 N.am      5 SEL2        0.0000 
     24 N          47.4450   49.6650   23.5590 N.am      3 SEP2        0.0000 
     25 N          48.5840   47.9340   25.6385 N.am      1 SEC2        0.0000 
     26 N          48.4890   49.2010   26.4240 N.am      3 SEP2        0.0000 
     27 CA         42.0805   40.7630   21.5790 C.3       2 GLC5        0.0000 
     28 CA         42.9160   38.9940   21.3620 C.3       6 GLL5        0.0000 
     29 CA         41.2450   42.5320   21.7960 C.3       4 GLP5        0.0000 
     30 CA         49.0332   36.5553   22.8430 C.3       2 GLC5        0.0000 
     31 CA         46.6830   36.3080   23.0610 C.3       6 GLL5        0.0000 
     32 CA         46.0812   34.6377   23.9945 C.3       2 GLC5        0.0000 
     33 CA         47.3760   35.2830   22.3670 C.3       6 GLL5        0.0000 
     34 CA         45.1330   33.4800   25.2750 C.3       4 GLP5        0.0000 
     35 CA         44.3738   35.7343   22.0435 C.3       2 GLC5        0.0000 
     36 CA         45.7780   37.1510   22.3720 C.3       6 GLL5        0.0000 
     37 CA         43.0810   34.4140   22.4090 C.3       4 GLP5        0.0000 
     38 CA         46.5367   33.5270   20.2805 C.3       2 GLC5        0.0000 
     39 CA         46.2200   35.9140   20.3120 C.3       6 GLL5        0.0000 
     40 CA         46.4000   31.5550   19.9060 C.3       4 GLP5        0.0000 
     41 CA         44.8773   34.9565   21.5320 C.3       2 GLC5        0.0000 
     42 CA         47.1270   35.0840   20.9980 C.3       6 GLL5        0.0000 
     43 CA         45.9000   41.0205   19.3885 C.3       2 GLC5        0.0000 
     44 CA         46.7700   40.3160   21.1040 C.3       6 GLL5        0.0000 
     45 CA         45.8880   41.7980   17.6340 C.3       4 GLP5        0.0000 
     46 CA         45.7011   42.3286   20.2506 C.3       2 GLC5        0.0000 
     47 CA         44.5750   41.2020   21.9610 C.3       6 GLL5        0.0000 
     48 CA         43.3045   42.0585   23.2475 C.3       2 GLC5        0.0000 
     49 CA         45.5290   42.0480   22.4490 C.3       6 GLL5        0.0000 
     50 CA         41.5570   42.4920   24.2900 C.3       4 GLP5        0.0000 
     51 CA         47.3845   47.5140   22.1720 C.3       2 GLC5        0.0000 
     52 CA         46.3630   49.1930   23.0050 C.3       4 GLP5        0.0000 
@<TRIPOS>BOND
@<TRIPOS>SUBSTRUCTURE
     1 SEC2       10 GROUP        1 X    SEC  0     ROOT SEC X 2
     2 GLC5        1 GROUP        1 X    GLC  0     **** GLC X 6
     3 SEP2       12 GROUP        1 Y    SEP  0     ROOT SEP Y 9
     4 GLP5        3 GROUP        1 Y    GLP  0     **** GLP Y 13
     5 SEL2       11 GROUP        1 Z    SEL  0     ROOT SEL Z 16
     6 GLL5        2 GROUP        1 Z    GLL  0     **** GLL Z 20
@<TRIPOS>SET

