#    Name: 2kce_D16_2_ligand
#    Modification time : Tue Mar 25 21:15:41 2014

@<TRIPOS>MOLECULE
2kce_D16_2_ligand
   52    54     1     0     0
SMALL
NO_CHARGES


@<TRIPOS>ATOM
      1 N1         48.2820   34.5270   23.0250 N.pl3     1 D16568      0.0000 
      2 C2         48.5600   34.7420   24.3340 C.2       1 D16568      0.0000 
      3 CM2        49.5560   33.9330   25.0390 C.3       1 D16568      0.0000 
      4 N3         47.9020   35.7000   25.0150 N.2       1 D16568      0.0000 
      5 C4         46.9510   36.4420   24.4290 C.2       1 D16568      0.0000 
      6 O4         46.2310   37.3150   25.2060 O.2       1 D16568      0.0000 
      7 C4A        46.6830   36.3080   23.0610 C.ar      1 D16568      0.0000 
      8 C5         45.7780   37.1510   22.3720 C.ar      1 D16568      0.0000 
      9 C6         45.5550   36.9580   20.9840 C.ar      1 D16568      0.0000 
     10 C7         46.2200   35.9140   20.3120 C.ar      1 D16568      0.0000 
     11 C8         47.1270   35.0840   20.9980 C.ar      1 D16568      0.0000 
     12 C8A        47.3760   35.2830   22.3670 C.ar      1 D16568      0.0000 
     13 C9         44.7890   37.9210   20.1650 C.3       1 D16568      0.0000 
     14 N10        44.2990   39.0800   20.9140 N.pl3     1 D16568      0.0000 
     15 C11        46.8020   41.7170   22.0660 C.2       1 D16568      0.0000 
     16 S13        46.7700   40.3160   21.1040 S.3       1 D16568      0.0000 
     17 C14        45.0540   40.1700   21.1820 C.2       1 D16568      0.0000 
     18 C15        44.5750   41.2020   21.9610 C.2       1 D16568      0.0000 
     19 C16        45.5290   42.0480   22.4490 C.2       1 D16568      0.0000 
     20 C          47.9270   42.5960   22.3320 C.2       1 D16568      0.0000 
     21 O          49.0630   42.1820   22.0710 O.2       1 D16568      0.0000 
     22 N          47.6450   43.8060   22.8790 N.am      1 D16568      0.0000 
     23 CA         48.5660   44.9180   23.2160 C.3       1 D16568      0.0000 
     24 CB         48.8540   45.8150   21.9670 C.3       1 D16568      0.0000 
     25 CG         47.9580   45.8550   20.7110 C.3       1 D16568      0.0000 
     26 CD         46.8640   46.9270   20.6040 C.2       1 D16568      0.0000 
     27 OE1        47.1180   47.9800   20.0110 O.co2     1 D16568      0.0000 
     28 OE2        45.7330   46.7140   21.0610 O.co2     1 D16568      0.0000 
     29 CT         47.9730   45.7990   24.3410 C.2       1 D16568      0.0000 
     30 O1         46.8200   45.6080   24.7500 O.co2     1 D16568      0.0000 
     31 O2         48.6790   46.6670   24.8530 O.co2     1 D16568      0.0000 
     32 CP1        42.9160   38.9940   21.3620 C.3       1 D16568      0.0000 
     33 H          48.7811   33.7580   22.5143 H         1 D16568      0.0000 
     34 H          45.2891   37.8921   22.8684 H         1 D16568      0.0000 
     35 H          46.0416   35.7571   19.3134 H         1 D16568      0.0000 
     36 H          47.6079   34.3307   20.4955 H         1 D16568      0.0000 
     37 H          43.9301   37.3924   19.6905 H         1 D16568      0.0000 
     38 H          45.4262   38.2657   19.3180 H         1 D16568      0.0000 
     39 H          43.5993   41.3165   22.1506 H         1 D16568      0.0000 
     40 H          45.3226   42.8285   23.0260 H         1 D16568      0.0000 
     41 H          46.6105   44.0343   23.1200 H         1 D16568      0.0000 
     42 H          49.5140   44.5325   23.5631 H         1 D16568      0.0000 
     43 H          49.9203   45.5787   21.6262 H         1 D16568      0.0000 
     44 H          48.9683   46.8880   22.3470 H         1 D16568      0.0000 
     45 H          47.4756   44.8461   20.5965 H         1 D16568      0.0000 
     46 H          48.6258   45.9414   19.8108 H         1 D16568      0.0000 
     47 H          50.4606   34.0091   24.6196 H         1 D16568      0.0000 
     48 H          49.6517   34.2115   25.9947 H         1 D16568      0.0000 
     49 H          49.3137   32.9628   25.0392 H         1 D16568      0.0000 
     50 H          42.7699   38.2122   21.9682 H         1 D16568      0.0000 
     51 H          42.6373   39.8116   21.8658 H         1 D16568      0.0000 
     52 H          42.2827   38.8924   20.5948 H         1 D16568      0.0000 
@<TRIPOS>BOND
     1    2    1 1    
     2   12    1 1    
     3   33    1 1    
     4    3    2 1    
     5    4    2 2    
     6   47    3 1    
     7   48    3 1    
     8   49    3 1    
     9    5    4 1    
    10    6    5 2    
    11    7    5 1    
    12    8    7 ar   
    13   12    7 ar   
    14    9    8 ar   
    15   34    8 1    
    16   10    9 ar   
    17   13    9 1    
    18   11   10 ar   
    19   35   10 1    
    20   12   11 ar   
    21   36   11 1    
    22   14   13 1    
    23   37   13 1    
    24   38   13 1    
    25   17   14 1    
    26   32   14 1    
    27   16   15 1    
    28   19   15 2    
    29   20   15 1    
    30   17   16 1    
    31   18   17 2    
    32   19   18 1    
    33   39   18 1    
    34   40   19 1    
    35   21   20 2    
    36   22   20 am   
    37   23   22 1    
    38   41   22 1    
    39   24   23 1    
    40   29   23 1    
    41   42   23 1    
    42   25   24 1    
    43   43   24 1    
    44   44   24 1    
    45   26   25 1    
    46   45   25 1    
    47   46   25 1    
    48   27   26 ar   
    49   28   26 ar   
    50   30   29 ar   
    51   31   29 ar   
    52   50   32 1    
    53   51   32 1    
    54   52   32 1    
@<TRIPOS>SUBSTRUCTURE
     1 D16568      1 GROUP   
@<TRIPOS>SET

