#    Name: 4aql_TXC_1_INTS_M
#    Modification time : Tue Mar 25 06:01:59 2014

@<TRIPOS>MOLECULE
4aql_TXC_1_INTS_M
   57     0     9     0     0
SMALL
NO_CHARGES


@<TRIPOS>ATOM
      1 CA         10.1715  -22.5810    2.4115 C.3       3 GLC5        0.0000 
      2 CA         10.4530  -23.0710    0.7050 C.3       9 GLL5        0.0000 
      3 CA          9.8900  -22.0910    4.1180 C.3       6 GLP5        0.0000 
      4 CA         10.1215  -22.6255   -2.3455 C.3       3 GLC5        0.0000 
      5 CA         11.3800  -23.9910   -1.4620 C.3       9 GLL5        0.0000 
      6 CA          8.8630  -21.2600   -3.2290 C.3       6 GLP5        0.0000 
      7 CA          8.4325  -24.3115   -1.7330 C.3       3 GLC5        0.0000 
      8 CA          9.4310  -25.2330   -0.2950 C.3       9 GLL5        0.0000 
      9 CA          7.4340  -23.3900   -3.1710 C.3       6 GLP5        0.0000 
     10 CA          5.4315  -26.6085    0.8655 C.3       3 GLC5        0.0000 
     11 CA          6.2210  -25.2750    1.7730 C.3       9 GLL5        0.0000 
     12 CA          4.6420  -27.9420   -0.0420 C.3       6 GLP5        0.0000 
     13 CA          5.2320  -27.4975    1.9090 C.3       3 GLC5        0.0000 
     14 CA          5.3810  -26.1780    2.6970 C.3       9 GLL5        0.0000 
     15 CA          5.0830  -28.8170    1.1210 C.3       6 GLP5        0.0000 
     16 CA          5.5350  -24.7435    5.6835 C.3       3 GLC5        0.0000 
     17 CA          4.6010  -26.0920    5.0830 C.3       9 GLL5        0.0000 
     18 CA          6.4690  -23.3950    6.2840 C.3       6 GLP5        0.0000 
     19 CA          3.6045  -26.3490    6.7425 C.3       3 GLC5        0.0000 
     20 CA          2.6080  -26.6060    8.4020 C.3       6 GLP5        0.0000 
     21 N           0.7990  -23.0300    4.5455 N.am      2 SEC2        0.0000 
     22 N           1.5240  -24.2420    4.3630 N.am      8 SEL2        0.0000 
     23 N           0.0740  -21.8180    4.7280 N.am      5 SEP2        0.0000 
     24 N           3.2845  -28.3880    4.3665 N.am      2 SEC2        0.0000 
     25 N           2.1980  -27.6610    4.1010 N.am      8 SEL2        0.0000 
     26 N           4.3710  -29.1150    4.6320 N.am      5 SEP2        0.0000 
     27 O           2.2940  -30.1900    3.4555 O.2       1 ALC1        0.0000 
     28 O           1.0030  -29.5580    3.4360 O.2       7 ALL1        0.0000 
     29 O           3.5850  -30.8220    3.4750 O.2       4 ALP1        0.0000 
     30 O           0.2090  -30.6250    3.8880 O.2       1 ALC1        0.0000 
     31 O          -0.5850  -31.6920    4.3400 O.2       4 ALP1        0.0000 
     32 O          -0.6625  -29.1920    3.2275 O.2       1 ALC1        0.0000 
     33 O          -2.3280  -28.8260    3.0190 O.2       4 ALP1        0.0000 
     34 O          -1.2230  -28.1250    3.2030 O.2       1 ALC1        0.0000 
     35 O          -0.1180  -27.4240    3.3870 O.2       7 ALL1        0.0000 
     36 N          -2.5090  -25.2750    3.0985 N.am      2 SEC2        0.0000 
     37 N          -1.0630  -25.2980    3.3840 N.am      8 SEL2        0.0000 
     38 N          -3.9550  -25.2520    2.8130 N.am      5 SEP2        0.0000 
     39 N          -1.4570  -23.9335    3.5690 N.am      2 SEC2        0.0000 
     40 N          -1.8510  -22.5690    3.7540 N.am      5 SEP2        0.0000 
     41 CA         12.0425  -23.0562    1.4375 C.3       3 GLC5        0.0000 
     42 CA         10.6930  -24.3400   -0.1210 C.3       9 GLL5        0.0000 
     43 CA         13.5120  -22.4070    2.5830 C.3       6 GLP5        0.0000 
     44 CA         11.5039  -26.0811   -0.7011 C.3       3 GLC5        0.0000 
     45 CA         12.7740  -27.4630   -0.8590 C.3       6 GLP5        0.0000 
     46 CA         10.8275  -25.3636    1.6747 C.3       3 GLC5        0.0000 
     47 CA         11.6530  -26.2580    3.3510 C.3       6 GLP5        0.0000 
     48 CA          4.5315  -24.6502    1.6095 C.3       3 GLC5        0.0000 
     49 CA          3.2620  -23.5740    0.9840 C.3       6 GLP5        0.0000 
     50 CA          6.2050  -24.4453    3.5735 C.3       3 GLC5        0.0000 
     51 CA          6.6090  -23.1640    4.9120 C.3       6 GLP5        0.0000 
     52 CA          1.2893  -25.0377    2.4420 C.3       3 GLC5        0.0000 
     53 CA          2.2520  -26.3420    4.2940 C.3       9 GLL5        0.0000 
     54 CA          0.8830  -24.1570    0.7020 C.3       6 GLP5        0.0000 
     55 CA          1.7123  -26.6928    5.9735 C.3       3 GLC5        0.0000 
     56 CA          1.1390  -25.4950    4.0700 C.3       9 GLL5        0.0000 
     57 CA          1.7290  -27.4670    7.7650 C.3       6 GLP5        0.0000 
@<TRIPOS>BOND
@<TRIPOS>SUBSTRUCTURE
     1 ALC1       27 GROUP        1 X    ALC  0     ROOT ALC X 1
     2 SEC2       21 GROUP        1 X    SEC  0     **** SEC X 2
     3 GLC5        1 GROUP        1 X    GLC  0     **** GLC X 6
     4 ALP1       29 GROUP        1 Y    ALP  0     ROOT ALP Y 8
     5 SEP2       23 GROUP        1 Y    SEP  0     **** SEP Y 9
     6 GLP5        3 GROUP        1 Y    GLP  0     **** GLP Y 13
     7 ALL1       28 GROUP        1 Z    ALL  0     ROOT ALL Z 15
     8 SEL2       22 GROUP        1 Z    SEL  0     **** SEL Z 16
     9 GLL5        2 GROUP        1 Z    GLL  0     **** GLL Z 20
@<TRIPOS>SET

