#    Name: 4aql_TXC_1_ligand
#    Modification time : Tue Mar 25 06:01:59 2014

@<TRIPOS>MOLECULE
4aql_TXC_1_ligand
   44    45     1     0     0
SMALL
NO_CHARGES


@<TRIPOS>ATOM
      1 CG2        10.4530  -23.0710    0.7050 C.3       1 TXC1452     0.0000 
      2 CB         10.6930  -24.3400   -0.1210 C.3       1 TXC1452     0.0000 
      3 CG1        11.3800  -23.9910   -1.4620 C.3       1 TXC1452     0.0000 
      4 CA          9.4310  -25.2330   -0.2950 C.3       1 TXC1452     0.0000 
      5 N           9.0210  -25.2450   -1.7030 N.4       1 TXC1452     0.0000 
      6 C           8.2210  -24.7970    0.5800 C.2       1 TXC1452     0.0000 
      7 O           7.8020  -23.6300    0.5260 O.2       1 TXC1452     0.0000 
      8 OAO         7.5770  -25.7320    1.3870 O.3       1 TXC1452     0.0000 
      9 CAI         6.2210  -25.2750    1.7730 C.3       1 TXC1452     0.0000 
     10 CAH         5.3810  -26.1780    2.6970 C.3       1 TXC1452     0.0000 
     11 OAN         5.6840  -25.9660    4.1050 O.3       1 TXC1452     0.0000 
     12 CAJ         4.6010  -26.0920    5.0830 C.3       1 TXC1452     0.0000 
     13 N9          3.2440  -25.5590    4.7160 N.pl3     1 TXC1452     0.0000 
     14 C8          2.8160  -24.2860    4.7750 C.2       1 TXC1452     0.0000 
     15 N7          1.5240  -24.2420    4.3630 N.2       1 TXC1452     0.0000 
     16 C5          1.1390  -25.4950    4.0700 C.2       1 TXC1452     0.0000 
     17 C4          2.2520  -26.3420    4.2940 C.2       1 TXC1452     0.0000 
     18 N3          2.1980  -27.6610    4.1010 N.2       1 TXC1452     0.0000 
     19 C2          1.0490  -28.2300    3.6340 C.2       1 TXC1452     0.0000 
     20 N2          1.0030  -29.5580    3.4360 N.pl3     1 TXC1452     0.0000 
     21 N1         -0.1180  -27.4240    3.3870 N.am      1 TXC1452     0.0000 
     22 C6         -0.0780  -26.0270    3.6030 C.2       1 TXC1452     0.0000 
     23 O6         -1.0630  -25.2980    3.3840 O.2       1 TXC1452     0.0000 
     24 H          11.4397  -24.9540    0.4526 H         1 TXC1452     0.0000 
     25 H           9.7012  -26.2496    0.0041 H         1 TXC1452     0.0000 
     26 H           5.6100  -25.0828    0.8471 H         1 TXC1452     0.0000 
     27 H           6.2892  -24.2644    2.2645 H         1 TXC1452     0.0000 
     28 H           5.5718  -27.2239    2.4048 H         1 TXC1452     0.0000 
     29 H           4.3181  -25.9742    2.4864 H         1 TXC1452     0.0000 
     30 H           4.9143  -25.6036    6.0543 H         1 TXC1452     0.0000 
     31 H           4.4802  -27.1796    5.3705 H         1 TXC1452     0.0000 
     32 H           3.3367  -23.5234    5.0622 H         1 TXC1452     0.0000 
     33 H           1.8605  -29.9915    3.1590 H         1 TXC1452     0.0000 
     34 H           0.1154  -29.9944    3.5832 H         1 TXC1452     0.0000 
     35 H          -0.9700  -27.8721    3.0557 H         1 TXC1452     0.0000 
     36 H          11.3082  -22.5971    0.9148 H         1 TXC1452     0.0000 
     37 H           9.8674  -22.4193    0.2229 H         1 TXC1452     0.0000 
     38 H          10.0089  -23.2743    1.5776 H         1 TXC1452     0.0000 
     39 H          12.2665  -23.5502   -1.3214 H         1 TXC1452     0.0000 
     40 H          11.5426  -24.8054   -2.0190 H         1 TXC1452     0.0000 
     41 H          10.8257  -23.3659   -2.0116 H         1 TXC1452     0.0000 
     42 H           9.7420  -25.6024   -2.2967 H         1 TXC1452     0.0000 
     43 H           8.2118  -25.8141   -1.8494 H         1 TXC1452     0.0000 
     44 H           8.7977  -24.3277   -2.0326 H         1 TXC1452     0.0000 
@<TRIPOS>BOND
     1    2    1 1    
     2   36    1 1    
     3   37    1 1    
     4   38    1 1    
     5    3    2 1    
     6    4    2 1    
     7   24    2 1    
     8   39    3 1    
     9   40    3 1    
    10   41    3 1    
    11    5    4 1    
    12    6    4 1    
    13   25    4 1    
    14   42    5 1    
    15   43    5 1    
    16   44    5 1    
    17    7    6 2    
    18    8    6 1    
    19    9    8 1    
    20   10    9 1    
    21   26    9 1    
    22   27    9 1    
    23   11   10 1    
    24   28   10 1    
    25   29   10 1    
    26   12   11 1    
    27   13   12 1    
    28   30   12 1    
    29   31   12 1    
    30   14   13 1    
    31   17   13 1    
    32   15   14 2    
    33   32   14 1    
    34   16   15 1    
    35   17   16 2    
    36   22   16 1    
    37   18   17 1    
    38   19   18 2    
    39   20   19 1    
    40   21   19 1    
    41   33   20 1    
    42   34   20 1    
    43   22   21 am   
    44   35   21 1    
    45   23   22 2    
@<TRIPOS>SUBSTRUCTURE
     1 TXC1452     1 GROUP   
@<TRIPOS>SET

