#    Name: 4ise_1FW_1_INTS_M
#    Modification time : Tue Mar 25 04:28:20 2014

@<TRIPOS>MOLECULE
4ise_1FW_1_INTS_M
   57     0     9     0     0
SMALL
NO_CHARGES


@<TRIPOS>ATOM
      1 CA        -12.0565   38.4545   49.3555 C.3       3 GLC5        0.0000 
      2 CA        -12.1440   36.2840   49.7020 C.3       9 GLL5        0.0000 
      3 CA        -11.9690   40.6250   49.0090 C.3       6 GLP5        0.0000 
      4 CA        -14.1225   34.6040   51.9110 C.3       3 GLC5        0.0000 
      5 CA        -13.2860   33.0780   51.0160 C.3       9 GLL5        0.0000 
      6 CA        -14.9590   36.1300   52.8060 C.3       6 GLP5        0.0000 
      7 O          -5.5665   36.8305   54.2350 O.2       1 ALC1        0.0000 
      8 O          -6.4140   37.9240   54.4480 O.2       7 ALL1        0.0000 
      9 O          -4.7190   35.7370   54.0220 O.2       4 ALP1        0.0000 
     10 N          -4.0010   38.1650   55.6100 N.am      2 SEC2        0.0000 
     11 N          -5.2300   38.9920   56.0810 N.am      8 SEL2        0.0000 
     12 N          -2.7720   37.3380   55.1390 N.am      5 SEP2        0.0000 
     13 CA         -3.6180   39.7265   55.5585 C.3       3 GLC5        0.0000 
     14 CA         -5.2260   40.0030   56.8620 C.3       9 GLL5        0.0000 
     15 CA         -2.0100   39.4500   54.2550 C.3       6 GLP5        0.0000 
     16 CA         -4.6160   39.9200   58.8660 C.3       3 GLC5        0.0000 
     17 CA         -4.0060   39.8370   60.8700 C.3       6 GLP5        0.0000 
     18 CA         -6.5535   41.1815   54.0180 C.3       3 GLC5        0.0000 
     19 CA         -7.3370   40.1510   55.6340 C.3       9 GLL5        0.0000 
     20 CA         -5.7700   42.2120   52.4020 C.3       6 GLP5        0.0000 
     21 CA         -7.0595   39.5265   51.2705 C.3       3 GLC5        0.0000 
     22 CA         -6.2440   37.5490   51.3060 C.3       9 GLL5        0.0000 
     23 CA         -7.8750   41.5040   51.2350 C.3       6 GLP5        0.0000 
     24 CA         -5.1255   39.2895   48.4640 C.3       3 GLC5        0.0000 
     25 CA         -5.2250   37.3660   49.0510 C.3       9 GLL5        0.0000 
     26 CA         -5.0260   41.2130   47.8770 C.3       6 GLP5        0.0000 
     27 CA         -6.4600   36.1600   46.7120 C.3       3 GLC5        0.0000 
     28 CA         -5.0420   36.5150   47.8050 C.3       9 GLL5        0.0000 
     29 CA         -7.8780   35.8050   45.6190 C.3       6 GLP5        0.0000 
     30 CA         -5.8690   34.8575   46.9535 C.3       3 GLC5        0.0000 
     31 CA         -4.3560   35.1990   48.1470 C.3       9 GLL5        0.0000 
     32 CA         -7.3820   34.5160   45.7600 C.3       6 GLP5        0.0000 
     33 CA         -2.6125   35.2085   48.9705 C.3       3 GLC5        0.0000 
     34 CA         -0.8690   35.2180   49.7940 C.3       6 GLP5        0.0000 
     35 CA         -6.5560   34.0280   47.9185 C.3       3 GLC5        0.0000 
     36 CA         -5.1360   34.4420   49.2150 C.3       9 GLL5        0.0000 
     37 CA         -7.9760   33.6140   46.6220 C.3       6 GLP5        0.0000 
     38 CA         -4.9375   34.1295   52.0775 C.3       3 GLC5        0.0000 
     39 CA         -5.4070   35.3010   50.4470 C.3       9 GLL5        0.0000 
     40 CA         -4.4680   32.9580   53.7080 C.3       6 GLP5        0.0000 
     41 CA        -14.1387   36.6478   50.3203 C.3       3 GLC5        0.0000 
     42 CA        -15.7440   37.5760   50.8250 C.3       6 GLP5        0.0000 
     43 CA        -14.5716   33.4066   50.3042 C.3       3 GLC5        0.0000 
     44 CA        -16.1410   32.9460   49.9130 C.3       6 GLP5        0.0000 
     45 CA         -6.4812   39.3317   58.4450 C.3       3 GLC5        0.0000 
     46 CA         -6.3110   40.7700   56.7740 C.3       9 GLL5        0.0000 
     47 CA         -7.1940   38.2770   60.0720 C.3       6 GLP5        0.0000 
     48 CA         -5.4038   42.2968   57.3855 C.3       3 GLC5        0.0000 
     49 CA         -5.0390   44.2070   57.9530 C.3       6 GLP5        0.0000 
     50 CA         -8.0580   41.6953   56.6360 C.3       3 GLC5        0.0000 
     51 CA         -9.2920   42.9300   57.0680 C.3       6 GLP5        0.0000 
     52 CA         -4.4450   38.3196   50.9471 C.3       3 GLC5        0.0000 
     53 CA         -3.1990   39.4110   52.0210 C.3       6 GLP5        0.0000 
     54 CA         -3.1994   37.1594   47.9922 C.3       3 GLC5        0.0000 
     55 CA         -1.6540   38.2490   47.6970 C.3       6 GLP5        0.0000 
     56 CA         -3.3388   34.6048   50.5435 C.3       3 GLC5        0.0000 
     57 CA         -1.4060   34.3380   51.2560 C.3       6 GLP5        0.0000 
@<TRIPOS>BOND
@<TRIPOS>SUBSTRUCTURE
     1 ALC1        7 GROUP        1 X    ALC  0     ROOT ALC X 1
     2 SEC2       10 GROUP        1 X    SEC  0     **** SEC X 2
     3 GLC5        1 GROUP        1 X    GLC  0     **** GLC X 6
     4 ALP1        9 GROUP        1 Y    ALP  0     ROOT ALP Y 8
     5 SEP2       12 GROUP        1 Y    SEP  0     **** SEP Y 9
     6 GLP5        3 GROUP        1 Y    GLP  0     **** GLP Y 13
     7 ALL1        8 GROUP        1 Z    ALL  0     ROOT ALL Z 15
     8 SEL2       11 GROUP        1 Z    SEL  0     **** SEL Z 16
     9 GLL5        2 GROUP        1 Z    GLL  0     **** GLL Z 20
@<TRIPOS>SET

