#    Name: 4ise_1FW_1_ligand
#    Modification time : Tue Mar 25 04:28:20 2014

@<TRIPOS>MOLECULE
4ise_1FW_1_ligand
   49    52     1     0     0
SMALL
NO_CHARGES


@<TRIPOS>ATOM
      1 O26        -8.7650   34.7080   52.8380 O.2       1 1FW501      0.0000 
      2 C25        -9.2120   35.5480   52.0210 C.2       1 1FW501      0.0000 
      3 C27       -10.5070   35.3620   51.3260 C.ar      1 1FW501      0.0000 
      4 C28       -11.3140   34.2530   51.5200 C.ar      1 1FW501      0.0000 
      5 C5        -10.9380   36.4170   50.3790 C.ar      1 1FW501      0.0000 
      6 N6        -10.1550   37.4910   50.1820 N.2       1 1FW501      0.0000 
      7 C4        -12.1440   36.2840   49.7020 C.ar      1 1FW501      0.0000 
      8 C3        -12.9230   35.1550   49.9290 C.ar      1 1FW501      0.0000 
      9 C2        -12.5140   34.1580   50.8210 C.ar      1 1FW501      0.0000 
     10 F1        -13.2860   33.0780   51.0160 F         1 1FW501      0.0000 
     11 N8         -8.4990   36.7220   51.7170 N.am      1 1FW501      0.0000 
     12 C7         -8.9920   37.6330   50.8350 C.2       1 1FW501      0.0000 
     13 C9         -7.2030   36.9870   52.3570 C.3       1 1FW501      0.0000 
     14 C17        -7.3100   37.9990   53.4590 C.2       1 1FW501      0.0000 
     15 N19        -6.4140   37.9240   54.4480 N.am      1 1FW501      0.0000 
     16 C20        -6.2670   38.8950   55.3570 C.2       1 1FW501      0.0000 
     17 N21        -5.2300   38.9920   56.0810 N.2       1 1FW501      0.0000 
     18 C22        -5.2260   40.0030   56.8620 C.2       1 1FW501      0.0000 
     19 C23        -6.3110   40.7700   56.7740 C.2       1 1FW501      0.0000 
     20 S24        -7.3370   40.1510   55.6340 S.3       1 1FW501      0.0000 
     21 O18        -8.1440   38.8790   53.3470 O.2       1 1FW501      0.0000 
     22 C10        -6.2440   37.5490   51.3060 C.3       1 1FW501      0.0000 
     23 C11        -6.0700   36.6320   50.0850 C.3       1 1FW501      0.0000 
     24 C12        -5.2250   37.3660   49.0510 C.3       1 1FW501      0.0000 
     25 C13        -5.0420   36.5150   47.8050 C.3       1 1FW501      0.0000 
     26 C14        -4.3560   35.1990   48.1470 C.3       1 1FW501      0.0000 
     27 C15        -5.1360   34.4420   49.2150 C.3       1 1FW501      0.0000 
     28 C16        -5.4070   35.3010   50.4470 C.3       1 1FW501      0.0000 
     29 H         -11.0347   33.5122   52.1675 H         1 1FW501      0.0000 
     30 H         -12.4539   37.0043   49.0475 H         1 1FW501      0.0000 
     31 H         -13.8242   35.0465   49.4299 H         1 1FW501      0.0000 
     32 H          -8.4115   38.5127   50.6570 H         1 1FW501      0.0000 
     33 H          -6.7729   36.0822   52.7401 H         1 1FW501      0.0000 
     34 H          -5.7960   37.0628   54.5154 H         1 1FW501      0.0000 
     35 H          -4.4691   40.2283   57.5089 H         1 1FW501      0.0000 
     36 H          -6.6064   41.5451   57.1952 H         1 1FW501      0.0000 
     37 H          -5.2608   37.7136   51.7682 H         1 1FW501      0.0000 
     38 H          -6.6161   38.5252   50.9655 H         1 1FW501      0.0000 
     39 H          -7.0399   36.4412   49.6567 H         1 1FW501      0.0000 
     40 H          -4.2498   37.5936   49.4802 H         1 1FW501      0.0000 
     41 H          -5.7175   38.2999   48.7823 H         1 1FW501      0.0000 
     42 H          -4.4356   37.0591   47.0813 H         1 1FW501      0.0000 
     43 H          -6.0159   36.3082   47.3620 H         1 1FW501      0.0000 
     44 H          -3.3494   35.4016   48.5124 H         1 1FW501      0.0000 
     45 H          -4.2863   34.5849   47.2493 H         1 1FW501      0.0000 
     46 H          -4.5682   33.5549   49.5146 H         1 1FW501      0.0000 
     47 H          -6.0901   34.1074   48.7946 H         1 1FW501      0.0000 
     48 H          -6.0593   34.7520   51.1323 H         1 1FW501      0.0000 
     49 H          -4.4625   35.5009   50.9614 H         1 1FW501      0.0000 
@<TRIPOS>BOND
     1    2    1 2    
     2    3    2 1    
     3   11    2 am   
     4    4    3 ar   
     5    5    3 ar   
     6    9    4 ar   
     7   29    4 1    
     8    6    5 1    
     9    7    5 ar   
    10   12    6 2    
    11    8    7 ar   
    12   30    7 1    
    13    9    8 ar   
    14   31    8 1    
    15   10    9 1    
    16   12   11 1    
    17   13   11 1    
    18   32   12 1    
    19   14   13 1    
    20   22   13 1    
    21   33   13 1    
    22   15   14 am   
    23   21   14 2    
    24   16   15 1    
    25   34   15 1    
    26   17   16 2    
    27   20   16 1    
    28   18   17 1    
    29   19   18 2    
    30   35   18 1    
    31   20   19 1    
    32   36   19 1    
    33   23   22 1    
    34   37   22 1    
    35   38   22 1    
    36   24   23 1    
    37   28   23 1    
    38   39   23 1    
    39   25   24 1    
    40   40   24 1    
    41   41   24 1    
    42   26   25 1    
    43   42   25 1    
    44   43   25 1    
    45   27   26 1    
    46   44   26 1    
    47   45   26 1    
    48   28   27 1    
    49   46   27 1    
    50   47   27 1    
    51   48   28 1    
    52   49   28 1    
@<TRIPOS>SUBSTRUCTURE
     1 1FW501      1 GROUP   
@<TRIPOS>SET

