#    Name: 4jpc_1M6_1_INTS_M
#    Modification time : Tue Mar 25 06:11:03 2014

@<TRIPOS>MOLECULE
4jpc_1M6_1_INTS_M
   52     0     9     0     0
SMALL
NO_CHARGES


@<TRIPOS>ATOM
      1 OD1        21.3460   16.1420   11.5600 O.co2     2 ASC3        0.0000 
      2 OD1        22.0880   15.9170    9.3720 O.co2     8 ASL3        0.0000 
      3 OD1        21.3710   15.6310   12.8570 O.co2     5 ASP3        0.0000 
      4 OD1        22.3530   14.2290   10.8235 O.co2     2 ASC3        0.0000 
      5 OD1        22.1320   13.7190   12.0790 O.co2     5 ASP3        0.0000 
      6 OD1        20.6500   17.8370   10.2055 O.co2     2 ASC3        0.0000 
      7 OD1        19.9790   19.0210   10.1480 O.co2     5 ASP3        0.0000 
      8 O          22.3530   14.2290   10.8235 O.2       1 ALC1        0.0000 
      9 O          22.5740   14.7390    9.5680 O.2       7 ALL1        0.0000 
     10 O          22.1320   13.7190   12.0790 O.2       4 ALP1        0.0000 
     11 O          21.3460   16.1420   11.5600 O.2       1 ALC1        0.0000 
     12 O          21.3210   16.6530   10.2630 O.2       7 ALL1        0.0000 
     13 O          21.3710   15.6310   12.8570 O.2       4 ALP1        0.0000 
     14 O          20.6500   17.8370   10.2055 O.2       1 ALC1        0.0000 
     15 O          19.9790   19.0210   10.1480 O.2       4 ALP1        0.0000 
     16 CA         25.2375   17.8840   11.5505 C.3       3 GLC5        0.0000 
     17 CA         27.0450   17.4570   10.4030 C.3       9 GLL5        0.0000 
     18 CA         23.4300   18.3110   12.6980 C.3       6 GLP5        0.0000 
     19 CA         22.0130    8.7225    6.4785 C.3       3 GLC5        0.0000 
     20 CA         23.0150   10.5220    7.3590 C.3       9 GLL5        0.0000 
     21 CA         21.0110    6.9230    5.5980 C.3       6 GLP5        0.0000 
     22 CA         23.5305   10.2840    5.6050 C.3       3 GLC5        0.0000 
     23 CA         24.0460   10.0460    3.8510 C.3       6 GLP5        0.0000 
     24 CA         23.9705    8.7535    7.3800 C.3       3 GLC5        0.0000 
     25 CA         24.9260    6.9850    7.4010 C.3       6 GLP5        0.0000 
     26 CA         21.3090   11.5580   10.5020 C.3       3 GLC5        0.0000 
     27 CA         23.0750   11.3910    9.7230 C.3       9 GLL5        0.0000 
     28 CA         19.5430   11.7250   11.2810 C.3       6 GLP5        0.0000 
     29 CA         25.2815   18.9695   12.1470 C.3       3 GLC5        0.0000 
     30 CA         27.1330   19.6280   11.5960 C.3       9 GLL5        0.0000 
     31 CA         25.3115   20.4590   10.9515 C.3       3 GLC5        0.0000 
     32 CA         23.4900   21.2900   10.3070 C.3       6 GLP5        0.0000 
     33 CA         26.8742   14.6215   11.2150 C.3       3 GLC5        0.0000 
     34 CA         26.9470   15.3250    9.1860 C.3       9 GLL5        0.0000 
     35 CA         26.4590   14.5330   13.3300 C.3       6 GLP5        0.0000 
     36 CA         26.8035   12.4155   10.1562 C.3       3 GLC5        0.0000 
     37 CA         27.6320   14.0950    9.0140 C.3       9 GLL5        0.0000 
     38 CA         26.3300   11.3180   11.4850 C.3       6 GLP5        0.0000 
     39 CA         25.7518   12.4622   10.0077 C.3       3 GLC5        0.0000 
     40 CA         25.5210   12.9940    8.4420 C.3       9 GLL5        0.0000 
     41 CA         24.7927   11.4342   10.2363 C.3       3 GLC5        0.0000 
     42 CA         26.9005   15.7573   11.6502 C.3       3 GLC5        0.0000 
     43 CA         27.6390   16.5060    9.5380 C.3       9 GLL5        0.0000 
     44 CA         30.7242   19.2140   10.9467 C.3       3 GLC5        0.0000 
     45 CA         29.0290   18.9000   10.1880 C.3       9 GLL5        0.0000 
     46 CA         32.1230   20.0010   12.1420 C.3       6 GLP5        0.0000 
     47 CA         30.7900   16.7045    8.9567 C.3       3 GLC5        0.0000 
     48 CA         29.6220   17.9540    9.3150 C.3       9 GLL5        0.0000 
     49 CA         32.3070   16.0490    8.7620 C.3       6 GLP5        0.0000 
     50 CA         28.4851   19.3163   12.7949 C.3       3 GLC5        0.0000 
     51 CA         27.7420   18.6460   10.7270 C.3       9 GLL5        0.0000 
     52 CA         29.2110   19.4320   14.5630 C.3       6 GLP5        0.0000 
@<TRIPOS>BOND
@<TRIPOS>SUBSTRUCTURE
     1 ALC1        8 GROUP        1 X    ALC  0     ROOT ALC X 1
     2 ASC3        1 GROUP        1 X    ASC  0     **** ASC X 3
     3 GLC5       16 GROUP        1 X    GLC  0     **** GLC X 6
     4 ALP1       10 GROUP        1 Y    ALP  0     ROOT ALP Y 8
     5 ASP3        3 GROUP        1 Y    ASP  0     **** ASP Y 10
     6 GLP5       18 GROUP        1 Y    GLP  0     **** GLP Y 13
     7 ALL1        9 GROUP        1 Z    ALL  0     ROOT ALL Z 15
     8 ASL3        2 GROUP        1 Z    ASL  0     **** ASL Z 17
     9 GLL5       17 GROUP        1 Z    GLL  0     **** GLL Z 20
@<TRIPOS>SET

