#    Name: 4jpc_1M6_1_ligand
#    Modification time : Tue Mar 25 06:11:03 2014

@<TRIPOS>MOLECULE
4jpc_1M6_1_ligand
   48    51     1     0     0
SMALL
NO_CHARGES


@<TRIPOS>ATOM
      1 C1         26.9470   15.3250    9.1860 C.ar      1 1M6502      0.0000 
      2 C2         27.6320   14.0950    9.0140 C.ar      1 1M6502      0.0000 
      3 C3         26.9220   12.9310    8.6410 C.ar      1 1M6502      0.0000 
      4 C4         25.5210   12.9940    8.4420 C.ar      1 1M6502      0.0000 
      5 C5         24.8260   14.2190    8.6190 C.ar      1 1M6502      0.0000 
      6 C6         25.5440   15.3800    8.9820 C.ar      1 1M6502      0.0000 
      7 O7         24.8500   11.8510    8.0940 O.3       1 1M6502      0.0000 
      8 C8         23.4360   11.7100    8.2520 C.3       1 1M6502      0.0000 
      9 C9         22.7180   13.0050    7.7980 C.3       1 1M6502      0.0000 
     10 C10        23.3110   14.3040    8.3820 C.3       1 1M6502      0.0000 
     11 C11        23.0360   15.4900    7.4390 C.2       1 1M6502      0.0000 
     12 N12        22.3290   16.4140    8.1240 N.am      1 1M6502      0.0000 
     13 C13        22.0880   15.9170    9.3720 C.cat     1 1M6502      0.0000 
     14 N14        22.5740   14.7390    9.5680 N.pl3     1 1M6502      0.0000 
     15 C15        27.6390   16.5060    9.5380 C.ar      1 1M6502      0.0000 
     16 C16        21.9330   17.7200    7.5940 C.3       1 1M6502      0.0000 
     17 N17        21.3210   16.6530   10.2630 N.pl3     1 1M6502      0.0000 
     18 C18        27.0450   17.4570   10.4030 C.ar      1 1M6502      0.0000 
     19 C19        27.7420   18.6460   10.7270 C.ar      1 1M6502      0.0000 
     20 C20        29.0290   18.9000   10.1880 C.ar      1 1M6502      0.0000 
     21 C21        29.6220   17.9540    9.3150 C.ar      1 1M6502      0.0000 
     22 C22        28.9240   16.7660    8.9880 C.ar      1 1M6502      0.0000 
     23 O23        23.5150   15.6060    6.3060 O.2       1 1M6502      0.0000 
     24 C24        23.0150   10.5220    7.3590 C.3       1 1M6502      0.0000 
     25 C25        23.0750   11.3910    9.7230 C.3       1 1M6502      0.0000 
     26 C26        27.1330   19.6280   11.5960 C.1       1 1M6502      0.0000 
     27 N27        26.6290   20.3930   12.3010 N.1       1 1M6502      0.0000 
     28 H          28.6420   14.0523    9.1607 H         1 1M6502      0.0000 
     29 H          27.4154   12.0485    8.5153 H         1 1M6502      0.0000 
     30 H          25.0508   16.2692    9.0995 H         1 1M6502      0.0000 
     31 H          21.6573   12.9378    8.0852 H         1 1M6502      0.0000 
     32 H          22.7544   13.0601    6.6990 H         1 1M6502      0.0000 
     33 H          22.5158   14.1565   10.3387 H         1 1M6502      0.0000 
     34 H          20.9967   17.5405    9.9357 H         1 1M6502      0.0000 
     35 H          21.1586   16.2324   11.1556 H         1 1M6502      0.0000 
     36 H          26.1189   17.2860   10.7909 H         1 1M6502      0.0000 
     37 H          29.5230   19.7557   10.4267 H         1 1M6502      0.0000 
     38 H          30.5457   18.1282    8.9250 H         1 1M6502      0.0000 
     39 H          29.3465   16.0866    8.3499 H         1 1M6502      0.0000 
     40 H          22.7257   18.2702    7.3315 H         1 1M6502      0.0000 
     41 H          21.3556   17.6319    6.7823 H         1 1M6502      0.0000 
     42 H          21.4163   18.2519    8.2649 H         1 1M6502      0.0000 
     43 H          23.2368   10.6834    6.3974 H         1 1M6502      0.0000 
     44 H          23.4735    9.6748    7.6274 H         1 1M6502      0.0000 
     45 H          22.0310   10.3509    7.4081 H         1 1M6502      0.0000 
     46 H          23.4982   10.5397   10.0330 H         1 1M6502      0.0000 
     47 H          23.3788   12.1128   10.3449 H         1 1M6502      0.0000 
     48 H          22.0881   11.2910    9.8499 H         1 1M6502      0.0000 
@<TRIPOS>BOND
     1    2    1 ar   
     2    6    1 ar   
     3   15    1 1    
     4    3    2 ar   
     5   28    2 1    
     6    4    3 ar   
     7   29    3 1    
     8    5    4 ar   
     9    7    4 1    
    10    6    5 ar   
    11   10    5 1    
    12   30    6 1    
    13    8    7 1    
    14    9    8 1    
    15   24    8 1    
    16   25    8 1    
    17   10    9 1    
    18   31    9 1    
    19   32    9 1    
    20   11   10 1    
    21   14   10 1    
    22   12   11 am   
    23   23   11 2    
    24   13   12 ar   
    25   16   12 1    
    26   14   13 ar   
    27   17   13 ar   
    28   33   14 1    
    29   18   15 ar   
    30   22   15 ar   
    31   40   16 1    
    32   41   16 1    
    33   42   16 1    
    34   34   17 1    
    35   35   17 1    
    36   19   18 ar   
    37   36   18 1    
    38   20   19 ar   
    39   26   19 1    
    40   21   20 ar   
    41   37   20 1    
    42   22   21 ar   
    43   38   21 1    
    44   39   22 1    
    45   43   24 1    
    46   44   24 1    
    47   45   24 1    
    48   46   25 1    
    49   47   25 1    
    50   48   25 1    
    51   27   26 3    
@<TRIPOS>SUBSTRUCTURE
     1 1M6502      1 GROUP   
@<TRIPOS>SET

