#    Name: 3tkm_GW0_1_INTS_M
#    Modification time : Mon Mar 24 20:15:32 2014

@<TRIPOS>MOLECULE
3tkm_GW0_1_INTS_M
   89     0     6     0     0
SMALL
NO_CHARGES


@<TRIPOS>ATOM
      1 CA          3.7275    8.0020   30.1020 C.3       2 GLC5        0.0000 
      2 CA          4.8670    6.9830   29.2390 C.3       6 GLL5        0.0000 
      3 CA          2.5880    9.0210   30.9650 C.3       4 GLP5        0.0000 
      4 CA          3.3775    8.1435   28.1950 C.3       2 GLC5        0.0000 
      5 CA          1.8880    9.3040   27.1510 C.3       4 GLP5        0.0000 
      6 CA         12.6940    5.4080   27.5560 C.3       2 GLC5        0.0000 
      7 CA         10.9620    4.7300   26.7940 C.3       6 GLL5        0.0000 
      8 CA         14.4260    6.0860   28.3180 C.3       4 GLP5        0.0000 
      9 N           6.9045   10.8120   23.5715 N.am      1 SEC2        0.0000 
     10 N           7.0120   10.9350   24.9670 N.am      5 SEL2        0.0000 
     11 N           6.7970   10.6890   22.1760 N.am      3 SEP2        0.0000 
     12 N           6.0905   10.1475   23.5535 N.am      1 SEC2        0.0000 
     13 N           5.3840    9.6060   24.9310 N.am      5 SEL2        0.0000 
     14 N           4.5960    8.5625   24.5910 N.am      1 SEC2        0.0000 
     15 N           3.8080    7.5190   24.2510 N.am      3 SEP2        0.0000 
     16 N           4.6470    9.9510   23.9135 N.am      1 SEC2        0.0000 
     17 N           3.9100   10.2960   22.8960 N.am      3 SEP2        0.0000 
     18 CA         14.3755    4.1675   35.1085 C.3       2 GLC5        0.0000 
     19 CA         12.8320    3.7960   33.9580 C.3       6 GLL5        0.0000 
     20 CA         15.9190    4.5390   36.2590 C.3       4 GLP5        0.0000 
     21 CA          8.7990    2.5190   36.9815 C.3       2 GLC5        0.0000 
     22 CA         10.4250    1.8530   36.1910 C.3       6 GLL5        0.0000 
     23 CA          7.1730    3.1850   37.7720 C.3       4 GLP5        0.0000 
     24 CA         10.4335   -0.1630   35.9240 C.3       2 GLC5        0.0000 
     25 CA         10.4420   -2.1790   35.6570 C.3       4 GLP5        0.0000 
     26 CA         13.3335    0.6710   37.2020 C.3       2 GLC5        0.0000 
     27 CA         12.3150    1.7620   35.7210 C.3       6 GLL5        0.0000 
     28 CA         14.3520   -0.4200   38.6830 C.3       4 GLP5        0.0000 
     29 CA         12.0565   -0.2135   35.3415 C.3       2 GLC5        0.0000 
     30 CA         11.7980   -2.1890   34.9620 C.3       4 GLP5        0.0000 
     31 CA         10.5670    5.3085   31.5045 C.3       2 GLC5        0.0000 
     32 CA         11.7070    3.5050   31.9840 C.3       6 GLL5        0.0000 
     33 CA          9.4270    7.1120   31.0250 C.3       4 GLP5        0.0000 
     34 CA          8.0040   10.2740   28.4710 C.3       2 GLC5        0.0000 
     35 CA          6.6530    9.7730   26.9060 C.3       6 GLL5        0.0000 
     36 CA          9.3550   10.7750   30.0360 C.3       4 GLP5        0.0000 
     37 CA          8.6825    9.8605   26.5215 C.3       2 GLC5        0.0000 
     38 CA         10.7120    9.9480   26.1370 C.3       4 GLP5        0.0000 
     39 CA          4.6735   10.3245   27.1810 C.3       2 GLC5        0.0000 
     40 CA          2.6940   10.8760   27.4560 C.3       4 GLP5        0.0000 
     41 CA          7.3645   11.5515   27.1210 C.3       2 GLC5        0.0000 
     42 CA          8.0760   13.3300   27.3360 C.3       4 GLP5        0.0000 
     43 CA          9.3025    1.7460   25.2700 C.3       2 GLC5        0.0000 
     44 CA          8.7230    2.9860   26.4070 C.3       6 GLL5        0.0000 
     45 CA          9.8820    0.5060   24.1330 C.3       4 GLP5        0.0000 
     46 CA          6.9295    3.8300   24.3865 C.3       2 GLC5        0.0000 
     47 CA          6.9190    3.1820   26.4680 C.3       6 GLL5        0.0000 
     48 CA          6.9400    4.4780   22.3050 C.3       4 GLP5        0.0000 
     49 CA          4.9135    3.5050   27.2610 C.3       2 GLC5        0.0000 
     50 CA          2.9080    3.8280   28.0540 C.3       4 GLP5        0.0000 
     51 CA          6.5915    1.3330   27.5875 C.3       2 GLC5        0.0000 
     52 CA          6.2640   -0.5160   28.7070 C.3       4 GLP5        0.0000 
     53 CA          6.4325    1.9240   24.9045 C.3       2 GLC5        0.0000 
     54 CA          5.9460    0.6660   23.3410 C.3       4 GLP5        0.0000 
     55 CA         10.8245    1.0090   29.1525 C.3       2 GLC5        0.0000 
     56 CA          9.1840    2.3510   29.1170 C.3       6 GLL5        0.0000 
     57 CA         12.4650   -0.3330   29.1880 C.3       4 GLP5        0.0000 
     58 CA          7.7240    0.9175   28.9120 C.3       2 GLC5        0.0000 
     59 CA         11.5620    1.2915   30.2675 C.3       2 GLC5        0.0000 
     60 CA         10.6590    2.9160   31.3470 C.3       6 GLL5        0.0000 
     61 CA          4.0983    5.3090   28.3510 C.3       2 GLC5        0.0000 
     62 CA         13.7168    3.1380   36.5960 C.3       2 GLC5        0.0000 
     63 CA         15.5340    3.6490   37.2690 C.3       4 GLP5        0.0000 
     64 CA         11.3317    4.9395   35.5643 C.3       2 GLC5        0.0000 
     65 CA         11.4840    3.4920   36.1250 C.3       6 GLL5        0.0000 
     66 CA         11.2700    6.9110   35.2850 C.3       4 GLP5        0.0000 
     67 CA          8.4560    0.7553   33.4447 C.3       2 GLC5        0.0000 
     68 CA          9.7860    2.1920   32.1300 C.3       6 GLL5        0.0000 
     69 CA          7.0530   -0.5870   34.0830 C.3       4 GLP5        0.0000 
     70 CA         11.0605    0.2485   33.6400 C.3       2 GLC5        0.0000 
     71 CA          9.9320    2.0030   33.4830 C.3       6 GLL5        0.0000 
     72 CA         11.6600   -1.8000   33.5000 C.3       4 GLP5        0.0000 
     73 CA          4.6132    4.4523   27.6567 C.3       2 GLC5        0.0000 
     74 CA          5.9410    5.2770   27.7940 C.3       6 GLL5        0.0000 
     75 CA         13.2461    2.2458   32.8892 C.3       2 GLC5        0.0000 
     76 CA         14.4700    0.9650   32.9670 C.3       4 GLP5        0.0000 
     77 CA          8.4748    3.8505   29.8773 C.3       2 GLC5        0.0000 
     78 CA          7.6340    4.9660   31.3230 C.3       4 GLP5        0.0000 
     79 CA          8.9465    3.7364   31.6999 C.3       2 GLC5        0.0000 
     80 CA          6.9579    6.7134   29.2425 C.3       2 GLC5        0.0000 
     81 CA          8.0000    6.6370   30.7530 C.3       4 GLP5        0.0000 
     82 CA         11.1113    2.3285   26.3577 C.3       2 GLC5        0.0000 
     83 CA          9.4470    3.1190   27.7460 C.3       6 GLL5        0.0000 
     84 CA         12.1350    0.9340   25.1530 C.3       4 GLP5        0.0000 
     85 CA          8.6472    2.8486   34.3684 C.3       2 GLC5        0.0000 
     86 CA          6.8700    3.3530   35.2950 C.3       4 GLP5        0.0000 
     87 CA         11.4669    4.9902   34.5715 C.3       2 GLC5        0.0000 
     88 CA         10.9900    2.5910   34.0770 C.3       6 GLL5        0.0000 
     89 CA         12.9348    1.6560   33.9131 C.3       2 GLC5        0.0000 
@<TRIPOS>BOND
@<TRIPOS>SUBSTRUCTURE
     1 SEC2        9 GROUP        1 X    SEC  0     ROOT SEC X 2
     2 GLC5        1 GROUP        1 X    GLC  0     **** GLC X 6
     3 SEP2       11 GROUP        1 Y    SEP  0     ROOT SEP Y 9
     4 GLP5        3 GROUP        1 Y    GLP  0     **** GLP Y 13
     5 SEL2       10 GROUP        1 Z    SEL  0     ROOT SEL Z 16
     6 GLL5        2 GROUP        1 Z    GLL  0     **** GLL Z 20
@<TRIPOS>SET

