#    Name: 3tkm_GW0_1_ligand
#    Modification time : Mon Mar 24 20:15:32 2014

@<TRIPOS>MOLECULE
3tkm_GW0_1_ligand
   47    49     1     0     0
SMALL
NO_CHARGES


@<TRIPOS>ATOM
      1 CAA         4.8670    6.9830   29.2390 C.3       1 GW01        0.0000 
      2 CAB        10.9620    4.7300   26.7940 C.3       1 GW01        0.0000 
      3 OAC         7.0120   10.9350   24.9670 O.co2     1 GW01        0.0000 
      4 OAD         5.3840    9.6060   24.9310 O.co2     1 GW01        0.0000 
      5 FAE        12.8320    3.7960   33.9580 F         1 GW01        0.0000 
      6 FAF        11.4840    3.4920   36.1250 F         1 GW01        0.0000 
      7 FAG        10.4250    1.8530   36.1910 F         1 GW01        0.0000 
      8 FAH        12.3150    1.7620   35.7210 F         1 GW01        0.0000 
      9 CAI         7.2190    5.8440   25.9160 C.ar      1 GW01        0.0000 
     10 CAJ         9.7860    2.1920   32.1300 C.ar      1 GW01        0.0000 
     11 CAK         6.9770    7.1720   26.1770 C.ar      1 GW01        0.0000 
     12 CAL         9.9320    2.0030   33.4830 C.ar      1 GW01        0.0000 
     13 CAM         5.9410    5.2770   27.7940 C.ar      1 GW01        0.0000 
     14 CAN        11.7070    3.5050   31.9840 C.ar      1 GW01        0.0000 
     15 CAO         6.6530    9.7730   26.9060 C.3       1 GW01        0.0000 
     16 CAP         8.7230    2.9860   26.4070 C.3       1 GW01        0.0000 
     17 NAQ        11.0100    3.9220   29.1750 N.2       1 GW01        0.0000 
     18 OAR         5.9490    8.7930   27.5210 O.3       1 GW01        0.0000 
     19 SAS         6.9190    3.1820   26.4680 S.3       1 GW01        0.0000 
     20 SAT         9.1840    2.3510   29.1170 S.3       1 GW01        0.0000 
     21 CAU         6.3030   10.1300   25.4930 C.2       1 GW01        0.0000 
     22 CAV         5.7100    6.5970   28.0570 C.ar      1 GW01        0.0000 
     23 CAW        10.4940    3.9240   27.9640 C.2       1 GW01        0.0000 
     24 CAX         6.6960    4.8760   26.7250 C.ar      1 GW01        0.0000 
     25 CAY        11.8430    3.3000   33.3200 C.ar      1 GW01        0.0000 
     26 CAZ        10.6590    2.9160   31.3470 C.ar      1 GW01        0.0000 
     27 CBA         6.2170    7.5460   27.2430 C.ar      1 GW01        0.0000 
     28 CBB         9.4470    3.1190   27.7460 C.2       1 GW01        0.0000 
     29 CBC        10.9900    2.5910   34.0770 C.ar      1 GW01        0.0000 
     30 CBD        10.4050    3.1160   29.9940 C.2       1 GW01        0.0000 
     31 CBE        11.3030    2.4440   35.5620 C.3       1 GW01        0.0000 
     32 H           7.8021    5.5803   25.0997 H         1 GW01        0.0000 
     33 H           8.9436    1.7508   31.6534 H         1 GW01        0.0000 
     34 H           7.3826    7.8962   25.5482 H         1 GW01        0.0000 
     35 H           9.2619    1.4397   34.0049 H         1 GW01        0.0000 
     36 H           5.5294    4.5498   28.4274 H         1 GW01        0.0000 
     37 H          12.3759    4.0880   31.4685 H         1 GW01        0.0000 
     38 H           7.7780    9.5508   26.9077 H         1 GW01        0.0000 
     39 H           6.6192   10.7541   27.4987 H         1 GW01        0.0000 
     40 H           9.0109    3.7457   25.6866 H         1 GW01        0.0000 
     41 H           8.8308    2.0037   25.9571 H         1 GW01        0.0000 
     42 H           5.2606    6.6565   30.0983 H         1 GW01        0.0000 
     43 H           4.7713    7.9752   29.3187 H         1 GW01        0.0000 
     44 H           3.9439    6.6036   29.1766 H         1 GW01        0.0000 
     45 H          11.9098    4.5203   26.5538 H         1 GW01        0.0000 
     46 H          10.4083    4.5581   25.9792 H         1 GW01        0.0000 
     47 H          10.9165    5.7120   26.9774 H         1 GW01        0.0000 
@<TRIPOS>BOND
     1   22    1 1    
     2   42    1 1    
     3   43    1 1    
     4   44    1 1    
     5   23    2 1    
     6   45    2 1    
     7   46    2 1    
     8   47    2 1    
     9   21    3 ar   
    10   21    4 ar   
    11   25    5 1    
    12   31    6 1    
    13   31    7 1    
    14   31    8 1    
    15   11    9 ar   
    16   24    9 ar   
    17   32    9 1    
    18   12   10 ar   
    19   26   10 ar   
    20   33   10 1    
    21   27   11 ar   
    22   34   11 1    
    23   29   12 ar   
    24   35   12 1    
    25   22   13 ar   
    26   24   13 ar   
    27   36   13 1    
    28   25   14 ar   
    29   26   14 ar   
    30   37   14 1    
    31   18   15 1    
    32   21   15 1    
    33   38   15 1    
    34   39   15 1    
    35   19   16 1    
    36   28   16 1    
    37   40   16 1    
    38   41   16 1    
    39   23   17 1    
    40   30   17 2    
    41   27   18 1    
    42   24   19 1    
    43   28   20 1    
    44   30   20 1    
    45   27   22 ar   
    46   28   23 2    
    47   29   25 ar   
    48   30   26 1    
    49   31   29 1    
@<TRIPOS>SUBSTRUCTURE
     1 GW01        1 GROUP   
@<TRIPOS>SET

