#    Name: 1shj_NXN_1_INTS_M
#    Modification time : Tue Mar 25 02:28:13 2014

@<TRIPOS>MOLECULE
1shj_NXN_1_INTS_M
   58     0     3     0     0
SMALL
NO_CHARGES


@<TRIPOS>ATOM
      1 CA         49.0750   18.6825    2.7915 C.3       1 GLC5        0.0000 
      2 CA         49.4110   17.0470    4.2540 C.3       3 GLL5        0.0000 
      3 CA         48.7390   20.3180    1.3290 C.3       2 GLP5        0.0000 
      4 CA         47.5735   16.7025    5.4870 C.3       1 GLC5        0.0000 
      5 CA         45.7360   16.3580    6.7200 C.3       2 GLP5        0.0000 
      6 CA         51.3125   14.9340    5.6685 C.3       1 GLC5        0.0000 
      7 CA         50.2470   16.6520    5.4650 C.3       3 GLL5        0.0000 
      8 CA         52.3780   13.2160    5.8720 C.3       2 GLP5        0.0000 
      9 CA         50.9125   18.9040    5.9170 C.3       1 GLC5        0.0000 
     10 CA         51.4140   17.9850    5.8010 C.3       3 GLL5        0.0000 
     11 CA         50.4110   19.8230    6.0330 C.3       2 GLP5        0.0000 
     12 CA         53.1500   18.0715    5.7870 C.3       1 GLC5        0.0000 
     13 CA         54.8860   18.1580    5.7730 C.3       2 GLP5        0.0000 
     14 CA         52.0735   17.3210    7.6580 C.3       1 GLC5        0.0000 
     15 CA         52.7330   16.6570    9.5150 C.3       2 GLP5        0.0000 
     16 CA         50.7670   14.6485    0.9370 C.3       1 GLC5        0.0000 
     17 CA         50.2500   16.2680    0.6310 C.3       3 GLL5        0.0000 
     18 CA         51.2840   13.0290    1.2430 C.3       2 GLP5        0.0000 
     19 CA         50.2375   17.8980   -0.1190 C.3       1 GLC5        0.0000 
     20 CA         50.2250   19.5280   -0.8690 C.3       2 GLP5        0.0000 
     21 CA         51.6665   15.1265   -2.6730 C.3       1 GLC5        0.0000 
     22 CA         52.6920   16.1130   -1.0260 C.3       3 GLL5        0.0000 
     23 CA         50.6410   14.1400   -4.3200 C.3       2 GLP5        0.0000 
     24 CA         51.7905   14.1930   -1.0875 C.3       1 GLC5        0.0000 
     25 CA         50.8890   12.2730   -1.1490 C.3       2 GLP5        0.0000 
     26 CA         53.9100   17.0680   -3.3655 C.3       1 GLC5        0.0000 
     27 CA         53.8780   16.0720   -1.7560 C.3       3 GLL5        0.0000 
     28 CA         53.9420   18.0640   -4.9750 C.3       2 GLP5        0.0000 
     29 CA         54.0220   16.9190    2.6690 C.3       1 GLC5        0.0000 
     30 CA         53.6930   18.5450    2.0700 C.3       3 GLL5        0.0000 
     31 CA         54.3510   15.2930    3.2680 C.3       2 GLP5        0.0000 
     32 CA         54.9100   19.9015    2.2690 C.3       1 GLC5        0.0000 
     33 CA         56.1270   21.2580    2.4680 C.3       2 GLP5        0.0000 
     34 CA         52.2715   19.3385    1.1460 C.3       1 GLC5        0.0000 
     35 CA         50.8500   20.1320    0.2220 C.3       2 GLP5        0.0000 
     36 CA         54.2895   18.3515    3.9215 C.3       1 GLC5        0.0000 
     37 CA         55.9355   16.6085    1.0880 C.3       1 GLC5        0.0000 
     38 CA         54.9230   17.5350   -0.1390 C.3       3 GLL5        0.0000 
     39 CA         56.9480   15.6820    2.3150 C.3       2 GLP5        0.0000 
     40 CA         55.6360   17.8930   -3.1510 C.3       1 GLC5        0.0000 
     41 CA         56.5020   16.7620   -2.1940 C.3       3 GLL5        0.0000 
     42 CA         54.7700   19.0240   -4.1080 C.3       2 GLP5        0.0000 
     43 CA         57.0985   16.3715   -3.9070 C.3       1 GLC5        0.0000 
     44 CA         57.6950   15.9810   -5.6200 C.3       2 GLP5        0.0000 
     45 CA         57.5100   15.8710   -1.5965 C.3       1 GLC5        0.0000 
     46 CA         58.5180   14.9800   -0.9990 C.3       2 GLP5        0.0000 
     47 CA         57.2740   18.3295   -1.3395 C.3       1 GLC5        0.0000 
     48 CA         58.0460   19.8970   -0.4850 C.3       2 GLP5        0.0000 
     49 CA         49.6500   15.0697    3.8317 C.3       1 GLC5        0.0000 
     50 CA         49.4710   13.2900    2.8040 C.3       2 GLP5        0.0000 
     51 CA         50.1200   18.3362    5.4463 C.3       1 GLC5        0.0000 
     52 CA         53.7672   16.2557    1.8155 C.3       1 GLC5        0.0000 
     53 CA         52.6240   16.8660    0.1490 C.3       3 GLL5        0.0000 
     54 CA         54.8590   18.0930   -2.4132 C.3       1 GLC5        0.0000 
     55 CA         56.7330   16.0710   -0.8588 C.3       1 GLC5        0.0000 
     56 CA         54.9730   16.7890   -1.2980 C.3       3 GLL5        0.0000 
     57 CA         56.2458   15.1983   -0.4465 C.3       1 GLC5        0.0000 
     58 CA         56.7540   13.6210    0.8530 C.3       2 GLP5        0.0000 
@<TRIPOS>BOND
@<TRIPOS>SUBSTRUCTURE
     1 GLC5        1 GROUP        1 X    GLC  0     ROOT GLC X 6
     2 GLP5        3 GROUP        1 Y    GLP  0     ROOT GLP Y 13
     3 GLL5        2 GROUP        1 Z    GLL  0     ROOT GLL Z 20
@<TRIPOS>SET

