#    Name: 1shj_NXN_1_ligand
#    Modification time : Tue Mar 25 02:28:13 2014

@<TRIPOS>MOLECULE
1shj_NXN_1_ligand
   26    26     1     0     0
SMALL
NO_CHARGES


@<TRIPOS>ATOM
      1 O17        48.1480   16.5350    1.7180 O.2       1 NXN401      0.0000 
      2 C12        49.3660   16.4580    1.8460 C.2       1 NXN401      0.0000 
      3 N1         50.0070   16.5390    3.0240 N.am      1 NXN401      0.0000 
      4 C14        49.4110   17.0470    4.2540 C.3       1 NXN401      0.0000 
      5 C15        50.2470   16.6520    5.4650 C.3       1 NXN401      0.0000 
      6 S19        51.4140   17.9850    5.8010 S.3       1 NXN401      0.0000 
      7 C9         50.2500   16.2680    0.6310 C.3       1 NXN401      0.0000 
      8 O18        51.4800   16.9400    0.9100 O.3       1 NXN401      0.0000 
      9 C10        52.6240   16.8660    0.1490 C.ar      1 NXN401      0.0000 
     10 C6         52.6920   16.1130   -1.0260 C.ar      1 NXN401      0.0000 
     11 C5         53.8780   16.0720   -1.7560 C.ar      1 NXN401      0.0000 
     12 C8         53.7430   17.5710    0.5770 C.ar      1 NXN401      0.0000 
     13 CL4        53.6930   18.5450    2.0700 Cl        1 NXN401      0.0000 
     14 C11        54.9230   17.5350   -0.1390 C.ar      1 NXN401      0.0000 
     15 C16        54.9730   16.7890   -1.2980 C.ar      1 NXN401      0.0000 
     16 CL3        56.5020   16.7620   -2.1940 Cl        1 NXN401      0.0000 
     17 H          51.0130   16.2246    3.1126 H         1 NXN401      0.0000 
     18 H          48.3980   16.6480    4.3912 H         1 NXN401      0.0000 
     19 H          49.3377   18.1416    4.2296 H         1 NXN401      0.0000 
     20 H          50.8812   15.8271    5.2930 H         1 NXN401      0.0000 
     21 H          49.6955   16.5957    6.3622 H         1 NXN401      0.0000 
     22 H          49.7441   16.6920   -0.2299 H         1 NXN401      0.0000 
     23 H          50.3965   15.2041    0.4775 H         1 NXN401      0.0000 
     24 H          51.8695   15.5921   -1.3490 H         1 NXN401      0.0000 
     25 H          53.9369   15.5219   -2.6142 H         1 NXN401      0.0000 
     26 H          55.7443   18.0521    0.1846 H         1 NXN401      0.0000 
@<TRIPOS>BOND
     1    2    1 2    
     2    3    2 am   
     3    7    2 1    
     4    4    3 1    
     5   17    3 1    
     6    5    4 1    
     7   18    4 1    
     8   19    4 1    
     9    6    5 1    
    10   20    5 1    
    11   21    5 1    
    12    8    7 1    
    13   22    7 1    
    14   23    7 1    
    15    9    8 1    
    16   10    9 ar   
    17   12    9 ar   
    18   11   10 ar   
    19   24   10 1    
    20   15   11 ar   
    21   25   11 1    
    22   13   12 1    
    23   14   12 ar   
    24   15   14 ar   
    25   26   14 1    
    26   16   15 1    
@<TRIPOS>SUBSTRUCTURE
     1 NXN401      1 GROUP   
@<TRIPOS>SET

