#    Name: 3g72_A6T_1_INTS_M
#    Modification time : Tue Mar 25 07:17:06 2014

@<TRIPOS>MOLECULE
3g72_A6T_1_INTS_M
   99     0     3     0     0
SMALL
NO_CHARGES


@<TRIPOS>ATOM
      1 CA          6.6890    7.1990    6.6905 C.3       1 GLC5        0.0000 
      2 CA          7.1870    5.3190    6.1650 C.3       3 GLL5        0.0000 
      3 CA          6.1910    9.0790    7.2160 C.3       2 GLP5        0.0000 
      4 CA          6.3090    5.7185    7.8660 C.3       1 GLC5        0.0000 
      5 CA          5.4310    6.1180    9.5670 C.3       2 GLP5        0.0000 
      6 CA         -1.9550    3.1800    3.1880 C.3       1 GLC5        0.0000 
      7 CA         -2.2450    5.1660    3.8450 C.3       3 GLL5        0.0000 
      8 CA         -1.6650    1.1940    2.5310 C.3       2 GLP5        0.0000 
      9 CA         -3.1400    6.3645    2.8140 C.3       1 GLC5        0.0000 
     10 CA         -4.0350    7.5630    1.7830 C.3       2 GLP5        0.0000 
     11 CA          0.4050    4.5210    0.1535 C.3       1 GLC5        0.0000 
     12 CA          0.0580    4.9520    1.7810 C.3       3 GLL5        0.0000 
     13 CA          0.7520    4.0900   -1.4740 C.3       2 GLP5        0.0000 
     14 CA         -1.3770    6.2625    1.3405 C.3       1 GLC5        0.0000 
     15 CA         -2.8120    7.5730    0.9000 C.3       2 GLP5        0.0000 
     16 CA          0.1670    6.8945    2.2380 C.3       1 GLC5        0.0000 
     17 CA          0.2760    8.8370    2.6950 C.3       2 GLP5        0.0000 
     18 CA         -1.4515    7.1540    6.1910 C.3       1 GLC5        0.0000 
     19 CA         -0.3130    5.5370    5.7700 C.3       3 GLL5        0.0000 
     20 CA         -2.5900    8.7710    6.6120 C.3       2 GLP5        0.0000 
     21 CA          2.4045    4.4630    0.8355 C.3       1 GLC5        0.0000 
     22 CA          2.7880    5.2340    2.7950 C.3       3 GLL5        0.0000 
     23 CA          2.0210    3.6920   -1.1240 C.3       2 GLP5        0.0000 
     24 CA          1.5320    7.0355    2.7450 C.3       1 GLC5        0.0000 
     25 CA          4.9460    8.0440    0.9250 C.3       1 GLC5        0.0000 
     26 CA          4.6970    6.8420    2.6580 C.3       3 GLL5        0.0000 
     27 CA          5.1950    9.2460   -0.8080 C.3       2 GLP5        0.0000 
     28 CA          2.0740    8.3980    2.9915 C.3       1 GLC5        0.0000 
     29 CA          3.8720    7.9590    3.2880 C.3       3 GLL5        0.0000 
     30 CA          4.7740    9.1725    1.6650 C.3       1 GLC5        0.0000 
     31 CA          5.6760   10.3860    0.0420 C.3       2 GLP5        0.0000 
     32 CA          6.8240    9.0705    3.9595 C.3       1 GLC5        0.0000 
     33 CA          5.2810    7.7450    3.7780 C.3       3 GLL5        0.0000 
     34 CA          8.3670   10.3960    4.1410 C.3       2 GLP5        0.0000 
     35 CA          5.7360    8.4120    5.4970 C.3       1 GLC5        0.0000 
     36 CA          9.9470    6.1535    2.4105 C.3       1 GLC5        0.0000 
     37 CA          8.7390    4.7210    3.0550 C.3       3 GLL5        0.0000 
     38 CA         11.1550    7.5860    1.7660 C.3       2 GLP5        0.0000 
     39 CA         10.8665    6.3820    5.7360 C.3       1 GLC5        0.0000 
     40 CA          9.5370    5.1810    5.3580 C.3       3 GLL5        0.0000 
     41 CA         12.1960    7.5830    6.1140 C.3       2 GLP5        0.0000 
     42 CA          9.2940    6.8625    1.2520 C.3       1 GLC5        0.0000 
     43 CA          7.4330    6.1390    0.7380 C.3       3 GLL5        0.0000 
     44 CA          7.1415    7.0385   -3.3170 C.3       1 GLC5        0.0000 
     45 CA          5.9110    5.6080   -2.7100 C.3       3 GLL5        0.0000 
     46 CA          8.3720    8.4690   -3.9240 C.3       2 GLP5        0.0000 
     47 CA          6.4115    7.6820   -4.0360 C.3       1 GLC5        0.0000 
     48 CA          5.2370    6.6920   -3.0800 C.3       3 GLL5        0.0000 
     49 CA          7.5860    8.6720   -4.9920 C.3       2 GLP5        0.0000 
     50 CA          2.6685    5.5920   -3.8170 C.3       1 GLC5        0.0000 
     51 CA          3.7780    6.6370   -2.7460 C.3       3 GLL5        0.0000 
     52 CA          1.5590    4.5470   -4.8880 C.3       2 GLP5        0.0000 
     53 CA          2.8995    5.1645   -1.9350 C.3       1 GLC5        0.0000 
     54 CA          1.4820    5.7760   -0.9825 C.3       1 GLC5        0.0000 
     55 CA          2.2120    7.4620   -0.4910 C.3       3 GLL5        0.0000 
     56 CA          1.5155    8.4720    0.5530 C.3       1 GLC5        0.0000 
     57 CA          0.8190    9.4820    1.5970 C.3       2 GLP5        0.0000 
     58 CA          2.4970   10.1855   -6.2155 C.3       1 GLC5        0.0000 
     59 CA          1.6670    8.3270   -5.4690 C.3       3 GLL5        0.0000 
     60 CA          3.3270   12.0440   -6.9620 C.3       2 GLP5        0.0000 
     61 CA          0.4855    9.4345   -6.3405 C.3       1 GLC5        0.0000 
     62 CA         -0.6960   10.5420   -7.2120 C.3       2 GLP5        0.0000 
     63 CA          2.9260    7.7850   -6.6370 C.3       1 GLC5        0.0000 
     64 CA          4.1850    7.2430   -7.8050 C.3       2 GLP5        0.0000 
     65 CA          1.6130    6.4370   -5.1785 C.3       1 GLC5        0.0000 
     66 CA         -2.9370    8.9025   -4.4260 C.3       1 GLC5        0.0000 
     67 CA         -1.3030    8.2060   -4.5420 C.3       3 GLL5        0.0000 
     68 CA         -4.5710    9.5990   -4.3100 C.3       2 GLP5        0.0000 
     69 CA         -0.0005    3.1180    2.3643 C.3       1 GLC5        0.0000 
     70 CA         -0.2420    1.1350    2.0860 C.3       2 GLP5        0.0000 
     71 CA          4.4637    9.6440    4.3125 C.3       1 GLC5        0.0000 
     72 CA          4.3510   11.4360    5.0920 C.3       2 GLP5        0.0000 
     73 CA          7.5427    3.9250   -0.5110 C.3       1 GLC5        0.0000 
     74 CA          6.8530    5.0520    1.4300 C.3       3 GLL5        0.0000 
     75 CA          8.6550    3.2380   -2.1150 C.3       2 GLP5        0.0000 
     76 CA          7.9650    4.7393   -1.0257 C.3       1 GLC5        0.0000 
     77 CA          7.1170    6.3420   -0.6110 C.3       3 GLL5        0.0000 
     78 CA          6.2350    7.7433   -0.3723 C.3       1 GLC5        0.0000 
     79 CA          5.6402    7.3845   -1.4005 C.3       1 GLC5        0.0000 
     80 CA          6.2600    5.4380   -1.2760 C.3       3 GLL5        0.0000 
     81 CA          7.2989    4.2465   -1.9669 C.3       1 GLC5        0.0000 
     82 CA          5.3565    4.9505   -4.4805 C.3       1 GLC5        0.0000 
     83 CA          5.1390    3.7510   -6.0660 C.3       2 GLP5        0.0000 
     84 CA          4.8513    7.9552   -1.8605 C.3       1 GLC5        0.0000 
     85 CA          1.4785    6.2455   -4.1045 C.3       1 GLC5        0.0000 
     86 CA          1.8410    7.8440   -2.8070 C.3       3 GLL5        0.0000 
     87 CA          3.5510    8.4259   -1.0669 C.3       1 GLC5        0.0000 
     88 CA          1.7127    9.8584   -2.8159 C.3       1 GLC5        0.0000 
     89 CA          2.1470   11.8200   -2.6340 C.3       2 GLP5        0.0000 
     90 CA         -0.7757    9.3262   -5.6337 C.3       1 GLC5        0.0000 
     91 CA         -0.4080    8.0150   -3.5690 C.3       3 GLL5        0.0000 
     92 CA         -0.3877    6.4547   -4.9437 C.3       1 GLC5        0.0000 
     93 CA          0.0800    4.7990   -5.8320 C.3       2 GLP5        0.0000 
     94 CA         -0.9748    5.7003   -2.1395 C.3       1 GLC5        0.0000 
     95 CA         -0.8930    7.8210   -2.2900 C.3       3 GLL5        0.0000 
     96 CA         -1.5040    3.6660   -2.5040 C.3       2 GLP5        0.0000 
     97 CA         -1.6288    7.6538   -0.4375 C.3       1 GLC5        0.0000 
     98 CA         -1.2126   10.0769   -3.1059 C.3       1 GLC5        0.0000 
     99 CA         -1.5510   12.1880   -3.0390 C.3       2 GLP5        0.0000 
@<TRIPOS>BOND
@<TRIPOS>SUBSTRUCTURE
     1 GLC5        1 GROUP        1 X    GLC  0     ROOT GLC X 6
     2 GLP5        3 GROUP        1 Y    GLP  0     ROOT GLP Y 13
     3 GLL5        2 GROUP        1 Z    GLL  0     ROOT GLL Z 20
@<TRIPOS>SET

