#    Name: 3g72_A6T_1_ligand
#    Modification time : Tue Mar 25 07:17:06 2014

@<TRIPOS>MOLECULE
3g72_A6T_1_ligand
   73    78     1     0     0
SMALL
NO_CHARGES


@<TRIPOS>ATOM
      1 C           7.1870    5.3190    6.1650 C.3       1 A6T343      0.0000 
      2 CLA        -2.2450    5.1660    3.8450 Cl        1 A6T343      0.0000 
      3 C36        -0.5760    5.3190    4.4240 C.ar      1 A6T343      0.0000 
      4 C33         0.4240    5.2500    3.5040 C.ar      1 A6T343      0.0000 
      5 CLR3        0.0580    4.9520    1.7810 Cl        1 A6T343      0.0000 
      6 C38        -0.3130    5.5370    5.7700 C.ar      1 A6T343      0.0000 
      7 C37         1.0020    5.6510    6.1710 C.ar      1 A6T343      0.0000 
      8 C34         2.0240    5.5680    5.2260 C.ar      1 A6T343      0.0000 
      9 C32         1.7380    5.3490    3.8920 C.ar      1 A6T343      0.0000 
     10 C29         2.7880    5.2340    2.7950 C.3       1 A6T343      0.0000 
     11 N26         4.1940    5.4940    3.0970 N.am      1 A6T343      0.0000 
     12 C28         4.6970    6.8420    2.6580 C.3       1 A6T343      0.0000 
     13 C31         3.8720    7.9590    3.2880 C.3       1 A6T343      0.0000 
     14 C30         5.2810    7.7450    3.7780 C.3       1 A6T343      0.0000 
     15 C22         4.9270    4.4760    3.6020 C.2       1 A6T343      0.0000 
     16 O25         4.4040    3.3870    3.8660 O.2       1 A6T343      0.0000 
     17 C20         6.3590    4.5190    3.8640 C.2       1 A6T343      0.0000 
     18 C23         6.8610    4.1420    5.2340 C.3       1 A6T343      0.0000 
     19 N27         8.0500    3.3150    4.9840 N.4       1 A6T343      0.0000 
     20 C24         9.1450    4.0800    4.3840 C.3       1 A6T343      0.0000 
     21 C21         8.7390    4.7210    3.0550 C.3       1 A6T343      0.0000 
     22 NB          8.4300    6.0140    5.7820 N.3       1 A6T343      0.0000 
     23 CA          9.5370    5.1810    5.3580 C.3       1 A6T343      0.0000 
     24 C19         7.2200    4.7560    2.8530 C.2       1 A6T343      0.0000 
     25 C18         6.8530    5.0520    1.4300 C.ar      1 A6T343      0.0000 
     26 C16         6.0080    4.1720    0.7560 C.ar      1 A6T343      0.0000 
     27 C14         5.6890    4.3660   -0.5790 C.ar      1 A6T343      0.0000 
     28 C17         7.4330    6.1390    0.7380 C.ar      1 A6T343      0.0000 
     29 C15         7.1170    6.3420   -0.6110 C.ar      1 A6T343      0.0000 
     30 C13         6.2600    5.4380   -1.2760 C.ar      1 A6T343      0.0000 
     31 C12         5.9110    5.6080   -2.7100 C.3       1 A6T343      0.0000 
     32 C10         5.2370    6.6920   -3.0800 C.3       1 A6T343      0.0000 
     33 C8          3.7780    6.6370   -2.7460 C.3       1 A6T343      0.0000 
     34 O5          3.1840    7.8770   -3.1070 O.3       1 A6T343      0.0000 
     35 C3          1.8410    7.8440   -2.8070 C.ar      1 A6T343      0.0000 
     36 C6          1.3630    7.6550   -1.5140 C.ar      1 A6T343      0.0000 
     37 F1          2.2120    7.4620   -0.4910 F         1 A6T343      0.0000 
     38 C2          0.9550    8.0440   -3.8350 C.ar      1 A6T343      0.0000 
     39 CL11        1.6670    8.3270   -5.4690 Cl        1 A6T343      0.0000 
     40 C4         -0.4080    8.0150   -3.5690 C.ar      1 A6T343      0.0000 
     41 F2         -1.3030    8.2060   -4.5420 F         1 A6T343      0.0000 
     42 C7         -0.8930    7.8210   -2.2900 C.ar      1 A6T343      0.0000 
     43 C9          0.0020    7.6480   -1.2600 C.ar      1 A6T343      0.0000 
     44 H           7.2643    4.9300    7.1923 H         1 A6T343      0.0000 
     45 H           6.3345    6.0158    6.1451 H         1 A6T343      0.0000 
     46 H          -1.0758    5.6103    6.4419 H         1 A6T343      0.0000 
     47 H           1.2347    5.7968    7.1617 H         1 A6T343      0.0000 
     48 H           3.0066    5.6724    5.5330 H         1 A6T343      0.0000 
     49 H           2.4535    5.9067    1.9400 H         1 A6T343      0.0000 
     50 H           2.6840    4.1959    2.3399 H         1 A6T343      0.0000 
     51 H           5.0100    7.1368    1.8536 H         1 A6T343      0.0000 
     52 H           3.2744    7.5612    3.9103 H         1 A6T343      0.0000 
     53 H           3.8723    8.6936    2.6855 H         1 A6T343      0.0000 
     54 H           5.8421    8.3741    3.3517 H         1 A6T343      0.0000 
     55 H           5.2442    7.2416    4.5765 H         1 A6T343      0.0000 
     56 H           6.1062    3.5137    5.7096 H         1 A6T343      0.0000 
     57 H          10.0033    3.4566    4.2222 H         1 A6T343      0.0000 
     58 H           9.1953    4.1588    2.2318 H         1 A6T343      0.0000 
     59 H           9.1273    5.7455    3.0179 H         1 A6T343      0.0000 
     60 H          10.3279    5.7959    4.8749 H         1 A6T343      0.0000 
     61 H          10.0247    4.7009    6.2347 H         1 A6T343      0.0000 
     62 H           5.6132    3.3598    1.2644 H         1 A6T343      0.0000 
     63 H           5.0413    3.7337   -1.0577 H         1 A6T343      0.0000 
     64 H           8.0743    6.7658    1.2211 H         1 A6T343      0.0000 
     65 H           7.5031    7.1412   -1.1178 H         1 A6T343      0.0000 
     66 H           5.3722    4.6386   -3.0208 H         1 A6T343      0.0000 
     67 H           6.8993    5.4960   -3.2908 H         1 A6T343      0.0000 
     68 H           5.3020    6.8967   -4.1881 H         1 A6T343      0.0000 
     69 H           5.6342    7.6404   -2.6144 H         1 A6T343      0.0000 
     70 H           3.6742    6.4373   -1.6743 H         1 A6T343      0.0000 
     71 H           3.3280    5.8007   -3.2913 H         1 A6T343      0.0000 
     72 H          -1.9021    7.8067   -2.1147 H         1 A6T343      0.0000 
     73 H          -0.3377    7.5124   -0.2944 H         1 A6T343      0.0000 
@<TRIPOS>BOND
     1   18    1 1    
     2   22    1 1    
     3   44    1 1    
     4   45    1 1    
     5    3    2 1    
     6    4    3 ar   
     7    6    3 ar   
     8    5    4 1    
     9    9    4 ar   
    10    7    6 ar   
    11   46    6 1    
    12    8    7 ar   
    13   47    7 1    
    14    9    8 ar   
    15   48    8 1    
    16   10    9 1    
    17   11   10 1    
    18   49   10 1    
    19   50   10 1    
    20   12   11 1    
    21   15   11 am   
    22   13   12 1    
    23   14   12 1    
    24   51   12 1    
    25   14   13 1    
    26   52   13 1    
    27   53   13 1    
    28   54   14 1    
    29   55   14 1    
    30   16   15 2    
    31   17   15 1    
    32   18   17 1    
    33   24   17 2    
    34   19   18 1    
    35   56   18 1    
    36   20   19 1    
    37   21   20 1    
    38   23   20 1    
    39   57   20 1    
    40   24   21 1    
    41   58   21 1    
    42   59   21 1    
    43   23   22 1    
    44   60   23 1    
    45   61   23 1    
    46   25   24 1    
    47   26   25 ar   
    48   28   25 ar   
    49   27   26 ar   
    50   62   26 1    
    51   30   27 ar   
    52   63   27 1    
    53   29   28 ar   
    54   64   28 1    
    55   30   29 ar   
    56   65   29 1    
    57   31   30 1    
    58   32   31 1    
    59   66   31 1    
    60   67   31 1    
    61   33   32 1    
    62   68   32 1    
    63   69   32 1    
    64   34   33 1    
    65   70   33 1    
    66   71   33 1    
    67   35   34 1    
    68   36   35 ar   
    69   38   35 ar   
    70   37   36 1    
    71   43   36 ar   
    72   39   38 1    
    73   40   38 ar   
    74   41   40 1    
    75   42   40 ar   
    76   43   42 ar   
    77   72   42 1    
    78   73   43 1    
@<TRIPOS>SUBSTRUCTURE
     1 A6T343      1 GROUP   
@<TRIPOS>SET

