#    Name: 2g24_7IG_1_INTS_M
#    Modification time : Tue Mar 25 13:27:39 2014

@<TRIPOS>MOLECULE
2g24_7IG_1_INTS_M
   53     0     6     0     0
SMALL
NO_CHARGES


@<TRIPOS>ATOM
      1 CA         26.0765  108.3850  132.5645 C.3       2 GLC5        0.0000 
      2 CA         27.8690  107.9350  131.5210 C.3       6 GLL5        0.0000 
      3 CA         24.2840  108.8350  133.6080 C.3       4 GLP5        0.0000 
      4 O          29.2770  104.1640  130.4570 O.2       1 ALC1        0.0000 
      5 O          27.9410  104.7510  130.0340 O.2       5 ALL1        0.0000 
      6 O          30.6130  103.5770  130.8800 O.2       3 ALP1        0.0000 
      7 O          27.7925  103.8350  128.8755 O.2       1 ALC1        0.0000 
      8 O          27.6440  102.9190  127.7170 O.2       3 ALP1        0.0000 
      9 O          28.5170  108.1980  133.8250 O.2       1 ALC1        0.0000 
     10 O          28.3560  108.5670  132.5890 O.2       5 ALL1        0.0000 
     11 O          28.6780  107.8290  135.0610 O.2       3 ALP1        0.0000 
     12 O          27.7875  109.0175  133.9470 O.2       1 ALC1        0.0000 
     13 O          27.2190  109.4680  135.3050 O.2       3 ALP1        0.0000 
     14 CA         27.4735  109.2345  128.3245 C.3       2 GLC5        0.0000 
     15 CA         25.7100  109.0690  128.8000 C.3       6 GLL5        0.0000 
     16 CA         29.2370  109.4000  127.8490 C.3       4 GLP5        0.0000 
     17 CA         22.7355  109.6290  130.2340 C.3       2 GLC5        0.0000 
     18 CA         24.2370  109.0790  129.2140 C.3       6 GLL5        0.0000 
     19 CA         21.2340  110.1790  131.2540 C.3       4 GLP5        0.0000 
     20 CA         24.2605  108.9570  131.4110 C.3       2 GLC5        0.0000 
     21 CA         27.0790  100.2370  128.3500 C.3       2 GLC5        0.0000 
     22 CA         25.7480   99.4700  127.7420 C.3       6 GLL5        0.0000 
     23 CA         28.4100  101.0040  128.9580 C.3       4 GLP5        0.0000 
     24 CA         21.3930  103.7640  124.4590 C.3       2 GLC5        0.0000 
     25 CA         22.7180  102.7840  125.6460 C.3       6 GLL5        0.0000 
     26 CA         20.0680  104.7440  123.2720 C.3       4 GLP5        0.0000 
     27 CA         22.1655  104.7800  125.9075 C.3       2 GLC5        0.0000 
     28 CA         21.6130  106.7760  126.1690 C.3       4 GLP5        0.0000 
     29 CA         21.4115   97.4930  124.8965 C.3       2 GLC5        0.0000 
     30 CA         21.3760   98.1120  126.4270 C.3       6 GLL5        0.0000 
     31 CA         21.4470   96.8740  123.3660 C.3       4 GLP5        0.0000 
     32 CA         28.4672  107.1639  128.4836 C.3       2 GLC5        0.0000 
     33 CA         26.7840  106.7440  129.2820 C.3       6 GLL5        0.0000 
     34 CA         30.0560  107.0760  127.2970 C.3       4 GLP5        0.0000 
     35 CA         25.0652  110.7030  130.4120 C.3       2 GLC5        0.0000 
     36 CA         25.1570  112.3320  131.8170 C.3       4 GLP5        0.0000 
     37 CA         24.4982  110.1985  127.6830 C.3       2 GLC5        0.0000 
     38 CA         24.0230  111.3230  126.3590 C.3       4 GLP5        0.0000 
     39 CA         28.1845  106.5148  127.3940 C.3       2 GLC5        0.0000 
     40 CA         26.1200  105.9740  128.1740 C.3       6 GLL5        0.0000 
     41 CA         25.6418  103.3353  124.6393 C.3       2 GLC5        0.0000 
     42 CA         25.7580  105.1480  125.8700 C.3       6 GLL5        0.0000 
     43 CA         26.0940  101.8980  123.2020 C.3       4 GLP5        0.0000 
     44 CA         26.3702  101.0263  127.2823 C.3       2 GLC5        0.0000 
     45 CA         24.2810  101.0340  126.7400 C.3       6 GLL5        0.0000 
     46 CA         28.3310  101.6700  127.5940 C.3       4 GLP5        0.0000 
     47 CA         24.8248  100.5172  125.1488 C.3       2 GLC5        0.0000 
     48 CA         25.2400  100.6520  123.3270 C.3       4 GLP5        0.0000 
     49 CA         21.2125   99.3923  124.7850 C.3       2 GLC5        0.0000 
     50 CA         22.0350  100.3550  126.0600 C.3       6 GLL5        0.0000 
     51 CA         20.2480   99.0810  123.2740 C.3       4 GLP5        0.0000 
     52 CA         23.9309  101.2378  124.6020 C.3       2 GLC5        0.0000 
     53 CA         23.0160  101.3710  126.1560 C.3       6 GLL5        0.0000 
@<TRIPOS>BOND
@<TRIPOS>SUBSTRUCTURE
     1 ALC1        4 GROUP        1 X    ALC  0     ROOT ALC X 1
     2 GLC5        1 GROUP        1 X    GLC  0     **** GLC X 6
     3 ALP1        6 GROUP        1 Y    ALP  0     ROOT ALP Y 8
     4 GLP5        3 GROUP        1 Y    GLP  0     **** GLP Y 13
     5 ALL1        5 GROUP        1 Z    ALL  0     ROOT ALL Z 15
     6 GLL5        2 GROUP        1 Z    GLL  0     **** GLL Z 20
@<TRIPOS>SET

