#    Name: 2g24_7IG_1_ligand
#    Modification time : Tue Mar 25 13:27:40 2014

@<TRIPOS>MOLECULE
2g24_7IG_1_ligand
   45    47     1     0     0
SMALL
NO_CHARGES


@<TRIPOS>ATOM
      1 C1         27.6260  106.0630  130.2130 C.ar      1 7IG334      0.0000 
      2 N1         28.1670  106.6390  131.3250 N.ar      1 7IG334      0.0000 
      3 C2         27.8690  107.9350  131.5210 C.ar      1 7IG334      0.0000 
      4 N2         27.1000  108.6550  130.7040 N.ar      1 7IG334      0.0000 
      5 C3         26.5520  108.1000  129.5930 C.ar      1 7IG334      0.0000 
      6 C4         26.7840  106.7440  129.2820 C.ar      1 7IG334      0.0000 
      7 N3         27.9410  104.7510  130.0340 N.pl3     1 7IG334      0.0000 
      8 N4         28.3560  108.5670  132.5890 N.pl3     1 7IG334      0.0000 
      9 C5         25.7100  109.0690  128.8000 C.3       1 7IG334      0.0000 
     10 C6         24.2370  109.0790  129.2140 C.3       1 7IG334      0.0000 
     11 C7         24.2590  104.4610  127.6560 C.ar      1 7IG334      0.0000 
     12 C8         24.9920  105.2280  128.5600 C.ar      1 7IG334      0.0000 
     13 C9         26.1200  105.9740  128.1740 C.ar      1 7IG334      0.0000 
     14 C10        26.5060  105.9330  126.8080 C.ar      1 7IG334      0.0000 
     15 C11        25.7580  105.1480  125.8700 C.ar      1 7IG334      0.0000 
     16 C12        24.6210  104.3970  126.2830 C.ar      1 7IG334      0.0000 
     17 N5         23.9150  103.6310  125.3640 N.pl3     1 7IG334      0.0000 
     18 C13        24.5380   99.7310  127.2010 C.ar      1 7IG334      0.0000 
     19 C14        24.2810  101.0340  126.7400 C.ar      1 7IG334      0.0000 
     20 C15        23.0160  101.3710  126.1560 C.ar      1 7IG334      0.0000 
     21 C16        22.0350  100.3550  126.0600 C.ar      1 7IG334      0.0000 
     22 C17        22.3190   99.0520  126.5320 C.ar      1 7IG334      0.0000 
     23 C18        23.5680   98.7100  127.1090 C.ar      1 7IG334      0.0000 
     24 F1         25.7480   99.4700  127.7420 F         1 7IG334      0.0000 
     25 C19        22.7180  102.7840  125.6460 C.3       1 7IG334      0.0000 
     26 F2         21.3760   98.1120  126.4270 F         1 7IG334      0.0000 
     27 H          28.5657  104.3528  130.7058 H         1 7IG334      0.0000 
     28 H          27.5200  104.3009  129.2465 H         1 7IG334      0.0000 
     29 H          28.0818  108.2026  133.4789 H         1 7IG334      0.0000 
     30 H          28.9517  109.3486  132.4041 H         1 7IG334      0.0000 
     31 H          25.7725  108.8180  127.7285 H         1 7IG334      0.0000 
     32 H          26.1150  110.0876  128.9163 H         1 7IG334      0.0000 
     33 H          23.4381  103.9265  127.9771 H         1 7IG334      0.0000 
     34 H          24.6978  105.2531  129.5594 H         1 7IG334      0.0000 
     35 H          27.3154  106.4605  126.4878 H         1 7IG334      0.0000 
     36 H          26.0492  105.1300  124.8894 H         1 7IG334      0.0000 
     37 H          24.2265  103.6206  124.3503 H         1 7IG334      0.0000 
     38 H          24.9994  101.7607  126.8170 H         1 7IG334      0.0000 
     39 H          21.1243  100.5626  125.6508 H         1 7IG334      0.0000 
     40 H          23.7512   97.7824  127.4365 H         1 7IG334      0.0000 
     41 H          22.0987  102.6955  124.7259 H         1 7IG334      0.0000 
     42 H          22.0699  103.2917  126.3944 H         1 7IG334      0.0000 
     43 H          24.1230  109.3313  130.1749 H         1 7IG334      0.0000 
     44 H          23.7040  109.7309  128.6746 H         1 7IG334      0.0000 
     45 H          23.8114  108.1821  129.0939 H         1 7IG334      0.0000 
@<TRIPOS>BOND
     1    2    1 ar   
     2    6    1 ar   
     3    7    1 1    
     4    3    2 ar   
     5    4    3 ar   
     6    8    3 1    
     7    5    4 ar   
     8    6    5 ar   
     9    9    5 1    
    10   13    6 1    
    11   27    7 1    
    12   28    7 1    
    13   29    8 1    
    14   30    8 1    
    15   10    9 1    
    16   31    9 1    
    17   32    9 1    
    18   43   10 1    
    19   44   10 1    
    20   45   10 1    
    21   12   11 ar   
    22   16   11 ar   
    23   33   11 1    
    24   13   12 ar   
    25   34   12 1    
    26   14   13 ar   
    27   15   14 ar   
    28   35   14 1    
    29   16   15 ar   
    30   36   15 1    
    31   17   16 1    
    32   25   17 1    
    33   37   17 1    
    34   19   18 ar   
    35   23   18 ar   
    36   24   18 1    
    37   20   19 ar   
    38   38   19 1    
    39   21   20 ar   
    40   25   20 1    
    41   22   21 ar   
    42   39   21 1    
    43   23   22 ar   
    44   26   22 1    
    45   40   23 1    
    46   41   25 1    
    47   42   25 1    
@<TRIPOS>SUBSTRUCTURE
     1 7IG334      1 GROUP   
@<TRIPOS>SET

