#    Name: 3eof_FMN_2_INTS_M
#    Modification time : Tue Mar 25 02:15:40 2014

@<TRIPOS>MOLECULE
3eof_FMN_2_INTS_M
   80     0    12     0     0
SMALL
NO_CHARGES


@<TRIPOS>ATOM
      1 N           9.9605    5.4545   25.3005 N.am      2 SEC2        0.0000 
      2 N          11.3290    4.7190   25.6130 N.am     10 SEL2        0.0000 
      3 N           8.5920    6.1900   24.9880 N.am      6 SEP2        0.0000 
      4 N           8.5020    4.3545   26.5560 N.am      2 SEC2        0.0000 
      5 N           9.7460    4.1500   27.2040 N.am     10 SEL2        0.0000 
      6 N           7.2580    4.5590   25.9080 N.am      6 SEP2        0.0000 
      7 N           9.1690    5.1700   26.0960 N.am      2 SEC2        0.0000 
      8 O          11.4205    2.5985   28.6000 O.2       1 ALC1        0.0000 
      9 O          11.8710    3.5490   27.6480 O.2       9 ALL1        0.0000 
     10 O          10.9700    1.6480   29.5520 O.2       5 ALP1        0.0000 
     11 N          13.3435    1.5245   28.9385 N.am      2 SEC2        0.0000 
     12 N          13.8730    2.5770   27.8610 N.am     10 SEL2        0.0000 
     13 N          12.8140    0.4720   30.0160 N.am      6 SEP2        0.0000 
     14 N          15.1040    2.1640   27.0835 N.am      2 SEC2        0.0000 
     15 N          16.3350    1.7510   26.3060 N.am      6 SEP2        0.0000 
     16 N          15.6655    2.9060   25.9970 N.am      2 SEC2        0.0000 
     17 N          14.9960    4.0610   25.6880 N.am     10 SEL2        0.0000 
     18 CA         20.2800    4.0800   22.9545 C.3       4 GLC5        0.0000 
     19 CA         18.3600    4.3940   22.1960 C.3      12 GLL5        0.0000 
     20 CA         22.2000    3.7660   23.7130 C.3       8 GLP5        0.0000 
     21 CA         17.1300    5.5815   19.1715 C.3       4 GLC5        0.0000 
     22 CA         16.6080    5.9330   20.6070 C.3      12 GLL5        0.0000 
     23 CA         17.6520    5.2300   17.7360 C.3       8 GLP5        0.0000 
     24 CA         15.7275    3.9690   20.3190 C.3       4 GLC5        0.0000 
     25 CA         14.8470    2.0050   20.0310 C.3       8 GLP5        0.0000 
     26 CA         10.6820    5.6265   21.6905 C.3       4 GLC5        0.0000 
     27 CA         12.0350    5.9440   23.2060 C.3      12 GLL5        0.0000 
     28 CA          9.3290    5.3090   20.1750 C.3       8 GLP5        0.0000 
     29 CA         10.3100    6.7345   21.2850 C.3       4 GLC5        0.0000 
     30 CA         11.2910    8.1600   22.3950 C.3      12 GLL5        0.0000 
     31 N          13.1360    8.4265   20.4820 N.am      2 SEC2        0.0000 
     32 N          11.8100    7.9380   21.0970 N.am     10 SEL2        0.0000 
     33 N          14.4620    8.9150   19.8670 N.am      6 SEP2        0.0000 
     34 CA          9.3865   11.6695   21.1995 C.3       4 GLC5        0.0000 
     35 CA         10.6070   10.3800   21.4350 C.3      12 GLL5        0.0000 
     36 CA          8.1660   12.9590   20.9640 C.3       8 GLP5        0.0000 
     37 NZ         10.1945   10.9045   18.2985 N.4       3 LYC4        0.0000 
     38 NZ          9.0130   10.4160   18.7060 N.4      11 LYL4        0.0000 
     39 NZ         11.3250   12.6870   18.1010 N.4       7 LYP4        0.0000 
     40 N           9.8015   11.7805   18.9045 N.am      2 SEC2        0.0000 
     41 N           9.0130   10.4160   18.7060 N.am     10 SEL2        0.0000 
     42 N          10.5900   13.1450   19.1030 N.am      6 SEP2        0.0000 
     43 N          10.1945   10.9045   18.2985 N.am      2 SEC2        0.0000 
     44 N          11.3760   11.3930   17.8910 N.am      6 SEP2        0.0000 
     45 N           6.9825    7.6140   19.4180 N.am      2 SEC2        0.0000 
     46 N           7.4260    8.8990   19.7840 N.am     10 SEL2        0.0000 
     47 N           6.5390    6.3290   19.0520 N.am      6 SEP2        0.0000 
     48 N           7.6110    7.7465   20.6330 N.am      2 SEC2        0.0000 
     49 N           7.7960    6.5940   21.4820 N.am      6 SEP2        0.0000 
     50 NZ          9.7780    7.8195   17.9410 N.4       3 LYC4        0.0000 
     51 NZ          9.7700    8.0950   19.3030 N.4      11 LYL4        0.0000 
     52 NZ          9.5370    6.3850   16.0370 N.4       7 LYP4        0.0000 
     53 N           9.7780    7.8195   17.9410 N.am      2 SEC2        0.0000 
     54 N           9.7700    8.0950   19.3030 N.am     10 SEL2        0.0000 
     55 N           9.7860    7.5440   16.5790 N.am      6 SEP2        0.0000 
     56 CA         15.2777    3.3455   22.8837 C.3       4 GLC5        0.0000 
     57 CA         15.4010    4.6120   24.4610 C.3      12 GLL5        0.0000 
     58 CA         14.4790    2.0960   21.4950 C.3       8 GLP5        0.0000 
     59 CA         16.8803    3.4315   25.4198 C.3       4 GLC5        0.0000 
     60 CA         17.6840    2.2680   26.5670 C.3       8 GLP5        0.0000 
     61 CA         17.4030    6.8388   24.1112 C.3       4 GLC5        0.0000 
     62 CA         16.7520    4.5780   24.0840 C.3      12 GLL5        0.0000 
     63 CA         17.8310    8.8380   24.7480 C.3       8 GLP5        0.0000 
     64 CA         15.6010    3.7508   21.9722 C.3       4 GLC5        0.0000 
     65 CA         17.1980    5.1010   22.8650 C.3      12 GLL5        0.0000 
     66 CA         14.5367    5.9584   20.2814 C.3       4 GLC5        0.0000 
     67 CA         16.2480    5.7100   22.0340 C.3      12 GLL5        0.0000 
     68 CA         13.4080    6.1210   18.7040 C.3       8 GLP5        0.0000 
     69 CA         15.6072    7.7149   21.1904 C.3       4 GLC5        0.0000 
     70 CA         15.5490    9.6340   20.5220 C.3       8 GLP5        0.0000 
     71 CA         14.5757    3.7955   22.2505 C.3       4 GLC5        0.0000 
     72 CA         14.9030    5.7700   22.3970 C.3      12 GLL5        0.0000 
     73 CA         15.7269    7.2910   23.5571 C.3       4 GLC5        0.0000 
     74 CA         14.4420    5.2200   23.6150 C.3      12 GLL5        0.0000 
     75 CA         16.4450    9.1020   24.1990 C.3       8 GLP5        0.0000 
     76 CA         12.5422   10.8815   21.0827 C.3       4 GLC5        0.0000 
     77 CA         11.1380    9.6580   22.6540 C.3      12 GLL5        0.0000 
     78 CA         14.2120   11.7440   20.1210 C.3       8 GLP5        0.0000 
     79 CA         11.9693   11.5255   22.6452 C.3       4 GLC5        0.0000 
     80 CA         13.0660   13.0320   23.2460 C.3       8 GLP5        0.0000 
@<TRIPOS>BOND
@<TRIPOS>SUBSTRUCTURE
     1 ALC1        8 GROUP        1 X    ALC  0     ROOT ALC X 1
     2 SEC2        1 GROUP        1 X    SEC  0     **** SEC X 2
     3 LYC4       37 GROUP        1 X    LYC  0     **** LYC X 4
     4 GLC5       18 GROUP        1 X    GLC  0     **** GLC X 6
     5 ALP1       10 GROUP        1 Y    ALP  0     ROOT ALP Y 8
     6 SEP2        3 GROUP        1 Y    SEP  0     **** SEP Y 9
     7 LYP4       39 GROUP        1 Y    LYP  0     **** LYP Y 11
     8 GLP5       20 GROUP        1 Y    GLP  0     **** GLP Y 13
     9 ALL1        9 GROUP        1 Z    ALL  0     ROOT ALL Z 15
    10 SEL2        2 GROUP        1 Z    SEL  0     **** SEL Z 16
    11 LYL4       38 GROUP        1 Z    LYL  0     **** LYL Z 18
    12 GLL5       19 GROUP        1 Z    GLL  0     **** GLL Z 20
@<TRIPOS>SET

