#    Name: 3eof_FMN_2_ligand
#    Modification time : Tue Mar 25 02:15:40 2014

@<TRIPOS>MOLECULE
3eof_FMN_2_ligand
   50    52     1     0     0
SMALL
NO_CHARGES


@<TRIPOS>ATOM
      1 N1         11.3290    4.7190   25.6130 N.2       1 FMN300      0.0000 
      2 C2         10.9280    4.1320   26.8160 C.2       1 FMN300      0.0000 
      3 O2          9.7460    4.1500   27.2040 O.2       1 FMN300      0.0000 
      4 N3         11.8710    3.5490   27.6480 N.am      1 FMN300      0.0000 
      5 C4         13.2230    3.4880   27.3080 C.2       1 FMN300      0.0000 
      6 O4         13.8730    2.5770   27.8610 O.2       1 FMN300      0.0000 
      7 C4A        13.6470    4.0780   26.0870 C.2       1 FMN300      0.0000 
      8 N5         14.9960    4.0610   25.6880 N.2       1 FMN300      0.0000 
      9 C5A        15.4010    4.6120   24.4610 C.ar      1 FMN300      0.0000 
     10 C6         16.7520    4.5780   24.0840 C.ar      1 FMN300      0.0000 
     11 C7         17.1980    5.1010   22.8650 C.ar      1 FMN300      0.0000 
     12 C7M        18.3600    4.3940   22.1960 C.3       1 FMN300      0.0000 
     13 C8         16.2480    5.7100   22.0340 C.ar      1 FMN300      0.0000 
     14 C8M        16.6080    5.9330   20.6070 C.3       1 FMN300      0.0000 
     15 C9         14.9030    5.7700   22.3970 C.ar      1 FMN300      0.0000 
     16 C9A        14.4420    5.2200   23.6150 C.ar      1 FMN300      0.0000 
     17 N10        13.0810    5.2390   24.0120 N.pl3     1 FMN300      0.0000 
     18 C10        12.6830    4.6920   25.2380 C.2       1 FMN300      0.0000 
     19 C1'        12.0350    5.9440   23.2060 C.3       1 FMN300      0.0000 
     20 C2'        12.1900    7.4460   23.4140 C.3       1 FMN300      0.0000 
     21 O2'        11.9090    7.7940   24.7600 O.3       1 FMN300      0.0000 
     22 C3'        11.2910    8.1600   22.3950 C.3       1 FMN300      0.0000 
     23 O3'        11.8100    7.9380   21.0970 O.3       1 FMN300      0.0000 
     24 C4'        11.1380    9.6580   22.6540 C.3       1 FMN300      0.0000 
     25 O4'        10.2010    9.8750   23.6970 O.3       1 FMN300      0.0000 
     26 C5'        10.6070   10.3800   21.4350 C.3       1 FMN300      0.0000 
     27 O5'         9.3600    9.7930   21.1590 O.3       1 FMN300      0.0000 
     28 P           8.8900    9.2780   19.6870 P.3       1 FMN300      0.0000 
     29 O1P         9.0130   10.4160   18.7060 O.co2     1 FMN300      0.0000 
     30 O2P         7.4260    8.8990   19.7840 O.co2     1 FMN300      0.0000 
     31 O3P         9.7700    8.0950   19.3030 O.co2     1 FMN300      0.0000 
     32 H          11.5643    3.1419   28.5579 H         1 FMN300      0.0000 
     33 H          17.4431    4.1500   24.7324 H         1 FMN300      0.0000 
     34 H          14.2209    6.2253   21.7668 H         1 FMN300      0.0000 
     35 H          11.0465    5.6419   23.5309 H         1 FMN300      0.0000 
     36 H          12.1589    5.7179   22.1537 H         1 FMN300      0.0000 
     37 H          13.2272    7.6902   23.1486 H         1 FMN300      0.0000 
     38 H          10.2915    7.7059   22.4760 H         1 FMN300      0.0000 
     39 H          12.0981   10.0684   22.9034 H         1 FMN300      0.0000 
     40 H          11.3175   10.2453   20.6271 H         1 FMN300      0.0000 
     41 H          10.5258   11.4340   21.6760 H         1 FMN300      0.0000 
     42 H          19.1765    4.3933   22.7734 H         1 FMN300      0.0000 
     43 H          18.1453    3.4391   21.9908 H         1 FMN300      0.0000 
     44 H          18.6123    4.8299   21.3321 H         1 FMN300      0.0000 
     45 H          17.4146    6.5168   20.5143 H         1 FMN300      0.0000 
     46 H          16.8121    5.0743   20.1369 H         1 FMN300      0.0000 
     47 H          15.8668    6.3748   20.1016 H         1 FMN300      0.0000 
     48 H          11.1942    8.4911   24.7032 H         1 FMN300      0.0000 
     49 H          11.0219    8.0163   20.4864 H         1 FMN300      0.0000 
     50 H           9.3070    9.7128   23.2794 H         1 FMN300      0.0000 
@<TRIPOS>BOND
     1    2    1 1    
     2   18    1 2    
     3    3    2 2    
     4    4    2 am   
     5    5    4 am   
     6   32    4 1    
     7    6    5 2    
     8    7    5 1    
     9    8    7 2    
    10   18    7 1    
    11    9    8 1    
    12   10    9 ar   
    13   16    9 ar   
    14   11   10 ar   
    15   33   10 1    
    16   12   11 1    
    17   13   11 ar   
    18   42   12 1    
    19   43   12 1    
    20   44   12 1    
    21   14   13 1    
    22   15   13 ar   
    23   45   14 1    
    24   46   14 1    
    25   47   14 1    
    26   16   15 ar   
    27   34   15 1    
    28   17   16 1    
    29   18   17 1    
    30   19   17 1    
    31   20   19 1    
    32   35   19 1    
    33   36   19 1    
    34   21   20 1    
    35   22   20 1    
    36   37   20 1    
    37   48   21 1    
    38   23   22 1    
    39   24   22 1    
    40   38   22 1    
    41   49   23 1    
    42   25   24 1    
    43   26   24 1    
    44   39   24 1    
    45   50   25 1    
    46   27   26 1    
    47   40   26 1    
    48   41   26 1    
    49   28   27 1    
    50   29   28 ar   
    51   30   28 ar   
    52   31   28 ar   
@<TRIPOS>SUBSTRUCTURE
     1 FMN300      1 GROUP   
@<TRIPOS>SET

