#    Name: 3ai0_PNW_1_INTS_M
#    Modification time : Mon Apr  7 19:03:01 2014

@<TRIPOS>MOLECULE
3ai0_PNW_1_INTS_M
   58     0     9     0     0
SMALL
NO_CHARGES


@<TRIPOS>ATOM
      1 CA        -25.2920   82.4860   15.7695 C.3       3 GLC5        0.0000 
      2 CA        -26.9270   82.1020   14.6230 C.3       9 GLL5        0.0000 
      3 CA        -23.6570   82.8700   16.9160 C.3       6 GLP5        0.0000 
      4 N         -30.2590   83.5125   16.1985 N.am      2 SEC2        0.0000 
      5 N         -28.6500   83.5370   15.5540 N.am      8 SEL2        0.0000 
      6 N         -31.8680   83.4880   16.8430 N.am      5 SEP2        0.0000 
      7 N         -29.6715   84.9025   15.8040 N.am      2 SEC2        0.0000 
      8 N         -30.6930   86.2680   16.0540 N.am      5 SEP2        0.0000 
      9 O         -27.7285   83.9665   16.4520 O.2       1 ALC1        0.0000 
     10 O         -28.6500   83.5370   15.5540 O.2       7 ALL1        0.0000 
     11 O         -26.8070   84.3960   17.3500 O.2       4 ALP1        0.0000 
     12 CA        -28.8465   81.1310   18.1860 C.3       3 GLC5        0.0000 
     13 CA        -28.5660   81.2980   16.4150 C.3       9 GLL5        0.0000 
     14 CA        -29.1270   80.9640   19.9570 C.3       6 GLP5        0.0000 
     15 N         -30.9285   82.3455   16.7100 N.am      2 SEC2        0.0000 
     16 N         -29.9890   81.2030   16.5770 N.am      8 SEL2        0.0000 
     17 N         -30.7315   80.2670   15.7395 N.am      2 SEC2        0.0000 
     18 N         -31.4740   79.3310   14.9020 N.am      5 SEP2        0.0000 
     19 O         -30.7775   80.5635   17.4260 O.2       1 ALC1        0.0000 
     20 O         -29.9890   81.2030   16.5770 O.2       7 ALL1        0.0000 
     21 O         -31.5660   79.9240   18.2750 O.2       4 ALP1        0.0000 
     22 CA        -27.8535   80.4700   18.0915 C.3       3 GLC5        0.0000 
     23 CA        -27.9700   79.9200   16.1170 C.3       9 GLL5        0.0000 
     24 CA        -27.7370   81.0200   20.0660 C.3       6 GLP5        0.0000 
     25 N         -29.5195   78.4710   17.5570 N.am      2 SEC2        0.0000 
     26 N         -28.1120   79.1300   17.3030 N.am      8 SEL2        0.0000 
     27 N         -30.9270   77.8120   17.8110 N.am      5 SEP2        0.0000 
     28 N         -27.4445   79.6455   18.4485 N.am      2 SEC2        0.0000 
     29 N         -26.7770   80.1610   19.5940 N.am      5 SEP2        0.0000 
     30 O         -28.0350   77.8455   16.9330 O.2       1 ALC1        0.0000 
     31 O         -28.1120   79.1300   17.3030 O.2       7 ALL1        0.0000 
     32 O         -27.9580   76.5610   16.5630 O.2       4 ALP1        0.0000 
     33 CA        -25.0740   81.4870   16.3385 C.3       3 GLC5        0.0000 
     34 CA        -26.4910   80.1040   15.7610 C.3       9 GLL5        0.0000 
     35 CA        -26.0130   80.3695   17.8610 C.3       3 GLC5        0.0000 
     36 CA        -25.5350   80.6350   19.9610 C.3       6 GLP5        0.0000 
     37 CA        -24.2575   78.8015   14.1080 C.3       3 GLC5        0.0000 
     38 CA        -25.7240   78.7940   15.5730 C.3       9 GLL5        0.0000 
     39 CA        -22.7910   78.8090   12.6430 C.3       6 GLP5        0.0000 
     40 CA        -24.3260   77.8795   15.8625 C.3       3 GLC5        0.0000 
     41 CA        -22.9280   76.9650   16.1520 C.3       6 GLP5        0.0000 
     42 O         -27.1610   77.2205   15.6190 O.2       1 ALC1        0.0000 
     43 O         -26.3640   77.8800   14.6750 O.2       7 ALL1        0.0000 
     44 N         -21.2900   84.8870    9.0480 N.am      2 SEC2        0.0000 
     45 N         -22.7830   84.3370    9.1030 N.am      8 SEL2        0.0000 
     46 N         -19.7970   85.4370    8.9930 N.am      5 SEP2        0.0000 
     47 CA        -27.7035   84.1180   10.2070 C.3       3 GLC5        0.0000 
     48 CA        -26.0820   83.4110   11.3060 C.3       9 GLL5        0.0000 
     49 CA        -29.3250   84.8250    9.1080 C.3       6 GLP5        0.0000 
     50 N         -20.6325   84.4615    9.7605 N.am      2 SEC2        0.0000 
     51 N         -21.4680   83.4860   10.5280 N.am      8 SEL2        0.0000 
     52 CA        -21.7640   83.0550   13.4455 C.3       3 GLC5        0.0000 
     53 CA        -23.5170   82.8930   12.2560 C.3       9 GLL5        0.0000 
     54 CA        -20.0110   83.2170   14.6350 C.3       6 GLP5        0.0000 
     55 CA        -29.1258   82.2550   13.5975 C.3       3 GLC5        0.0000 
     56 CA        -30.6180   82.3660   12.2860 C.3       6 GLP5        0.0000 
     57 CA        -29.6230   79.4870   15.1585 C.3       3 GLC5        0.0000 
     58 CA        -30.9780   78.3650   14.0510 C.3       6 GLP5        0.0000 
@<TRIPOS>BOND
@<TRIPOS>SUBSTRUCTURE
     1 ALC1        9 GROUP        1 X    ALC  0     ROOT ALC X 1
     2 SEC2        4 GROUP        1 X    SEC  0     **** SEC X 2
     3 GLC5        1 GROUP        1 X    GLC  0     **** GLC X 6
     4 ALP1       11 GROUP        1 Y    ALP  0     ROOT ALP Y 8
     5 SEP2        6 GROUP        1 Y    SEP  0     **** SEP Y 9
     6 GLP5        3 GROUP        1 Y    GLP  0     **** GLP Y 13
     7 ALL1       10 GROUP        1 Z    ALL  0     ROOT ALL Z 15
     8 SEL2        5 GROUP        1 Z    SEL  0     **** SEL Z 16
     9 GLL5        2 GROUP        1 Z    GLL  0     **** GLL Z 20
@<TRIPOS>SET

