#    Name: 3ai0_PNW_1_ligand
#    Modification time : Mon Apr  7 19:03:01 2014

@<TRIPOS>MOLECULE
3ai0_PNW_1_ligand
   36    37     1     0     0
SMALL
NO_CHARGES


@<TRIPOS>ATOM
      1 C1        -26.9270   82.1020   14.6230 C.3       1 PNW2001     0.0000 
      2 N1        -22.6000   83.7640   10.1690 N.pl3     1 PNW2001     0.0000 
      3 O1        -27.0280   82.5870   13.2920 O.3       1 PNW2001     0.0000 
      4 C2        -28.3400   82.1860   15.1950 C.3       1 PNW2001     0.0000 
      5 O2        -28.6500   83.5370   15.5540 O.3       1 PNW2001     0.0000 
      6 C3        -28.5660   81.2980   16.4150 C.3       1 PNW2001     0.0000 
      7 O3        -29.9890   81.2030   16.5770 O.3       1 PNW2001     0.0000 
      8 C4        -27.9700   79.9200   16.1170 C.3       1 PNW2001     0.0000 
      9 O4        -28.1120   79.1300   17.3030 O.3       1 PNW2001     0.0000 
     10 C5        -26.4910   80.1040   15.7610 C.3       1 PNW2001     0.0000 
     11 O5        -26.4950   80.7420   14.4830 O.3       1 PNW2001     0.0000 
     12 C6        -25.7240   78.7940   15.5730 C.3       1 PNW2001     0.0000 
     13 O6        -26.3640   77.8800   14.6750 O.3       1 PNW2001     0.0000 
     14 C7        -25.8970   82.8360   12.5610 C.ar      1 PNW2001     0.0000 
     15 O7        -22.7830   84.3370    9.1030 O.2       1 PNW2001     0.0000 
     16 C8        -26.0820   83.4110   11.3060 C.ar      1 PNW2001     0.0000 
     17 O8        -21.4680   83.4860   10.5280 O.2       1 PNW2001     0.0000 
     18 C9        -24.9840   83.7550   10.5240 C.ar      1 PNW2001     0.0000 
     19 C10       -23.7010   83.4430   10.9830 C.ar      1 PNW2001     0.0000 
     20 C11       -23.5170   82.8930   12.2560 C.ar      1 PNW2001     0.0000 
     21 C12       -24.6160   82.5640   13.0520 C.ar      1 PNW2001     0.0000 
     22 H         -26.2753   82.6809   15.1972 H         1 PNW2001     0.0000 
     23 H         -29.0376   81.8513   14.4138 H         1 PNW2001     0.0000 
     24 H         -28.0887   81.7267   17.2455 H         1 PNW2001     0.0000 
     25 H         -28.4824   79.5038   15.2881 H         1 PNW2001     0.0000 
     26 H         -26.0179   80.7055   16.4843 H         1 PNW2001     0.0000 
     27 H         -25.5889   78.3414   16.5791 H         1 PNW2001     0.0000 
     28 H         -24.7026   79.0552   15.2209 H         1 PNW2001     0.0000 
     29 H         -27.0351   83.5818   10.9563 H         1 PNW2001     0.0000 
     30 H         -25.1100   84.2276    9.6291 H         1 PNW2001     0.0000 
     31 H         -22.5632   82.7299   12.6078 H         1 PNW2001     0.0000 
     32 H         -24.4895   82.1382   13.9640 H         1 PNW2001     0.0000 
     33 H         -27.9673   83.7852   16.2412 H         1 PNW2001     0.0000 
     34 H         -30.1209   80.5669   17.3372 H         1 PNW2001     0.0000 
     35 H         -28.0417   78.1821   16.9924 H         1 PNW2001     0.0000 
     36 H         -27.0083   77.3678   15.2429 H         1 PNW2001     0.0000 
@<TRIPOS>BOND
     1    3    1 1    
     2    4    1 1    
     3   11    1 1    
     4   22    1 1    
     5   15    2 2    
     6   17    2 2    
     7   19    2 1    
     8   14    3 1    
     9    5    4 1    
    10    6    4 1    
    11   23    4 1    
    12   33    5 1    
    13    7    6 1    
    14    8    6 1    
    15   24    6 1    
    16   34    7 1    
    17    9    8 1    
    18   10    8 1    
    19   25    8 1    
    20   35    9 1    
    21   11   10 1    
    22   12   10 1    
    23   26   10 1    
    24   13   12 1    
    25   27   12 1    
    26   28   12 1    
    27   36   13 1    
    28   16   14 ar   
    29   21   14 ar   
    30   18   16 ar   
    31   29   16 1    
    32   19   18 ar   
    33   30   18 1    
    34   20   19 ar   
    35   21   20 ar   
    36   31   20 1    
    37   32   21 1    
@<TRIPOS>SUBSTRUCTURE
     1 PNW2001     1 GROUP   
@<TRIPOS>SET

