#    Name: 4fv0_EK3_1_INTS_M
#    Modification time : Mon Mar 24 20:49:14 2014

@<TRIPOS>MOLECULE
4fv0_EK3_1_INTS_M
   43     0     6     0     0
SMALL
NO_CHARGES


@<TRIPOS>ATOM
      1 CA         19.0910    9.5390   17.2660 C.3       2 GLC5        0.0000 
      2 CA         19.2430    9.7800   15.2920 C.3       6 GLL5        0.0000 
      3 CA         18.9390    9.2980   19.2400 C.3       4 GLP5        0.0000 
      4 CA         18.7155    7.4575   18.1555 C.3       2 GLC5        0.0000 
      5 CA         18.4920    5.6170   17.0710 C.3       6 GLL5        0.0000 
      6 CA         24.1395    2.9410   15.8065 C.3       2 GLC5        0.0000 
      7 CA         22.0870    3.6560   15.5020 C.3       6 GLL5        0.0000 
      8 CA         26.1920    2.2260   16.1110 C.3       4 GLP5        0.0000 
      9 CA         22.5965    2.3370   14.0950 C.3       2 GLC5        0.0000 
     10 CA         23.1060    1.0180   12.6880 C.3       4 GLP5        0.0000 
     11 N          24.1750    3.4910   14.3820 N.am      1 SEC2        0.0000 
     12 N          23.0380    4.3700   14.8810 N.am      5 SEL2        0.0000 
     13 N          25.3120    2.6120   13.8830 N.am      3 SEP2        0.0000 
     14 CA         24.7490    5.5430   15.5295 C.3       2 GLC5        0.0000 
     15 CA         22.7970    5.6820   14.6790 C.3       6 GLL5        0.0000 
     16 CA         26.7010    5.4040   16.3800 C.3       4 GLP5        0.0000 
     17 CA         23.2790    3.9640   13.3475 C.3       2 GLC5        0.0000 
     18 CA         23.7610    2.2460   12.0160 C.3       4 GLP5        0.0000 
     19 CA         20.6842   11.4185   10.9447 C.3       2 GLC5        0.0000 
     20 CA         19.6570   10.5600   13.1030 C.3       6 GLL5        0.0000 
     21 CA         21.5490   11.7670    9.2060 C.3       4 GLP5        0.0000 
     22 CA         21.1677   10.4444   15.2260 C.3       2 GLC5        0.0000 
     23 CA         22.9100   10.6530   15.9200 C.3       4 GLP5        0.0000 
     24 CA         17.4803    5.0452   15.2587 C.3       2 GLC5        0.0000 
     25 CA         19.3570    6.1620   16.1440 C.3       6 GLL5        0.0000 
     26 CA         16.0360    4.2010   13.9100 C.3       4 GLP5        0.0000 
     27 CA         20.3272    2.9580   14.4035 C.3       2 GLC5        0.0000 
     28 CA         20.8940    4.1920   15.9480 C.3       6 GLL5        0.0000 
     29 CA         19.1640    1.9920   13.0820 C.3       4 GLP5        0.0000 
     30 CA         22.4635    4.2539   17.1107 C.3       2 GLC5        0.0000 
     31 CA         23.4990    4.2460   18.5510 C.3       4 GLP5        0.0000 
     32 CA         22.8520    5.1197   16.7160 C.3       2 GLC5        0.0000 
     33 CA         21.0549    7.3369   17.1490 C.3       2 GLC5        0.0000 
     34 CA         21.6130    6.3050   15.0830 C.3       6 GLL5        0.0000 
     35 CA         21.3030    8.5950   18.7880 C.3       4 GLP5        0.0000 
     36 CA         22.4757    9.7485    9.6387 C.3       2 GLC5        0.0000 
     37 CA         22.6430    8.5450   11.3310 C.3       6 GLL5        0.0000 
     38 CA         21.6360   10.6710    8.1650 C.3       4 GLP5        0.0000 
     39 CA         23.6390    7.3696    9.8083 C.3       2 GLC5        0.0000 
     40 CA         23.9880    9.1070   10.8940 C.3       6 GLL5        0.0000 
     41 CA         23.9250    6.2460    8.3190 C.3       4 GLP5        0.0000 
     42 CA         23.7933    9.8283   14.3110 C.3       2 GLC5        0.0000 
     43 CA         24.8880    9.3980   12.0850 C.3       6 GLL5        0.0000 
@<TRIPOS>BOND
@<TRIPOS>SUBSTRUCTURE
     1 SEC2       11 GROUP        1 X    SEC  0     ROOT SEC X 2
     2 GLC5        1 GROUP        1 X    GLC  0     **** GLC X 6
     3 SEP2       13 GROUP        1 Y    SEP  0     ROOT SEP Y 9
     4 GLP5        3 GROUP        1 Y    GLP  0     **** GLP Y 13
     5 SEL2       12 GROUP        1 Z    SEL  0     ROOT SEL Z 16
     6 GLL5        2 GROUP        1 Z    GLL  0     **** GLL Z 20
@<TRIPOS>SET

