#    Name: 4fv0_EK3_1_ligand
#    Modification time : Mon Mar 24 20:49:14 2014

@<TRIPOS>MOLECULE
4fv0_EK3_1_ligand
   46    49     1     0     0
SMALL
NO_CHARGES


@<TRIPOS>ATOM
      1 F          19.9820   11.5800   12.2640 F         1 EK3401      0.0000 
      2 C1         19.6570   10.5600   13.1030 C.ar      1 EK3401      0.0000 
      3 C6         19.4580    9.3160   12.5710 C.ar      1 EK3401      0.0000 
      4 C5         19.1490    8.2760   13.4310 C.ar      1 EK3401      0.0000 
      5 C4         19.0310    8.4950   14.8000 C.ar      1 EK3401      0.0000 
      6 C3         19.2430    9.7800   15.2920 C.ar      1 EK3401      0.0000 
      7 C2         19.5590   10.8230   14.4410 C.ar      1 EK3401      0.0000 
      8 C7         18.6530    7.3960   15.7140 C.2       1 EK3401      0.0000 
      9 C9         19.3570    6.1620   16.1440 C.2       1 EK3401      0.0000 
     10 C8         18.4920    5.6170   17.0710 C.2       1 EK3401      0.0000 
     11 N2         17.4160    6.3980   17.1630 N.pl3     1 EK3401      0.0000 
     12 N1         17.4820    7.4790   16.3540 N.2       1 EK3401      0.0000 
     13 C10        20.6440    5.5430   15.7300 C.ar      1 EK3401      0.0000 
     14 C14        20.8940    4.1920   15.9480 C.ar      1 EK3401      0.0000 
     15 C13        22.0870    3.6560   15.5020 C.ar      1 EK3401      0.0000 
     16 N3         23.0380    4.3700   14.8810 N.ar      1 EK3401      0.0000 
     17 C12        22.7970    5.6820   14.6790 C.ar      1 EK3401      0.0000 
     18 C11        21.6130    6.3050   15.0830 C.ar      1 EK3401      0.0000 
     19 N4         23.8700    6.3930   14.1780 N.pl3     1 EK3401      0.0000 
     20 C15        24.0400    7.2000   12.9560 C.3       1 EK3401      0.0000 
     21 C20        22.7930    7.2140   12.0710 C.3       1 EK3401      0.0000 
     22 C19        22.6430    8.5450   11.3310 C.3       1 EK3401      0.0000 
     23 C18        23.9880    9.1070   10.8940 C.3       1 EK3401      0.0000 
     24 C17        24.8880    9.3980   12.0850 C.3       1 EK3401      0.0000 
     25 C16        24.4650    8.6090   13.3190 C.3       1 EK3401      0.0000 
     26 H          19.5336    9.1503   11.5659 H         1 EK3401      0.0000 
     27 H          19.0035    7.3234   13.0542 H         1 EK3401      0.0000 
     28 H          19.1620    9.9528   16.3099 H         1 EK3401      0.0000 
     29 H          19.7138   11.7631   14.8097 H         1 EK3401      0.0000 
     30 H          18.6634    4.8019   17.5587 H         1 EK3401      0.0000 
     31 H          16.6403    6.2136   17.7612 H         1 EK3401      0.0000 
     32 H          20.2060    3.6108   16.4291 H         1 EK3401      0.0000 
     33 H          22.2445    2.6172   15.6683 H         1 EK3401      0.0000 
     34 H          21.4645    7.2962   14.9066 H         1 EK3401      0.0000 
     35 H          24.7929    6.3714   14.7890 H         1 EK3401      0.0000 
     36 H          24.8610    6.7628   12.3566 H         1 EK3401      0.0000 
     37 H          21.9106    7.0480   12.6917 H         1 EK3401      0.0000 
     38 H          22.8614    6.4046   11.3418 H         1 EK3401      0.0000 
     39 H          22.1466    9.2642   11.9889 H         1 EK3401      0.0000 
     40 H          22.0106    8.3940   10.4513 H         1 EK3401      0.0000 
     41 H          23.8263   10.0301   10.3303 H         1 EK3401      0.0000 
     42 H          24.4824    8.3867   10.2361 H         1 EK3401      0.0000 
     43 H          24.8509   10.4672   12.3130 H         1 EK3401      0.0000 
     44 H          25.9196    9.1388   11.8300 H         1 EK3401      0.0000 
     45 H          25.3019    8.5671   14.0206 H         1 EK3401      0.0000 
     46 H          23.6340    9.1255   13.8059 H         1 EK3401      0.0000 
@<TRIPOS>BOND
     1    2    1 1    
     2    3    2 ar   
     3    7    2 ar   
     4    4    3 ar   
     5   26    3 1    
     6    5    4 ar   
     7   27    4 1    
     8    6    5 ar   
     9    8    5 1    
    10    7    6 ar   
    11   28    6 1    
    12   29    7 1    
    13    9    8 1    
    14   12    8 2    
    15   10    9 2    
    16   13    9 1    
    17   11   10 1    
    18   30   10 1    
    19   12   11 1    
    20   31   11 1    
    21   14   13 ar   
    22   18   13 ar   
    23   15   14 ar   
    24   32   14 1    
    25   16   15 ar   
    26   33   15 1    
    27   17   16 ar   
    28   18   17 ar   
    29   19   17 1    
    30   34   18 1    
    31   20   19 1    
    32   35   19 1    
    33   21   20 1    
    34   25   20 1    
    35   36   20 1    
    36   22   21 1    
    37   37   21 1    
    38   38   21 1    
    39   23   22 1    
    40   39   22 1    
    41   40   22 1    
    42   24   23 1    
    43   41   23 1    
    44   42   23 1    
    45   25   24 1    
    46   43   24 1    
    47   44   24 1    
    48   45   25 1    
    49   46   25 1    
@<TRIPOS>SUBSTRUCTURE
     1 EK3401      1 GROUP   
@<TRIPOS>SET

