#    Name: 3f4b_TCL_2_INTS_M
#    Modification time : Tue Mar 25 03:09:45 2014

@<TRIPOS>MOLECULE
3f4b_TCL_2_INTS_M
   56     0     9     0     0
SMALL
NO_CHARGES


@<TRIPOS>ATOM
      1 CA         -3.5290   -4.0670   28.4915 C.3       3 GLC5        0.0000 
      2 CA         -5.1050   -3.1400   29.3420 C.3       9 GLL5        0.0000 
      3 CA         -1.9530   -4.9940   27.6410 C.3       6 GLP5        0.0000 
      4 CA         -2.7975    3.6100   34.2160 C.3       3 GLC5        0.0000 
      5 CA         -4.2050    2.3110   33.3870 C.3       9 GLL5        0.0000 
      6 CA         -1.3900    4.9090   35.0450 C.3       6 GLP5        0.0000 
      7 CA         -4.7745    3.6200   29.4600 C.3       3 GLC5        0.0000 
      8 CA         -4.8630    2.2400   31.0650 C.3       9 GLL5        0.0000 
      9 CA         -4.6860    5.0000   27.8550 C.3       6 GLP5        0.0000 
     10 CA         -3.0955    2.8690   30.0055 C.3       3 GLC5        0.0000 
     11 CA         -1.3280    3.4980   28.9460 C.3       6 GLP5        0.0000 
     12 CA         -6.8300    2.2885   30.0255 C.3       3 GLC5        0.0000 
     13 CA         -8.7970    2.3370   28.9860 C.3       6 GLP5        0.0000 
     14 CA         -6.2245   -4.6225   26.3850 C.3       3 GLC5        0.0000 
     15 CA         -7.1740   -4.1980   27.8400 C.3       9 GLL5        0.0000 
     16 CA         -5.2750   -5.0470   24.9300 C.3       6 GLP5        0.0000 
     17 CA         -8.2030   -5.9690   28.2970 C.3       3 GLC5        0.0000 
     18 CA         -9.2320   -7.7400   28.7540 C.3       6 GLP5        0.0000 
     19 CA         -7.9205   -2.7555   26.7465 C.3       3 GLC5        0.0000 
     20 CA         -8.6670   -1.3130   25.6530 C.3       6 GLP5        0.0000 
     21 CA         -6.2325   -5.2865   29.3720 C.3       3 GLC5        0.0000 
     22 CA         -5.2910   -6.3750   30.9040 C.3       6 GLP5        0.0000 
     23 CA         -2.8115    4.8185   33.5455 C.3       3 GLC5        0.0000 
     24 CA         -4.2330    4.7280   32.0460 C.3       9 GLL5        0.0000 
     25 CA         -2.6770    6.1385   32.1835 C.3       3 GLC5        0.0000 
     26 CA         -1.1210    7.5490   32.3210 C.3       6 GLP5        0.0000 
     27 CA         -5.0685    5.6995   30.6685 C.3       3 GLC5        0.0000 
     28 CA         -5.9040    6.6710   29.2910 C.3       6 GLP5        0.0000 
     29 CA         -2.3135    4.1075   31.2835 C.3       3 GLC5        0.0000 
     30 CA         -0.3940    3.4870   30.5210 C.3       6 GLP5        0.0000 
     31 CA         -2.4140    0.2850   34.8780 C.3       3 GLC5        0.0000 
     32 CA         -4.0500    0.1280   35.0690 C.3       9 GLL5        0.0000 
     33 CA         -0.7780    0.4420   34.6870 C.3       6 GLP5        0.0000 
     34 CA         -5.7985    0.4540   35.2670 C.3       3 GLC5        0.0000 
     35 CA         -7.5470    0.7800   35.4650 C.3       6 GLP5        0.0000 
     36 CA         -3.1385   -1.3845   35.1635 C.3       3 GLC5        0.0000 
     37 CA         -2.2270   -2.8970   35.2580 C.3       6 GLP5        0.0000 
     38 N          -2.6470   -2.3560   31.7095 N.am      2 SEC2        0.0000 
     39 N          -3.2690   -2.2600   30.5600 N.am      8 SEL2        0.0000 
     40 N          -2.0250   -2.4520   32.8590 N.am      5 SEP2        0.0000 
     41 O          -2.5125   -1.7525   29.6085 O.2       1 ALC1        0.0000 
     42 O          -3.2690   -2.2600   30.5600 O.2       7 ALL1        0.0000 
     43 O          -1.7560   -1.2450   28.6570 O.2       4 ALP1        0.0000 
     44 CA         -3.9115   -2.6175   32.3655 C.3       3 GLC5        0.0000 
     45 CA         -4.6080   -2.4060   30.4110 C.3       9 GLL5        0.0000 
     46 CA         -2.7860   -3.1230   33.8630 C.3       6 GLP5        0.0000 
     47 CA         -8.6457   -2.1322   31.2458 C.3       3 GLC5        0.0000 
     48 CA         -6.8400   -1.9660   31.1920 C.3       9 GLL5        0.0000 
     49 CA        -10.2000   -1.9380   31.8340 C.3       6 GLP5        0.0000 
     50 CA         -2.4198    2.2052   31.9135 C.3       3 GLC5        0.0000 
     51 CA         -0.5110    1.7770   31.0440 C.3       6 GLP5        0.0000 
     52 CA         -2.5335    1.0330   34.0605 C.3       3 GLC5        0.0000 
     53 CA         -3.6820   -1.2702   33.3902 C.3       3 GLC5        0.0000 
     54 CA         -4.3730    0.9370   33.4810 C.3       9 GLL5        0.0000 
     55 CA         -6.0415    0.8530   34.1795 C.3       3 GLC5        0.0000 
     56 CA         -4.7830    0.2280   32.3540 C.3       9 GLL5        0.0000 
@<TRIPOS>BOND
@<TRIPOS>SUBSTRUCTURE
     1 ALC1       41 GROUP        1 X    ALC  0     ROOT ALC X 1
     2 SEC2       38 GROUP        1 X    SEC  0     **** SEC X 2
     3 GLC5        1 GROUP        1 X    GLC  0     **** GLC X 6
     4 ALP1       43 GROUP        1 Y    ALP  0     ROOT ALP Y 8
     5 SEP2       40 GROUP        1 Y    SEP  0     **** SEP Y 9
     6 GLP5        3 GROUP        1 Y    GLP  0     **** GLP Y 13
     7 ALL1       42 GROUP        1 Z    ALL  0     ROOT ALL Z 15
     8 SEL2       39 GROUP        1 Z    SEL  0     **** SEL Z 16
     9 GLL5        2 GROUP        1 Z    GLL  0     **** GLL Z 20
@<TRIPOS>SET

