#    Name: 3f4b_TCL_2_ligand
#    Modification time : Tue Mar 25 03:09:45 2014

@<TRIPOS>MOLECULE
3f4b_TCL_2_ligand
   24    25     1     0     0
SMALL
NO_CHARGES


@<TRIPOS>ATOM
      1 C1         -5.1050   -3.1400   29.3420 C.ar      1 TCL500      0.0000 
      2 C2         -6.4800   -3.2740   29.2020 C.ar      1 TCL500      0.0000 
      3 C6         -4.6080   -2.4060   30.4110 C.ar      1 TCL500      0.0000 
      4 C5         -5.4660   -1.8180   31.3250 C.ar      1 TCL500      0.0000 
      5 C4         -6.8400   -1.9660   31.1920 C.ar      1 TCL500      0.0000 
      6 C3         -7.3430   -2.6870   30.1230 C.ar      1 TCL500      0.0000 
      7 C11        -4.4520    2.9560   32.1790 C.ar      1 TCL500      0.0000 
      8 C10        -4.2050    2.3110   33.3870 C.ar      1 TCL500      0.0000 
      9 C9         -4.3730    0.9370   33.4810 C.ar      1 TCL500      0.0000 
     10 C8         -4.7830    0.2280   32.3540 C.ar      1 TCL500      0.0000 
     11 C12        -4.8630    2.2400   31.0650 C.ar      1 TCL500      0.0000 
     12 C13        -5.0340    0.8720   31.1540 C.ar      1 TCL500      0.0000 
     13 O7         -4.9690   -1.1220   32.4030 O.3       1 TCL500      0.0000 
     14 CL14       -7.1740   -4.1980   27.8400 Cl        1 TCL500      0.0000 
     15 CL15       -4.2330    4.7280   32.0460 Cl        1 TCL500      0.0000 
     16 CL16       -4.0500    0.1280   35.0690 Cl        1 TCL500      0.0000 
     17 O17        -3.2690   -2.2600   30.5600 O.3       1 TCL500      0.0000 
     18 H          -4.4700   -3.5738   28.6703 H         1 TCL500      0.0000 
     19 H          -7.4734   -1.5452   31.8790 H         1 TCL500      0.0000 
     20 H          -8.3625   -2.7919   30.0051 H         1 TCL500      0.0000 
     21 H          -3.8995    2.8517   34.2049 H         1 TCL500      0.0000 
     22 H          -5.0394    2.7277   30.1766 H         1 TCL500      0.0000 
     23 H          -5.3456    0.3341   30.3353 H         1 TCL500      0.0000 
     24 H          -2.9898   -1.6572   29.8126 H         1 TCL500      0.0000 
@<TRIPOS>BOND
     1    2    1 ar   
     2    3    1 ar   
     3   18    1 1    
     4    6    2 ar   
     5   14    2 1    
     6    4    3 ar   
     7   17    3 1    
     8    5    4 ar   
     9   13    4 1    
    10    6    5 ar   
    11   19    5 1    
    12   20    6 1    
    13    8    7 ar   
    14   11    7 ar   
    15   15    7 1    
    16    9    8 ar   
    17   21    8 1    
    18   10    9 ar   
    19   16    9 1    
    20   12   10 ar   
    21   13   10 1    
    22   12   11 ar   
    23   22   11 1    
    24   23   12 1    
    25   24   17 1    
@<TRIPOS>SUBSTRUCTURE
     1 TCL500      1 GROUP   
@<TRIPOS>SET

