#    Name: 3sa0_NRA_1_INTS_M
#    Modification time : Tue Mar 25 12:21:35 2014

@<TRIPOS>MOLECULE
3sa0_NRA_1_INTS_M
   43     0     9     0     0
SMALL
NO_CHARGES


@<TRIPOS>ATOM
      1 CA        -13.7120   11.8975   38.3930 C.3       3 GLC5        0.0000 
      2 CA        -14.8870   11.6290   40.0970 C.3       9 GLL5        0.0000 
      3 CA        -12.5370   12.1660   36.6890 C.3       6 GLP5        0.0000 
      4 CA        -17.7380    9.5700   42.2595 C.3       3 GLC5        0.0000 
      5 CA        -17.1270   11.0260   40.8280 C.3       9 GLL5        0.0000 
      6 CA        -18.3490    8.1140   43.6910 C.3       6 GLP5        0.0000 
      7 CA        -18.0475   10.8730   42.9065 C.3       3 GLC5        0.0000 
      8 CA        -17.2380   12.3330   41.4310 C.3       9 GLL5        0.0000 
      9 CA        -18.8570    9.4130   44.3820 C.3       6 GLP5        0.0000 
     10 CA        -15.3740   19.1675   41.4680 C.3       3 GLC5        0.0000 
     11 CA        -14.5420   17.5210   42.4500 C.3       9 GLL5        0.0000 
     12 CA        -16.2060   20.8140   40.4860 C.3       6 GLP5        0.0000 
     13 CA        -13.7980   17.0090   39.7030 C.3       3 GLC5        0.0000 
     14 CA        -13.3310   17.2240   41.7980 C.3       9 GLL5        0.0000 
     15 CA        -14.2650   16.7940   37.6080 C.3       6 GLP5        0.0000 
     16 CA        -14.2100   15.9170   39.4150 C.3       3 GLC5        0.0000 
     17 CA        -14.1550   15.0400   41.2220 C.3       9 GLL5        0.0000 
     18 CA        -16.0515    9.2095   38.7145 C.3       3 GLC5        0.0000 
     19 CA        -16.0180   10.6970   40.1990 C.3       9 GLL5        0.0000 
     20 CA        -16.0850    7.7220   37.2300 C.3       6 GLP5        0.0000 
     21 O         -14.8255    9.3615   38.8425 O.2       1 ALC1        0.0000 
     22 O         -15.9360    9.4510   39.6650 O.2       7 ALL1        0.0000 
     23 O         -13.7150    9.2720   38.0200 O.2       4 ALP1        0.0000 
     24 N         -19.3525   10.0025   41.7415 N.am      2 SEC2        0.0000 
     25 N         -18.2080   10.1840   40.8810 N.am      8 SEL2        0.0000 
     26 N         -20.4970    9.8210   42.6020 N.am      5 SEP2        0.0000 
     27 O         -18.5625    9.1470   40.4405 O.2       1 ALC1        0.0000 
     28 O         -18.2080   10.1840   40.8810 O.2       7 ALL1        0.0000 
     29 O         -18.9170    8.1100   40.0000 O.2       4 ALP1        0.0000 
     30 CA        -15.9255   15.4735   39.8525 C.3       3 GLC5        0.0000 
     31 CA        -15.3790   15.3500   41.8920 C.3       9 GLL5        0.0000 
     32 CA        -16.4720   15.5970   37.8130 C.3       6 GLP5        0.0000 
     33 CA        -17.1397   11.3225   39.0735 C.3       3 GLC5        0.0000 
     34 CA        -18.8270   11.4820   37.9990 C.3       6 GLP5        0.0000 
     35 CA        -13.1450   11.8737   41.5875 C.3       3 GLC5        0.0000 
     36 CA        -11.3370   11.4870   42.7820 C.3       6 GLP5        0.0000 
     37 CA        -18.0048   11.5807   39.5643 C.3       3 GLC5        0.0000 
     38 CA        -15.3504   10.1752   41.9620 C.3       3 GLC5        0.0000 
     39 CA        -14.4110    9.2560   43.4360 C.3       6 GLP5        0.0000 
     40 CA        -16.0358   14.3250   39.4143 C.3       3 GLC5        0.0000 
     41 CA        -16.1800   13.2140   41.3420 C.3       9 GLL5        0.0000 
     42 CA        -17.0198   16.9367   41.8229 C.3       3 GLC5        0.0000 
     43 CA        -18.8240   17.6740   41.4640 C.3       6 GLP5        0.0000 
@<TRIPOS>BOND
@<TRIPOS>SUBSTRUCTURE
     1 ALC1       21 GROUP        1 X    ALC  0     ROOT ALC X 1
     2 SEC2       24 GROUP        1 X    SEC  0     **** SEC X 2
     3 GLC5        1 GROUP        1 X    GLC  0     **** GLC X 6
     4 ALP1       23 GROUP        1 Y    ALP  0     ROOT ALP Y 8
     5 SEP2       26 GROUP        1 Y    SEP  0     **** SEP Y 9
     6 GLP5        3 GROUP        1 Y    GLP  0     **** GLP Y 13
     7 ALL1       22 GROUP        1 Z    ALL  0     ROOT ALL Z 15
     8 SEL2       25 GROUP        1 Z    SEL  0     **** SEL Z 16
     9 GLL5        2 GROUP        1 Z    GLL  0     **** GLL Z 20
@<TRIPOS>SET

