#    Name: 3sa0_NRA_1_ligand
#    Modification time : Tue Mar 25 12:21:35 2014

@<TRIPOS>MOLECULE
3sa0_NRA_1_ligand
   26    28     1     0     0
SMALL
NO_CHARGES


@<TRIPOS>ATOM
      1 C10       -14.8870   11.6290   40.0970 C.ar      1 NRA361      0.0000 
      2 C13       -17.1270   11.0260   40.8280 C.ar      1 NRA361      0.0000 
      3 C15       -17.2380   12.3330   41.4310 C.ar      1 NRA361      0.0000 
      4 O01       -14.7260   18.7340   43.0710 O.3       1 NRA361      0.0000 
      5 C02       -14.5420   17.5210   42.4500 C.ar      1 NRA361      0.0000 
      6 C03       -13.3310   17.2240   41.7980 C.ar      1 NRA361      0.0000 
      7 C04       -13.1440   15.9790   41.1850 C.ar      1 NRA361      0.0000 
      8 O05       -11.9580   15.6770   40.5560 O.co2     1 NRA361      0.0000 
      9 C06       -14.1550   15.0400   41.2220 C.ar      1 NRA361      0.0000 
     10 C07       -13.9820   13.8480   40.6360 C.2       1 NRA361      0.0000 
     11 O08       -12.9250   13.6110   40.0480 O.2       1 NRA361      0.0000 
     12 C09       -15.0190   12.8920   40.6890 C.ar      1 NRA361      0.0000 
     13 C11       -16.0180   10.6970   40.1990 C.ar      1 NRA361      0.0000 
     14 O12       -15.9360    9.4510   39.6650 O.3       1 NRA361      0.0000 
     15 O14       -18.2080   10.1840   40.8810 O.3       1 NRA361      0.0000 
     16 C16       -16.1800   13.2140   41.3420 C.ar      1 NRA361      0.0000 
     17 O17       -16.3400   14.4700   41.9420 O.3       1 NRA361      0.0000 
     18 C18       -15.3790   15.3500   41.8920 C.ar      1 NRA361      0.0000 
     19 C19       -15.5620   16.5770   42.4930 C.ar      1 NRA361      0.0000 
     20 H         -14.0611   11.3408   39.6129 H         1 NRA361      0.0000 
     21 H         -18.1020   12.5753   41.9117 H         1 NRA361      0.0000 
     22 H         -12.5824   17.9258   41.7732 H         1 NRA361      0.0000 
     23 H         -16.4442   16.7977   42.9709 H         1 NRA361      0.0000 
     24 H         -14.1486   19.3114   43.6484 H         1 NRA361      0.0000 
     25 H         -15.4782    9.5764   38.7848 H         1 NRA361      0.0000 
     26 H         -17.9955    9.4493   40.2367 H         1 NRA361      0.0000 
@<TRIPOS>BOND
     1   12    1 ar   
     2   13    1 ar   
     3   20    1 1    
     4    3    2 ar   
     5   13    2 ar   
     6   15    2 1    
     7   16    3 ar   
     8   21    3 1    
     9    5    4 1    
    10   24    4 1    
    11    6    5 ar   
    12   19    5 ar   
    13    7    6 ar   
    14   22    6 1    
    15    8    7 ar   
    16    9    7 ar   
    17   10    9 1    
    18   18    9 ar   
    19   11   10 2    
    20   12   10 1    
    21   16   12 ar   
    22   14   13 1    
    23   25   14 1    
    24   26   15 1    
    25   17   16 1    
    26   18   17 1    
    27   19   18 ar   
    28   23   19 1    
@<TRIPOS>SUBSTRUCTURE
     1 NRA361      1 GROUP   
@<TRIPOS>SET

