#    Name: 4a4v_YFD_1_INTS_M
#    Modification time : Tue Mar 25 04:55:26 2014

@<TRIPOS>MOLECULE
4a4v_YFD_1_INTS_M
   68     0     6     0     0
SMALL
NO_CHARGES


@<TRIPOS>ATOM
      1 CA        -13.4710   27.3455  -52.7230 C.3       2 GLC5        0.0000 
      2 CA        -14.1320   27.8250  -50.8340 C.3       6 GLL5        0.0000 
      3 CA        -12.8100   26.8660  -54.6120 C.3       4 GLP5        0.0000 
      4 CA        -13.3150   29.3730  -50.0355 C.3       2 GLC5        0.0000 
      5 CA        -12.4980   30.9210  -49.2370 C.3       4 GLP5        0.0000 
      6 CA        -12.4945   26.5405  -50.6450 C.3       2 GLC5        0.0000 
      7 CA        -10.8570   25.2560  -50.4560 C.3       4 GLP5        0.0000 
      8 CA        -16.6680   27.3130  -51.5585 C.3       2 GLC5        0.0000 
      9 CA        -15.0780   26.8200  -50.1640 C.3       6 GLL5        0.0000 
     10 CA        -18.2580   27.8060  -52.9530 C.3       4 GLP5        0.0000 
     11 CA        -13.3705   26.2805  -49.1450 C.3       2 GLC5        0.0000 
     12 CA        -11.6630   25.7410  -48.1260 C.3       4 GLP5        0.0000 
     13 CA        -12.9185   25.3565  -50.6570 C.3       2 GLC5        0.0000 
     14 CA        -14.9800   25.4570  -50.8580 C.3       6 GLL5        0.0000 
     15 CA        -13.6795   24.9220  -48.4705 C.3       2 GLC5        0.0000 
     16 CA        -15.6960   24.1030  -48.8150 C.3       6 GLL5        0.0000 
     17 CA        -15.8040   25.2380  -47.2545 C.3       2 GLC5        0.0000 
     18 CA        -15.9120   26.3730  -45.6940 C.3       4 GLP5        0.0000 
     19 N         -20.5525   22.1245  -49.6875 N.am      1 SEC2        0.0000 
     20 N         -19.8150   22.4370  -48.4500 N.am      5 SEL2        0.0000 
     21 N         -21.2900   21.8120  -50.9250 N.am      3 SEP2        0.0000 
     22 CA        -18.8525   21.4840  -46.0145 C.3       2 GLC5        0.0000 
     23 CA        -17.6070   20.8700  -47.7330 C.3       6 GLL5        0.0000 
     24 CA        -20.0980   22.0980  -44.2960 C.3       4 GLP5        0.0000 
     25 CA        -13.0645   22.6140  -48.4050 C.3       2 GLC5        0.0000 
     26 CA        -15.0650   21.8640  -48.0050 C.3       6 GLL5        0.0000 
     27 CA        -11.0640   23.3640  -48.8050 C.3       4 GLP5        0.0000 
     28 CA        -14.2875   18.0285  -49.7140 C.3       2 GLC5        0.0000 
     29 CA        -13.4960   19.4510  -48.4540 C.3       6 GLL5        0.0000 
     30 CA        -15.0790   16.6060  -50.9740 C.3       4 GLP5        0.0000 
     31 CA        -12.9485   20.5110  -50.3215 C.3       2 GLC5        0.0000 
     32 CA        -12.4010   21.5710  -52.1890 C.3       4 GLP5        0.0000 
     33 CA        -11.7900   19.6675  -49.2165 C.3       2 GLC5        0.0000 
     34 CA        -10.0840   19.8840  -49.9790 C.3       4 GLP5        0.0000 
     35 CA        -13.2805   17.7965  -47.5120 C.3       2 GLC5        0.0000 
     36 CA        -13.0650   16.1420  -46.5700 C.3       4 GLP5        0.0000 
     37 CA        -16.8915   16.9675  -48.3695 C.3       2 GLC5        0.0000 
     38 CA        -16.8310   18.5900  -46.8740 C.3       6 GLL5        0.0000 
     39 CA        -16.9520   15.3450  -49.8650 C.3       4 GLP5        0.0000 
     40 CA        -14.6440   17.2375  -46.0985 C.3       2 GLC5        0.0000 
     41 CA        -16.2230   18.3330  -45.6270 C.3       6 GLL5        0.0000 
     42 CA        -15.7960   15.9205  -43.8950 C.3       2 GLC5        0.0000 
     43 CA        -15.8350   17.7030  -43.1710 C.3       6 GLL5        0.0000 
     44 CA        -15.7570   14.1380  -44.6190 C.3       4 GLP5        0.0000 
     45 CA        -19.5335   19.3070  -44.3475 C.3       2 GLC5        0.0000 
     46 CA        -18.3030   17.8630  -44.1520 C.3       6 GLL5        0.0000 
     47 CA        -20.7640   20.7510  -44.5430 C.3       4 GLP5        0.0000 
     48 CA        -16.4147   23.7095  -51.9090 C.3       2 GLC5        0.0000 
     49 CA        -15.9670   24.4090  -50.2920 C.3       6 GLL5        0.0000 
     50 CA        -17.3560   22.4860  -53.2430 C.3       4 GLP5        0.0000 
     51 CA        -14.4552   23.8990  -51.7205 C.3       2 GLC5        0.0000 
     52 CA        -13.4370   22.8650  -52.8660 C.3       4 GLP5        0.0000 
     53 CA        -16.0700   22.6665  -46.2695 C.3       2 GLC5        0.0000 
     54 CA        -16.1200   22.6970  -48.3480 C.3       6 GLL5        0.0000 
     55 CA        -15.3670   22.8920  -44.2690 C.3       4 GLP5        0.0000 
     56 CA        -17.0550   21.2510  -49.7485 C.3       2 GLC5        0.0000 
     57 CA        -17.3370   20.0610  -51.2270 C.3       4 GLP5        0.0000 
     58 CA        -17.2065   20.2542  -49.3945 C.3       2 GLC5        0.0000 
     59 CA        -16.2505   20.6370  -49.5018 C.3       2 GLC5        0.0000 
     60 CA        -15.2630   20.5620  -47.5480 C.3       6 GLL5        0.0000 
     61 CA        -14.9678   21.3490  -46.0049 C.3       2 GLC5        0.0000 
     62 CA        -14.0810   22.0790  -44.4260 C.3       4 GLP5        0.0000 
     63 CA        -17.0645   16.5602  -46.2468 C.3       2 GLC5        0.0000 
     64 CA        -17.6020   14.6590  -46.2430 C.3       4 GLP5        0.0000 
     65 CA        -17.5693   16.2918  -45.2533 C.3       2 GLC5        0.0000 
     66 CA        -16.7700   17.9860  -44.3750 C.3       6 GLL5        0.0000 
     67 CA        -15.0654   19.2636  -43.7585 C.3       2 GLC5        0.0000 
     68 CA        -13.9650   20.5960  -43.4310 C.3       4 GLP5        0.0000 
@<TRIPOS>BOND
@<TRIPOS>SUBSTRUCTURE
     1 SEC2       19 GROUP        1 X    SEC  0     ROOT SEC X 2
     2 GLC5        1 GROUP        1 X    GLC  0     **** GLC X 6
     3 SEP2       21 GROUP        1 Y    SEP  0     ROOT SEP Y 9
     4 GLP5        3 GROUP        1 Y    GLP  0     **** GLP Y 13
     5 SEL2       20 GROUP        1 Z    SEL  0     ROOT SEL Z 16
     6 GLL5        2 GROUP        1 Z    GLL  0     **** GLL Z 20
@<TRIPOS>SET

