#    Name: 4a4v_YFD_1_ligand
#    Modification time : Tue Mar 25 04:55:26 2014

@<TRIPOS>MOLECULE
4a4v_YFD_1_ligand
   47    47     1     0     0
SMALL
NO_CHARGES


@<TRIPOS>ATOM
      1 CAA       -14.1320   27.8250  -50.8340 C.3       1 YFD999      0.0000 
      2 CAJ       -15.0780   26.8200  -50.1640 C.3       1 YFD999      0.0000 
      3 CAL       -14.9800   25.4570  -50.8580 C.3       1 YFD999      0.0000 
      4 CAM       -15.9670   24.4090  -50.2920 C.3       1 YFD999      0.0000 
      5 CAN       -15.6960   24.1030  -48.8150 C.3       1 YFD999      0.0000 
      6 CAS       -16.1200   22.6970  -48.3480 C.ar      1 YFD999      0.0000 
      7 CAV       -17.4260   22.1850  -48.1920 C.ar      1 YFD999      0.0000 
      8 CAQ       -18.6980   23.0130  -48.5230 C.2       1 YFD999      0.0000 
      9 OAF       -19.8150   22.4370  -48.4500 O.co2     1 YFD999      0.0000 
     10 OAE       -18.5640   24.2240  -48.8240 O.co2     1 YFD999      0.0000 
     11 CAR       -17.6070   20.8700  -47.7330 C.ar      1 YFD999      0.0000 
     12 OAG       -18.8740   20.3930  -47.6050 O.3       1 YFD999      0.0000 
     13 CAI       -15.0650   21.8640  -48.0050 C.ar      1 YFD999      0.0000 
     14 CAT       -15.2630   20.5620  -47.5480 C.ar      1 YFD999      0.0000 
     15 OAO       -14.1640   19.8250  -47.2530 O.3       1 YFD999      0.0000 
     16 CAB       -13.4960   19.4510  -48.4540 C.3       1 YFD999      0.0000 
     17 CAU       -16.5450   20.0250  -47.3910 C.ar      1 YFD999      0.0000 
     18 CAK       -16.8310   18.5900  -46.8740 C.3       1 YFD999      0.0000 
     19 CAH       -16.2230   18.3330  -45.6270 C.2       1 YFD999      0.0000 
     20 CAP       -16.7700   17.9860  -44.3750 C.2       1 YFD999      0.0000 
     21 CAD       -15.8350   17.7030  -43.1710 C.3       1 YFD999      0.0000 
     22 CAC       -18.3030   17.8630  -44.1520 C.3       1 YFD999      0.0000 
     23 H         -16.0968   27.1860  -50.2345 H         1 YFD999      0.0000 
     24 H         -14.8034   26.7116  -49.1201 H         1 YFD999      0.0000 
     25 H         -13.9590   25.0704  -50.7508 H         1 YFD999      0.0000 
     26 H         -15.1789   25.5828  -51.9294 H         1 YFD999      0.0000 
     27 H         -15.8755   23.4904  -50.8740 H         1 YFD999      0.0000 
     28 H         -16.9840   24.7895  -50.4014 H         1 YFD999      0.0000 
     29 H         -16.2188   24.8528  -48.1925 H         1 YFD999      0.0000 
     30 H         -14.6154   24.2286  -48.6160 H         1 YFD999      0.0000 
     31 H         -14.0878   22.2220  -48.0911 H         1 YFD999      0.0000 
     32 H         -16.4813   17.8940  -47.6619 H         1 YFD999      0.0000 
     33 H         -17.9329   18.4820  -46.8330 H         1 YFD999      0.0000 
     34 H         -15.1208   18.4193  -45.6334 H         1 YFD999      0.0000 
     35 H         -13.1791   27.5251  -50.7889 H         1 YFD999      0.0000 
     36 H         -14.3528   27.9554  -51.8006 H         1 YFD999      0.0000 
     37 H         -14.1771   28.7244  -50.3991 H         1 YFD999      0.0000 
     38 H         -13.1993   20.2494  -48.9780 H         1 YFD999      0.0000 
     39 H         -12.6809   18.9017  -48.2700 H         1 YFD999      0.0000 
     40 H         -14.0853   18.9094  -49.0535 H         1 YFD999      0.0000 
     41 H         -15.2114   16.9434  -43.3556 H         1 YFD999      0.0000 
     42 H         -15.2709   18.4969  -42.9442 H         1 YFD999      0.0000 
     43 H         -16.3509   17.4653  -42.3480 H         1 YFD999      0.0000 
     44 H         -18.5223   17.6144  -43.2085 H         1 YFD999      0.0000 
     45 H         -18.7767   18.7220  -44.3464 H         1 YFD999      0.0000 
     46 H         -18.7091   17.1645  -44.7411 H         1 YFD999      0.0000 
     47 H         -19.4023   20.8705  -48.3070 H         1 YFD999      0.0000 
@<TRIPOS>BOND
     1    2    1 1    
     2   35    1 1    
     3   36    1 1    
     4   37    1 1    
     5    3    2 1    
     6   23    2 1    
     7   24    2 1    
     8    4    3 1    
     9   25    3 1    
    10   26    3 1    
    11    5    4 1    
    12   27    4 1    
    13   28    4 1    
    14    6    5 1    
    15   29    5 1    
    16   30    5 1    
    17    7    6 ar   
    18   13    6 ar   
    19    8    7 1    
    20   11    7 ar   
    21    9    8 ar   
    22   10    8 ar   
    23   12   11 1    
    24   17   11 ar   
    25   47   12 1    
    26   14   13 ar   
    27   31   13 1    
    28   15   14 1    
    29   17   14 ar   
    30   16   15 1    
    31   38   16 1    
    32   39   16 1    
    33   40   16 1    
    34   18   17 1    
    35   19   18 1    
    36   32   18 1    
    37   33   18 1    
    38   20   19 2    
    39   34   19 1    
    40   21   20 1    
    41   22   20 1    
    42   41   21 1    
    43   42   21 1    
    44   43   21 1    
    45   44   22 1    
    46   45   22 1    
    47   46   22 1    
@<TRIPOS>SUBSTRUCTURE
     1 YFD999      1 GROUP   
@<TRIPOS>SET

