#    Name: 3E3U_1_CAVITY_N1_ALL.mol2
#    Modification time : Tue Mar 11 17:55:40 2014

@<TRIPOS>MOLECULE
3E3U_1_CAVITY_N1_ALL.mol2
   82     0     5     0     0
SMALL
NO_CHARGES


@<TRIPOS>ATOM
      1 N          24.0553   58.4744   24.6365 N.2       1 ALA2        0.0000 
      2 N          24.2317   57.5326   23.4825 N.2       1 ALA2        0.0000 
      3 DU         25.0845   59.1507   18.3928 H         5 CUB7        0.0000 
      4 N          25.0944   57.0415   18.1660 N.2       1 ALA2        0.0000 
      5 CZ         25.2609   58.2088   17.2388 C.ar      3 PHE5        0.0000 
      6 N          25.2708   56.0997   17.0120 N.2       1 ALA2        0.0000 
      7 N          25.4374   57.2670   16.0848 N.2       1 ALA2        0.0000 
      8 N          25.4572   53.0487   15.6312 N.2       1 ALA2        0.0000 
      9 N          22.4084   57.3262   25.3218 N.2       1 ALA2        0.0000 
     10 N          22.5849   56.3843   24.1677 N.2       1 ALA2        0.0000 
     11 N          22.7515   57.5516   23.2405 N.2       1 ALA2        0.0000 
     12 N          22.9280   56.6098   22.0865 N.2       1 ALA2        0.0000 
     13 N          23.0946   57.7770   21.1593 N.2       1 ALA2        0.0000 
     14 DU         23.1045   55.6679   20.9325 H         5 CUB7        0.0000 
     15 DU         23.2710   56.8352   20.0053 H         5 CUB7        0.0000 
     16 O          23.4376   58.0025   19.0781 O.2       1 ALA2        0.0000 
     17 O          23.6042   59.1697   18.1509 O.2       1 ALA2        0.0000 
     18 DU         23.6141   57.0606   17.9241 H         5 CUB7        0.0000 
     19 CZ         23.7807   58.2279   16.9969 C.ar      3 PHE5        0.0000 
     20 DU         23.6240   54.9515   17.6973 H         5 CUB7        0.0000 
     21 DU         23.7906   56.1188   16.7701 H         5 CUB7        0.0000 
     22 CZ         23.9572   57.2860   15.8428 C.ar      3 PHE5        0.0000 
     23 CA         23.6339   52.8423   17.4704 C.3       4 GLY6        0.0000 
     24 N          23.8005   54.0096   16.5432 N.2       1 ALA2        0.0000 
     25 N          23.9671   55.1769   15.6160 N.2       1 ALA2        0.0000 
     26 CZ         24.1337   56.3442   14.6888 C.ar      3 PHE5        0.0000 
     27 CA         21.1047   56.4034   23.9258 C.3       4 GLY6        0.0000 
     28 N          21.2713   57.5707   22.9986 N.2       1 ALA2        0.0000 
     29 CA         21.4477   56.6288   21.8446 C.3       4 GLY6        0.0000 
     30 CA         21.6143   57.7961   20.9174 C.3       4 GLY6        0.0000 
     31 CA         21.6242   55.6870   20.6906 C.3       4 GLY6        0.0000 
     32 O          21.7908   56.8543   19.7634 O.2       1 ALA2        0.0000 
     33 O          21.9574   58.0215   18.8362 O.2       1 ALA2        0.0000 
     34 CA         21.6341   53.5778   20.4637 C.3       4 GLY6        0.0000 
     35 CA         21.8007   54.7451   19.5365 C.3       4 GLY6        0.0000 
     36 DU         21.9673   55.9124   18.6093 H         5 CUB7        0.0000 
     37 DU         22.1339   57.0797   17.6821 H         5 CUB7        0.0000 
     38 CA         22.3005   58.2470   16.7549 C.3       4 GLY6        0.0000 
     39 CA         21.9772   53.8033   18.3825 C.3       4 GLY6        0.0000 
     40 DU         22.1438   54.9705   17.4553 H         5 CUB7        0.0000 
     41 DU         22.3104   56.1378   16.5281 H         5 CUB7        0.0000 
     42 CZ         22.4769   57.3051   15.6009 C.ar      3 PHE5        0.0000 
     43 N          22.3203   54.0287   16.3013 N.2       1 ALA2        0.0000 
     44 N          22.4868   55.1960   15.3741 N.2       1 ALA2        0.0000 
     45 CZ         22.6534   56.3632   14.4469 C.ar      3 PHE5        0.0000 
     46 N          22.6633   54.2541   14.2201 N.2       1 ALA2        0.0000 
     47 CA         19.8009   55.4806   22.5298 C.3       4 GLY6        0.0000 
     48 CA         19.9675   56.6479   21.6026 C.3       4 GLY6        0.0000 
     49 CA         20.1341   57.8152   20.6754 C.3       4 GLY6        0.0000 
     50 CA         20.1440   55.7061   20.4486 C.3       4 GLY6        0.0000 
     51 N          20.3106   56.8733   19.5214 N.2       1 ALA2        0.0000 
     52 CA         20.3205   54.7642   19.2946 C.3       4 GLY6        0.0000 
     53 N          20.4871   55.9315   18.3674 N.2       1 ALA2        0.0000 
     54 N          20.6536   57.0988   17.4402 N.2       1 ALA2        0.0000 
     55 CA         20.6635   54.9896   17.2134 C.3       4 GLY6        0.0000 
     56 N          20.8301   56.1569   16.2862 N.2       1 ALA2        0.0000 
     57 O          20.9967   57.3242   15.3590 O.2       1 ALA2        0.0000 
     58 O          20.8400   54.0478   16.0594 O.2       1 ALA2        0.0000 
     59 CA         21.0066   55.2150   15.1322 C.3       4 GLY6        0.0000 
     60 CA         21.1732   56.3823   14.2050 C.3       4 GLY6        0.0000 
     61 CA         21.1831   54.2732   13.9781 C.3       4 GLY6        0.0000 
     62 CA         18.3207   55.4997   22.2879 C.3       4 GLY6        0.0000 
     63 CA         18.4873   56.6670   21.3607 C.3       4 GLY6        0.0000 
     64 CA         18.4972   54.5578   21.1339 C.3       4 GLY6        0.0000 
     65 DU         18.6638   55.7251   20.2067 H         5 CUB7        0.0000 
     66 N          18.8303   56.8924   19.2795 N.2       1 ALA2        0.0000 
     67 CA         18.8402   54.7833   19.0527 C.3       4 GLY6        0.0000 
     68 N          19.0068   55.9505   18.1255 N.2       1 ALA2        0.0000 
     69 CA         19.1833   55.0087   16.9714 C.3       4 GLY6        0.0000 
     70 N          19.3499   56.1760   16.0442 N.2       1 ALA2        0.0000 
     71 CA         19.5165   57.3432   15.1170 C.3       4 GLY6        0.0000 
     72 O          19.3598   54.0668   15.8174 O.2       1 ALA2        0.0000 
     73 CA         19.5264   55.2341   14.8902 C.3       4 GLY6        0.0000 
     74 O          17.1835   55.7442   19.9648 O.2       1 ALA2        0.0000 
     75 CA         17.3600   54.8023   18.8107 C.3       4 GLY6        0.0000 
     76 O          17.5266   55.9696   17.8835 O.2       1 ALA2        0.0000 
     77 CA         17.5365   53.8605   17.6567 C.3       4 GLY6        0.0000 
     78 NZ         17.7031   55.0278   16.7295 N.2       2 LYS4        0.0000 
     79 N          17.8696   56.1950   15.8023 N.2       1 ALA2        0.0000 
     80 N          17.8795   54.0859   15.5755 N.2       1 ALA2        0.0000 
     81 N          18.0461   55.2532   14.6483 N.2       1 ALA2        0.0000 
     82 NZ         16.2228   55.0468   16.4876 N.2       2 LYS4        0.0000 
@<TRIPOS>BOND
@<TRIPOS>SUBSTRUCTURE
     1 ALA2        1 GROUP   
     2 LYS4       78 GROUP   
     3 PHE5        5 GROUP   
     4 GLY6       23 GROUP   
     5 CUB7        3 GROUP   
@<TRIPOS>SET

