#    Name: 3e3u_NVC_1_INTS_M
#    Modification time : Tue Mar 25 00:53:03 2014

@<TRIPOS>MOLECULE
3e3u_NVC_1_INTS_M
   58     0     9     0     0
SMALL
NO_CHARGES


@<TRIPOS>ATOM
      1 N          20.3540   52.3725   15.8540 N.am      2 SEC2        0.0000 
      2 N          20.3620   53.7950   15.9130 N.am      8 SEL2        0.0000 
      3 N          20.3460   50.9500   15.7950 N.am      5 SEP2        0.0000 
      4 CA         18.4840   57.6230   15.3345 C.3       3 GLC5        0.0000 
      5 CA         18.7090   55.5040   15.9260 C.3       9 GLL5        0.0000 
      6 CA         18.2590   59.7420   14.7430 C.3       6 GLP5        0.0000 
      7 CA         19.3100   55.7595   13.7730 C.3       3 GLC5        0.0000 
      8 CA         19.9110   56.0150   11.6200 C.3       6 GLP5        0.0000 
      9 CA         16.0415   55.9400   17.2215 C.3       3 GLC5        0.0000 
     10 CA         17.9010   55.0910   17.1600 C.3       9 GLL5        0.0000 
     11 CA         14.1820   56.7890   17.2830 C.3       6 GLP5        0.0000 
     12 CA         16.0105   56.0965   19.1055 C.3       3 GLC5        0.0000 
     13 CA         17.6920   55.0610   19.6320 C.3       9 GLL5        0.0000 
     14 CA         14.3290   57.1320   18.5790 C.3       6 GLP5        0.0000 
     15 CA         19.5600   54.2770   22.1380 C.3       3 GLC5        0.0000 
     16 CA         18.3390   55.3030   20.9790 C.3       9 GLL5        0.0000 
     17 CA         20.7810   53.2510   23.2970 C.3       6 GLP5        0.0000 
     18 CA         17.5635   56.0590   22.5755 C.3       3 GLC5        0.0000 
     19 CA         16.7880   56.8150   24.1720 C.3       6 GLP5        0.0000 
     20 CA         18.7670   54.7585   12.9940 C.3       3 GLC5        0.0000 
     21 CA         18.0690   54.9230   14.6590 C.3       9 GLL5        0.0000 
     22 CA         19.4650   54.5940   11.3290 C.3       6 GLP5        0.0000 
     23 N          15.8650   56.8735   12.6835 N.am      2 SEC2        0.0000 
     24 N          16.7570   56.8320   13.9170 N.am      8 SEL2        0.0000 
     25 N          14.9730   56.9150   11.4500 N.am      5 SEP2        0.0000 
     26 N          17.6930   57.6970   13.2970 N.am      2 SEC2        0.0000 
     27 N          18.6290   58.5620   12.6770 N.am      5 SEP2        0.0000 
     28 O          15.8685   57.2270   15.2345 O.2       1 ALC1        0.0000 
     29 O          16.7570   56.8320   13.9170 O.2       7 ALL1        0.0000 
     30 O          14.9800   57.6220   16.5520 O.2       4 ALP1        0.0000 
     31 N          13.7825   54.5650   15.0665 N.am      2 SEC2        0.0000 
     32 N          14.7220   55.3890   14.5930 N.am      8 SEL2        0.0000 
     33 N          12.8430   53.7410   15.5400 N.am      5 SEP2        0.0000 
     34 CA         23.8140   57.6565   14.1005 C.3       3 GLC5        0.0000 
     35 CA         23.3730   56.6550   15.6210 C.3       9 GLL5        0.0000 
     36 CA         24.2550   58.6580   12.5800 C.3       6 GLP5        0.0000 
     37 CA         19.6695   58.5465   15.3155 C.3       3 GLC5        0.0000 
     38 CA         21.0800   57.3510   15.8880 C.3       9 GLL5        0.0000 
     39 CA         22.0075   53.7465   21.9930 C.3       3 GLC5        0.0000 
     40 CA         23.2340   54.2420   20.6890 C.3       9 GLL5        0.0000 
     41 CA         18.9072   53.5697   18.2350 C.3       3 GLC5        0.0000 
     42 CA         18.5500   55.5560   18.4720 C.3       9 GLL5        0.0000 
     43 CA         19.5890   51.8160   18.6540 C.3       6 GLP5        0.0000 
     44 CA         18.8023   53.4990   19.4797 C.3       3 GLC5        0.0000 
     45 CA         16.5217   54.1085   20.9827 C.3       3 GLC5        0.0000 
     46 CA         15.0280   53.0350   21.6600 C.3       6 GLP5        0.0000 
     47 CA         21.0530   59.2398   16.8762 C.3       3 GLC5        0.0000 
     48 CA         20.3080   60.9200   17.7040 C.3       6 GLP5        0.0000 
     49 CA         22.3345   58.9577   14.8352 C.3       3 GLC5        0.0000 
     50 CA         22.8710   60.3560   13.6220 C.3       6 GLP5        0.0000 
     51 CA         22.6095   52.1680   18.7248 C.3       3 GLC5        0.0000 
     52 CA         23.2000   54.3640   19.3050 C.3       9 GLL5        0.0000 
     53 CA         21.6730   50.4180   18.5430 C.3       6 GLP5        0.0000 
     54 CA         23.1750   51.3935   19.1220 C.3       3 GLC5        0.0000 
     55 CA         24.6560   52.4270   19.0070 C.3       9 GLL5        0.0000 
     56 CA         23.1805   51.8865   22.1927 C.3       3 GLC5        0.0000 
     57 CA         24.6980   52.3110   20.3950 C.3       9 GLL5        0.0000 
     58 CA         22.0100   51.0150   23.5830 C.3       6 GLP5        0.0000 
@<TRIPOS>BOND
@<TRIPOS>SUBSTRUCTURE
     1 ALC1       28 GROUP        1 X    ALC  0     ROOT ALC X 1
     2 SEC2        1 GROUP        1 X    SEC  0     **** SEC X 2
     3 GLC5        4 GROUP        1 X    GLC  0     **** GLC X 6
     4 ALP1       30 GROUP        1 Y    ALP  0     ROOT ALP Y 8
     5 SEP2        3 GROUP        1 Y    SEP  0     **** SEP Y 9
     6 GLP5        6 GROUP        1 Y    GLP  0     **** GLP Y 13
     7 ALL1       29 GROUP        1 Z    ALL  0     ROOT ALL Z 15
     8 SEL2        2 GROUP        1 Z    SEL  0     **** SEL Z 16
     9 GLL5        5 GROUP        1 Z    GLL  0     **** GLL Z 20
@<TRIPOS>SET

