#    Name: 3e3u_NVC_1_ligand
#    Modification time : Tue Mar 25 00:53:03 2014

@<TRIPOS>MOLECULE
3e3u_NVC_1_ligand
   51    53     1     0     0
SMALL
NO_CHARGES


@<TRIPOS>ATOM
      1 O28        20.3620   53.7950   15.9130 O.2       1 NVC201      0.0000 
      2 C27        20.1420   54.9940   15.9300 C.2       1 NVC201      0.0000 
      3 C29        18.7090   55.5040   15.9260 C.3       1 NVC201      0.0000 
      4 C40        17.9010   55.0910   17.1600 C.3       1 NVC201      0.0000 
      5 C43        18.5500   55.5560   18.4720 C.3       1 NVC201      0.0000 
      6 C46        17.6920   55.0610   19.6320 C.3       1 NVC201      0.0000 
      7 C49        18.3390   55.3030   20.9790 C.3       1 NVC201      0.0000 
      8 C31        18.0690   54.9230   14.6590 C.3       1 NVC201      0.0000 
      9 N34        16.7630   55.5170   14.3950 N.am      1 NVC201      0.0000 
     10 O35        16.7570   56.8320   13.9170 O.3       1 NVC201      0.0000 
     11 C37        15.7420   54.8280   14.6060 C.2       1 NVC201      0.0000 
     12 O39        14.7220   55.3890   14.5930 O.2       1 NVC201      0.0000 
     13 N17        21.1450   55.8800   15.8980 N.am      1 NVC201      0.0000 
     14 C15        22.5330   55.4080   15.8590 C.3       1 NVC201      0.0000 
     15 C24        23.3730   56.6550   15.6210 C.3       1 NVC201      0.0000 
     16 C21        22.5160   57.7680   16.2090 C.3       1 NVC201      0.0000 
     17 C18        21.0800   57.3510   15.8880 C.3       1 NVC201      0.0000 
     18 C3         22.8960   54.8620   17.1790 C.2       1 NVC201      0.0000 
     19 O1         23.7080   53.7710   17.1520 O.3       1 NVC201      0.0000 
     20 C6         23.8920   53.4720   18.5080 C.ar      1 NVC201      0.0000 
     21 C5         23.2000   54.3640   19.3050 C.ar      1 NVC201      0.0000 
     22 N4         22.5690   55.2210   18.4460 N.2       1 NVC201      0.0000 
     23 C7         24.6560   52.4270   19.0070 C.ar      1 NVC201      0.0000 
     24 C9         24.6980   52.3110   20.3950 C.ar      1 NVC201      0.0000 
     25 C11        24.0040   53.2050   21.2100 C.ar      1 NVC201      0.0000 
     26 C13        23.2340   54.2420   20.6890 C.ar      1 NVC201      0.0000 
     27 H          18.7153   56.5716   15.8289 H         1 NVC201      0.0000 
     28 H          17.8054   54.0004   17.1775 H         1 NVC201      0.0000 
     29 H          16.8954   55.5184   17.0897 H         1 NVC201      0.0000 
     30 H          18.5924   56.6326   18.4856 H         1 NVC201      0.0000 
     31 H          19.5395   55.1361   18.5475 H         1 NVC201      0.0000 
     32 H          17.5073   53.9860   19.5046 H         1 NVC201      0.0000 
     33 H          16.7197   55.5705   19.5982 H         1 NVC201      0.0000 
     34 H          17.9857   53.8345   14.7906 H         1 NVC201      0.0000 
     35 H          18.7576   55.1003   13.8202 H         1 NVC201      0.0000 
     36 H          15.8463   53.7783   14.7851 H         1 NVC201      0.0000 
     37 H          22.6907   54.7272   15.0896 H         1 NVC201      0.0000 
     38 H          23.5016   56.8103   14.5813 H         1 NVC201      0.0000 
     39 H          24.2852   56.5827   16.1542 H         1 NVC201      0.0000 
     40 H          22.7373   58.6889   15.7267 H         1 NVC201      0.0000 
     41 H          22.6492   57.8097   17.2627 H         1 NVC201      0.0000 
     42 H          20.4352   57.7146   16.6532 H         1 NVC201      0.0000 
     43 H          20.8203   57.7199   14.9236 H         1 NVC201      0.0000 
     44 H          25.1480   51.7936   18.4092 H         1 NVC201      0.0000 
     45 H          25.2509   51.5522   20.8270 H         1 NVC201      0.0000 
     46 H          24.0642   53.0924   22.2454 H         1 NVC201      0.0000 
     47 H          22.7270   54.8721   21.2873 H         1 NVC201      0.0000 
     48 H          19.2216   54.8392   21.0557 H         1 NVC201      0.0000 
     49 H          18.5038   56.2757   21.1425 H         1 NVC201      0.0000 
     50 H          17.7678   54.9722   21.7302 H         1 NVC201      0.0000 
     51 H          16.4975   57.3920   14.7037 H         1 NVC201      0.0000 
@<TRIPOS>BOND
     1    2    1 2    
     2    3    2 1    
     3   13    2 am   
     4    4    3 1    
     5    8    3 1    
     6   27    3 1    
     7    5    4 1    
     8   28    4 1    
     9   29    4 1    
    10    6    5 1    
    11   30    5 1    
    12   31    5 1    
    13    7    6 1    
    14   32    6 1    
    15   33    6 1    
    16   48    7 1    
    17   49    7 1    
    18   50    7 1    
    19    9    8 1    
    20   34    8 1    
    21   35    8 1    
    22   10    9 1    
    23   11    9 am   
    24   51   10 1    
    25   12   11 2    
    26   36   11 1    
    27   14   13 1    
    28   17   13 1    
    29   15   14 1    
    30   18   14 1    
    31   37   14 1    
    32   16   15 1    
    33   38   15 1    
    34   39   15 1    
    35   17   16 1    
    36   40   16 1    
    37   41   16 1    
    38   42   17 1    
    39   43   17 1    
    40   19   18 1    
    41   22   18 2    
    42   20   19 1    
    43   21   20 ar   
    44   23   20 ar   
    45   22   21 1    
    46   26   21 ar   
    47   24   23 ar   
    48   44   23 1    
    49   25   24 ar   
    50   45   24 1    
    51   26   25 ar   
    52   46   25 1    
    53   47   26 1    
@<TRIPOS>SUBSTRUCTURE
     1 NVC201      1 GROUP   
@<TRIPOS>SET

