#    Name: 2vk4_TPP_3_INTS_M
#    Modification time : Tue Mar 25 01:58:35 2014

@<TRIPOS>MOLECULE
2vk4_TPP_3_INTS_M
   84     0    12     0     0
SMALL
NO_CHARGES


@<TRIPOS>ATOM
      1 N          24.3575  -54.4370   -5.5255 N.am      2 SEC2        0.0000 
      2 N          23.4090  -55.0880   -6.1850 N.am     10 SEL2        0.0000 
      3 N          25.3060  -53.7860   -4.8660 N.am      6 SEP2        0.0000 
      4 CA         21.7170  -53.2315   -7.2485 C.3       4 GLC5        0.0000 
      5 CA         22.1590  -54.5640   -5.9640 C.3      12 GLL5        0.0000 
      6 CA         21.2750  -51.8990   -8.5330 C.3       8 GLP5        0.0000 
      7 CA         19.7640  -53.7920   -5.4235 C.3       4 GLC5        0.0000 
      8 CA         21.8870  -53.7890   -4.7190 C.3      12 GLL5        0.0000 
      9 CA         17.6410  -53.7950   -6.1280 C.3       8 GLP5        0.0000 
     10 CA         21.1910  -52.4545   -6.1250 C.3       4 GLC5        0.0000 
     11 CA         20.4950  -51.1200   -7.5310 C.3       8 GLP5        0.0000 
     12 N          19.8155  -55.3885   -6.2370 N.am      2 SEC2        0.0000 
     13 N          21.1560  -54.7590   -6.8970 N.am     10 SEL2        0.0000 
     14 N          18.4750  -56.0180   -5.5770 N.am      6 SEP2        0.0000 
     15 O          19.1925  -55.0700   -8.8780 O.2       1 ALC1        0.0000 
     16 O          20.4570  -55.6190   -8.9840 O.2       9 ALL1        0.0000 
     17 O          17.9280  -54.5210   -8.7720 O.2       5 ALP1        0.0000 
     18 CA         25.1220  -61.1635   -7.8165 C.3       4 GLC5        0.0000 
     19 CA         24.0190  -59.6160   -8.1230 C.3      12 GLL5        0.0000 
     20 CA         26.2250  -62.7110   -7.5100 C.3       8 GLP5        0.0000 
     21 CA         26.2245  -59.6830   -8.4060 C.3       4 GLC5        0.0000 
     22 CA         28.4300  -59.7500   -8.6890 C.3       8 GLP5        0.0000 
     23 CA         23.2470  -63.0825   -8.7445 C.3       4 GLC5        0.0000 
     24 CA         21.8990  -61.9400   -8.7000 C.3      12 GLL5        0.0000 
     25 CA         24.5950  -64.2250   -8.7890 C.3       8 GLP5        0.0000 
     26 CA         23.0000  -61.7775  -10.1670 C.3       4 GLC5        0.0000 
     27 CA         24.1010  -61.6150  -11.6340 C.3       8 GLP5        0.0000 
     28 CA         20.0120  -60.5625   -7.2695 C.3       4 GLC5        0.0000 
     29 CA         20.8480  -62.3660   -7.6820 C.3      12 GLL5        0.0000 
     30 CA         19.1760  -58.7590   -6.8570 C.3       8 GLP5        0.0000 
     31 CA         22.5935  -62.9500   -6.9995 C.3       4 GLC5        0.0000 
     32 CA         24.3390  -63.5340   -6.3170 C.3       8 GLP5        0.0000 
     33 Zn         20.7425  -66.7005   -6.1055 Zn        3 ZIC7        0.0000 
     34 Zn         20.7380  -65.6570   -5.7710 Zn       11 ZIL7        0.0000 
     35 Zn         20.7470  -67.7440   -6.4400 Zn        7 ZIP7        0.0000 
     36 N          21.0455  -65.5885   -4.4220 N.am      2 SEC2        0.0000 
     37 N          20.7380  -65.6570   -5.7710 N.am     10 SEL2        0.0000 
     38 N          21.3530  -65.5200   -3.0730 N.am      6 SEP2        0.0000 
     39 N          19.9665  -63.2580   -4.2640 N.am      2 SEC2        0.0000 
     40 N          19.3630  -63.6960   -5.4050 N.am     10 SEL2        0.0000 
     41 N          20.5700  -62.8200   -3.1230 N.am      6 SEP2        0.0000 
     42 N          18.9875  -62.4515   -5.0520 N.am      2 SEC2        0.0000 
     43 N          18.6120  -61.2070   -4.6990 N.am      6 SEP2        0.0000 
     44 N          16.7705  -67.4595   -9.0655 N.am      2 SEC2        0.0000 
     45 N          17.7750  -66.9930   -8.2090 N.am     10 SEL2        0.0000 
     46 N          15.7660  -67.9260   -9.9220 N.am      6 SEP2        0.0000 
     47 N          18.4715  -68.4385   -8.3225 N.am      2 SEC2        0.0000 
     48 N          19.1680  -69.8840   -8.4360 N.am      6 SEP2        0.0000 
     49 N          17.5175  -65.3885  -10.3505 N.am      2 SEC2        0.0000 
     50 N          18.9740  -65.7350  -10.0240 N.am     10 SEL2        0.0000 
     51 N          16.0610  -65.0420  -10.6770 N.am      6 SEP2        0.0000 
     52 N          19.8880  -65.7350  -11.0895 N.am      2 SEC2        0.0000 
     53 N          20.8020  -65.7350  -12.1550 N.am      6 SEP2        0.0000 
     54 Zn         20.4695  -67.4220   -7.3595 Zn        3 ZIC7        0.0000 
     55 Zn         20.1920  -67.1000   -8.2790 Zn       11 ZIL7        0.0000 
     56 N          19.6800  -68.4920   -8.3575 N.am      2 SEC2        0.0000 
     57 N          20.1920  -67.1000   -8.2790 N.am     10 SEL2        0.0000 
     58 N          21.2650  -67.0070   -9.1575 N.am      2 SEC2        0.0000 
     59 N          22.3380  -66.9140  -10.0360 N.am      6 SEP2        0.0000 
     60 CA         21.4730  -55.9708   -5.2927 C.3       4 GLC5        0.0000 
     61 CA         20.9230  -57.7650   -5.2440 C.3       8 GLP5        0.0000 
     62 CA         22.3540  -55.4378   -3.7483 C.3       4 GLC5        0.0000 
     63 CA         22.6850  -56.6990   -2.1550 C.3       8 GLP5        0.0000 
     64 CA         21.6635  -53.8257   -8.3485 C.3       4 GLC5        0.0000 
     65 CA         21.4260  -55.4750   -8.0640 C.3      12 GLL5        0.0000 
     66 CA         24.3015  -56.2168  -10.1103 C.3       4 GLC5        0.0000 
     67 CA         22.6780  -56.0300   -8.2640 C.3      12 GLL5        0.0000 
     68 CA         25.7700  -55.9780  -11.3490 C.3       8 GLP5        0.0000 
     69 CA         21.8960  -56.7731   -6.4940 C.3       4 GLC5        0.0000 
     70 CA         23.6860  -55.8100   -7.3240 C.3      12 GLL5        0.0000 
     71 CA         18.8307  -58.7680   -9.8885 C.3       4 GLC5        0.0000 
     72 CA         21.0670  -58.4670  -10.1340 C.3      12 GLL5        0.0000 
     73 CA         16.8640  -58.2810   -9.6930 C.3       8 GLP5        0.0000 
     74 CA         20.5052  -61.5640  -10.6167 C.3       4 GLC5        0.0000 
     75 CA         20.5280  -60.0430  -10.0340 C.3      12 GLL5        0.0000 
     76 CA         19.8420  -62.8780  -11.6460 C.3       8 GLP5        0.0000 
     77 CA         22.6347  -60.9325  -10.6107 C.3       4 GLC5        0.0000 
     78 CA         20.2396  -59.3075   -8.2348 C.3       4 GLC5        0.0000 
     79 CA         21.8090  -60.4570   -9.1410 C.3      12 GLL5        0.0000 
     80 CA         22.6870  -59.1895   -6.7803 C.3       4 GLC5        0.0000 
     81 CA         22.7230  -59.4120   -8.9120 C.3      12 GLL5        0.0000 
     82 CA         22.0030  -58.8650   -5.0430 C.3       8 GLP5        0.0000 
     83 CA         23.7360  -60.5645  -10.0757 C.3       4 GLC5        0.0000 
     84 CA         20.6077  -62.5155   -9.9185 C.3       4 GLC5        0.0000 
@<TRIPOS>BOND
@<TRIPOS>SUBSTRUCTURE
     1 ALC1       15 GROUP        1 X    ALC  0     ROOT ALC X 1
     2 SEC2        1 GROUP        1 X    SEC  0     **** SEC X 2
     3 ZIC7       33 GROUP        1 X    ZIC  0     **** ZIC X 5
     4 GLC5        4 GROUP        1 X    GLC  0     **** GLC X 6
     5 ALP1       17 GROUP        1 Y    ALP  0     ROOT ALP Y 8
     6 SEP2        3 GROUP        1 Y    SEP  0     **** SEP Y 9
     7 ZIP7       35 GROUP        1 Y    ZIP  0     **** ZIP Y 12
     8 GLP5        6 GROUP        1 Y    GLP  0     **** GLP Y 13
     9 ALL1       16 GROUP        1 Z    ALL  0     ROOT ALL Z 15
    10 SEL2        2 GROUP        1 Z    SEL  0     **** SEL Z 16
    11 ZIL7       34 GROUP        1 Z    ZIL  0     **** ZIL Z 19
    12 GLL5        5 GROUP        1 Z    GLL  0     **** GLL Z 20
@<TRIPOS>SET

