#    Name: 2vk4_TPP_3_ligand
#    Modification time : Tue Mar 25 01:58:36 2014

@<TRIPOS>MOLECULE
2vk4_TPP_3_ligand
   42    43     1     0     0
SMALL
NO_CHARGES


@<TRIPOS>ATOM
      1 N1'        23.4090  -55.0880   -6.1850 N.ar      1 TPP600      0.0000 
      2 C2'        22.1590  -54.5640   -5.9640 C.ar      1 TPP600      0.0000 
      3 CM2        21.8870  -53.7890   -4.7190 C.3       1 TPP600      0.0000 
      4 N3'        21.1560  -54.7590   -6.8970 N.ar      1 TPP600      0.0000 
      5 C4'        21.4260  -55.4750   -8.0640 C.ar      1 TPP600      0.0000 
      6 N4'        20.4570  -55.6190   -8.9840 N.pl3     1 TPP600      0.0000 
      7 C5'        22.6780  -56.0300   -8.2640 C.ar      1 TPP600      0.0000 
      8 C6'        23.6860  -55.8100   -7.3240 C.ar      1 TPP600      0.0000 
      9 C7'        22.9880  -56.8810   -9.4790 C.3       1 TPP600      0.0000 
     10 N3         22.2740  -58.2160   -9.4820 N.pl3     1 TPP600      0.0000 
     11 C2         21.0670  -58.4670  -10.1340 C.2       1 TPP600      0.0000 
     12 S1         20.5280  -60.0430  -10.0340 S.3       1 TPP600      0.0000 
     13 C5         21.8090  -60.4570   -9.1410 C.2       1 TPP600      0.0000 
     14 C4         22.7230  -59.4120   -8.9120 C.2       1 TPP600      0.0000 
     15 CM4        24.0190  -59.6160   -8.1230 C.3       1 TPP600      0.0000 
     16 C6         21.8990  -61.9400   -8.7000 C.3       1 TPP600      0.0000 
     17 C7         20.8480  -62.3660   -7.6820 C.3       1 TPP600      0.0000 
     18 O7         21.0490  -63.7310   -7.3740 O.3       1 TPP600      0.0000 
     19 PA         20.0100  -64.5680   -6.4460 P.3       1 TPP600      0.0000 
     20 O1A        20.7380  -65.6570   -5.7710 O.co2     1 TPP600      0.0000 
     21 O2A        19.3630  -63.6960   -5.4050 O.co2     1 TPP600      0.0000 
     22 O3A        18.9550  -64.9520   -7.6120 O.3       1 TPP600      0.0000 
     23 PB         18.9600  -66.2170   -8.6080 P.3       1 TPP600      0.0000 
     24 O1B        17.7750  -66.9930   -8.2090 O.co2     1 TPP600      0.0000 
     25 O2B        18.9740  -65.7350  -10.0240 O.co2     1 TPP600      0.0000 
     26 O3B        20.1920  -67.1000   -8.2790 O.co2     1 TPP600      0.0000 
     27 H          20.7055  -56.1264   -9.8091 H         1 TPP600      0.0000 
     28 H          19.5740  -55.2059   -8.7613 H         1 TPP600      0.0000 
     29 H          24.6267  -56.1883   -7.4891 H         1 TPP600      0.0000 
     30 H          24.0768  -57.0540   -9.5287 H         1 TPP600      0.0000 
     31 H          22.7119  -56.3221  -10.3897 H         1 TPP600      0.0000 
     32 H          20.5005  -57.8843  -10.6272 H         1 TPP600      0.0000 
     33 H          22.9047  -62.1157   -8.2807 H         1 TPP600      0.0000 
     34 H          21.8132  -62.5740   -9.5993 H         1 TPP600      0.0000 
     35 H          19.8642  -62.1823   -8.1222 H         1 TPP600      0.0000 
     36 H          20.9557  -61.7240   -6.8036 H         1 TPP600      0.0000 
     37 H          22.0363  -54.3404   -3.8982 H         1 TPP600      0.0000 
     38 H          22.4787  -52.9863   -4.6445 H         1 TPP600      0.0000 
     39 H          20.9428  -53.4614   -4.6843 H         1 TPP600      0.0000 
     40 H          24.8261  -59.3982   -8.6718 H         1 TPP600      0.0000 
     41 H          24.0532  -59.0366   -7.3087 H         1 TPP600      0.0000 
     42 H          24.1209  -60.5617   -7.8143 H         1 TPP600      0.0000 
@<TRIPOS>BOND
     1    2    1 ar   
     2    8    1 ar   
     3    3    2 1    
     4    4    2 ar   
     5   37    3 1    
     6   38    3 1    
     7   39    3 1    
     8    5    4 ar   
     9    6    5 1    
    10    7    5 ar   
    11   27    6 1    
    12   28    6 1    
    13    8    7 ar   
    14    9    7 1    
    15   29    8 1    
    16   10    9 1    
    17   30    9 1    
    18   31    9 1    
    19   11   10 2    
    20   14   10 1    
    21   12   11 1    
    22   32   11 1    
    23   13   12 1    
    24   14   13 2    
    25   16   13 1    
    26   15   14 1    
    27   40   15 1    
    28   41   15 1    
    29   42   15 1    
    30   17   16 1    
    31   33   16 1    
    32   34   16 1    
    33   18   17 1    
    34   35   17 1    
    35   36   17 1    
    36   19   18 1    
    37   20   19 ar   
    38   21   19 ar   
    39   22   19 1    
    40   23   22 1    
    41   24   23 ar   
    42   25   23 ar   
    43   26   23 ar   
@<TRIPOS>SUBSTRUCTURE
     1 TPP600      1 GROUP   
@<TRIPOS>SET

