#    Name: 2uym_K03_1_INTS_M
#    Modification time : Tue Mar 25 00:27:41 2014

@<TRIPOS>MOLECULE
2uym_K03_1_INTS_M
   80     0     3     0     0
SMALL
NO_CHARGES


@<TRIPOS>ATOM
      1 CA         34.9380   14.6400   14.6495 C.3       1 GLC5        0.0000 
      2 CA         33.3590   13.4870   14.5000 C.3       3 GLL5        0.0000 
      3 CA         36.5170   15.7930   14.7990 C.3       2 GLP5        0.0000 
      4 CA         33.3005   12.7430   12.7775 C.3       1 GLC5        0.0000 
      5 CA         33.2420   11.9990   11.0550 C.3       2 GLP5        0.0000 
      6 CA         35.4710   13.6795   15.8400 C.3       1 GLC5        0.0000 
      7 CA         33.6980   12.5870   15.9980 C.3       3 GLL5        0.0000 
      8 CA         37.2440   14.7720   15.6820 C.3       2 GLP5        0.0000 
      9 CA         28.7800   13.0995    9.4585 C.3       1 GLC5        0.0000 
     10 CA         28.3580   13.6670   11.3060 C.3       3 GLL5        0.0000 
     11 CA         29.2020   12.5320    7.6110 C.3       2 GLP5        0.0000 
     12 CA         29.7145   12.3980   10.9975 C.3       1 GLC5        0.0000 
     13 CA         31.0710   11.1290   10.6890 C.3       2 GLP5        0.0000 
     14 CA         29.9805   14.8850   10.5395 C.3       1 GLC5        0.0000 
     15 CA         31.6030   16.1030    9.7730 C.3       2 GLP5        0.0000 
     16 CA         25.1825   18.5970   12.6695 C.3       1 GLC5        0.0000 
     17 CA         25.6250   16.6670   11.7970 C.3       3 GLL5        0.0000 
     18 CA         24.7400   20.5270   13.5420 C.3       2 GLP5        0.0000 
     19 CA         26.1725   18.9130    7.9540 C.3       1 GLC5        0.0000 
     20 CA         26.2900   17.7950    9.6270 C.3       3 GLL5        0.0000 
     21 CA         26.0550   20.0310    6.2810 C.3       2 GLP5        0.0000 
     22 CA         27.9730   18.6525    9.6970 C.3       1 GLC5        0.0000 
     23 CA         29.6560   19.5100    9.7670 C.3       2 GLP5        0.0000 
     24 CA         25.6490   19.6045    9.7355 C.3       1 GLC5        0.0000 
     25 CA         25.0080   21.4140    9.8440 C.3       2 GLP5        0.0000 
     26 CA         26.5855   16.6815    7.8310 C.3       1 GLC5        0.0000 
     27 CA         26.8810   15.5680    6.0350 C.3       2 GLP5        0.0000 
     28 CA         24.4825   19.5350   10.0655 C.3       1 GLC5        0.0000 
     29 CA         23.9570   17.6560   10.2870 C.3       3 GLL5        0.0000 
     30 CA         24.3485   19.0915   11.9145 C.3       1 GLC5        0.0000 
     31 CA         22.4515   18.1330   11.2160 C.3       1 GLC5        0.0000 
     32 CA         20.9460   18.6100   12.1450 C.3       2 GLP5        0.0000 
     33 CA         23.9935   16.5235    8.2130 C.3       1 GLC5        0.0000 
     34 CA         25.1390   15.5680    9.5210 C.3       3 GLL5        0.0000 
     35 CA         22.8480   17.4790    6.9050 C.3       2 GLP5        0.0000 
     36 CA         25.4900   15.1115    7.6610 C.3       1 GLC5        0.0000 
     37 CA         25.8410   14.6550    5.8010 C.3       2 GLP5        0.0000 
     38 CA         26.3395   12.9840    8.7145 C.3       1 GLC5        0.0000 
     39 CA         26.4380   14.7300    9.5160 C.3       3 GLL5        0.0000 
     40 CA         26.2410   11.2380    7.9130 C.3       2 GLP5        0.0000 
     41 CA         26.6595   15.1490    7.7755 C.3       1 GLC5        0.0000 
     42 CA         29.4990   20.3335   13.2295 C.3       1 GLC5        0.0000 
     43 CA         29.6060   18.6120   13.8560 C.3       3 GLL5        0.0000 
     44 CA         29.3920   22.0550   12.6030 C.3       2 GLP5        0.0000 
     45 CA         27.7630   19.4000   14.1595 C.3       1 GLC5        0.0000 
     46 CA         25.9200   20.1880   14.4630 C.3       2 GLP5        0.0000 
     47 CA         27.0360   18.7550   15.4240 C.3       1 GLC5        0.0000 
     48 CA         28.1520   17.3220   16.3850 C.3       3 GLL5        0.0000 
     49 CA         30.4725   16.2625   18.5170 C.3       1 GLC5        0.0000 
     50 CA         29.2960   16.9990   17.3190 C.3       3 GLL5        0.0000 
     51 CA         31.6490   15.5260   19.7150 C.3       2 GLP5        0.0000 
     52 CA         31.7990   12.0672   13.4730 C.3       1 GLC5        0.0000 
     53 CA         31.3110   12.5740   15.8260 C.3       3 GLL5        0.0000 
     54 CA         32.1520   11.2000   11.6970 C.3       2 GLP5        0.0000 
     55 CA         33.8107   11.1205   14.9605 C.3       1 GLC5        0.0000 
     56 CA         34.0930    9.2040   14.6720 C.3       2 GLP5        0.0000 
     57 CA         34.6100   11.7895   17.2955 C.3       1 GLC5        0.0000 
     58 CA         32.4640   12.2050   16.5280 C.3       3 GLL5        0.0000 
     59 CA         36.1390   11.1830   18.3280 C.3       2 GLP5        0.0000 
     60 CA         30.3702   11.7718   17.5650 C.3       1 GLC5        0.0000 
     61 CA         28.8530   11.1540   18.9530 C.3       2 GLP5        0.0000 
     62 CA         32.3492   10.6367   15.7705 C.3       1 GLC5        0.0000 
     63 CA         32.8110    8.8840   15.3640 C.3       2 GLP5        0.0000 
     64 CA         26.0015   13.4642   11.4860 C.3       1 GLC5        0.0000 
     65 CA         27.0370   14.7930   10.9010 C.3       3 GLL5        0.0000 
     66 CA         25.1250   11.7160   11.5360 C.3       2 GLP5        0.0000 
     67 CA         28.2547   15.8302    9.2112 C.3       1 GLC5        0.0000 
     68 CA         29.7720   16.8990    8.2140 C.3       2 GLP5        0.0000 
     69 CA         23.8575   17.4892    8.5156 C.3       1 GLC5        0.0000 
     70 CA         25.4567   13.4325   10.5273 C.3       1 GLC5        0.0000 
     71 CA         26.9844   13.0203   12.6834 C.3       1 GLC5        0.0000 
     72 CA         27.5330   15.3930   13.1200 C.3       3 GLL5        0.0000 
     73 CA         26.0000   11.3380   12.7450 C.3       2 GLP5        0.0000 
     74 CA         31.5413   17.7177   14.2577 C.3       1 GLC5        0.0000 
     75 CA         29.6470   17.2030   14.4030 C.3       3 GLL5        0.0000 
     76 CA         33.4560   17.5280   14.3860 C.3       2 GLP5        0.0000 
     77 CA         30.0068   18.0823   12.2177 C.3       1 GLC5        0.0000 
     78 CA         30.3870   18.2570   10.3060 C.3       2 GLP5        0.0000 
     79 CA         32.4829   13.8871   17.1247 C.3       1 GLC5        0.0000 
     80 CA         32.4800   15.0850   18.5150 C.3       2 GLP5        0.0000 
@<TRIPOS>BOND
@<TRIPOS>SUBSTRUCTURE
     1 GLC5        1 GROUP        1 X    GLC  0     ROOT GLC X 6
     2 GLP5        3 GROUP        1 Y    GLP  0     ROOT GLP Y 13
     3 GLL5        2 GROUP        1 Z    GLL  0     ROOT GLL Z 20
@<TRIPOS>SET

