#    Name: 2uym_K03_1_ligand
#    Modification time : Tue Mar 25 00:27:41 2014

@<TRIPOS>MOLECULE
2uym_K03_1_ligand
   52    54     1     0     0
SMALL
NO_CHARGES


@<TRIPOS>ATOM
      1 O12        31.1390   14.3270   12.6180 O.2       1 K03604      0.0000 
      2 C11        30.6700   13.8940   13.6450 C.2       1 K03604      0.0000 
      3 C13        31.5810   13.2950   14.6720 C.2       1 K03604      0.0000 
      4 S17        33.3590   13.4870   14.5000 S.3       1 K03604      0.0000 
      5 C16        33.6980   12.5870   15.9980 C.2       1 K03604      0.0000 
      6 C15        32.4640   12.2050   16.5280 C.2       1 K03604      0.0000 
      7 C14        31.3110   12.5740   15.8260 C.2       1 K03604      0.0000 
      8 N10        29.3480   13.9360   13.8890 N.am      1 K03604      0.0000 
      9 C9         28.4510   14.3570   12.9410 C.2       1 K03604      0.0000 
     10 S18        28.3580   13.6670   11.3060 S.3       1 K03604      0.0000 
     11 C19        27.0370   14.7930   10.9010 C.2       1 K03604      0.0000 
     12 C26        26.7190   15.6320   11.9710 C.2       1 K03604      0.0000 
     13 C25        25.6250   16.6670   11.7970 C.3       1 K03604      0.0000 
     14 C22        25.2640   16.8910   10.3040 C.3       1 K03604      0.0000 
     15 C24        26.2900   17.7950    9.6270 C.3       1 K03604      0.0000 
     16 C23        23.9570   17.6560   10.2870 C.3       1 K03604      0.0000 
     17 C21        25.1390   15.5680    9.5210 C.3       1 K03604      0.0000 
     18 C20        26.4380   14.7300    9.5160 C.3       1 K03604      0.0000 
     19 C8         27.5330   15.3930   13.1200 C.2       1 K03604      0.0000 
     20 C6         27.3970   16.1320   14.4270 C.2       1 K03604      0.0000 
     21 O7         26.3360   16.0160   15.0300 O.2       1 K03604      0.0000 
     22 N3         28.3660   16.8550   15.0080 N.am      1 K03604      0.0000 
     23 C4         29.6470   17.2030   14.4030 C.3       1 K03604      0.0000 
     24 C5         29.6060   18.6120   13.8560 C.3       1 K03604      0.0000 
     25 C2         28.1520   17.3220   16.3850 C.3       1 K03604      0.0000 
     26 C1         29.2960   16.9990   17.3190 C.3       1 K03604      0.0000 
     27 H          34.5530   12.5118   16.1866 H         1 K03604      0.0000 
     28 H          32.4040   11.6801   17.3889 H         1 K03604      0.0000 
     29 H          30.4062   12.3431   16.1250 H         1 K03604      0.0000 
     30 H          28.9808   13.6402   14.8290 H         1 K03604      0.0000 
     31 H          25.9479   17.6217   12.2201 H         1 K03604      0.0000 
     32 H          24.7235   16.3451   12.3246 H         1 K03604      0.0000 
     33 H          24.8599   15.7931    8.4846 H         1 K03604      0.0000 
     34 H          24.3335   14.9684    9.9620 H         1 K03604      0.0000 
     35 H          26.1938   13.7127    9.2617 H         1 K03604      0.0000 
     36 H          27.1193   15.1502    8.7960 H         1 K03604      0.0000 
     37 H          29.8875   16.5166   13.5823 H         1 K03604      0.0000 
     38 H          30.4550   17.1385   15.1416 H         1 K03604      0.0000 
     39 H          27.2255   16.8742   16.7988 H         1 K03604      0.0000 
     40 H          27.9924   18.4195   16.3939 H         1 K03604      0.0000 
     41 H          27.2090   17.4019    9.6578 H         1 K03604      0.0000 
     42 H          26.0699   17.9505    8.6640 H         1 K03604      0.0000 
     43 H          26.3403   18.6926   10.0648 H         1 K03604      0.0000 
     44 H          24.0362   18.5370   10.7535 H         1 K03604      0.0000 
     45 H          23.6493   17.8448    9.3544 H         1 K03604      0.0000 
     46 H          23.2240   17.1490   10.7406 H         1 K03604      0.0000 
     47 H          30.4742   18.8717   13.4332 H         1 K03604      0.0000 
     48 H          28.8969   18.7194   13.1591 H         1 K03604      0.0000 
     49 H          29.4166   19.2832   14.5726 H         1 K03604      0.0000 
     50 H          30.1534   17.4130   17.0132 H         1 K03604      0.0000 
     51 H          29.1239   17.3321   18.2461 H         1 K03604      0.0000 
     52 H          29.4538   16.0138   17.3861 H         1 K03604      0.0000 
@<TRIPOS>BOND
     1    2    1 2    
     2    3    2 1    
     3    8    2 am   
     4    4    3 1    
     5    7    3 2    
     6    5    4 1    
     7    6    5 2    
     8   27    5 1    
     9    7    6 1    
    10   28    6 1    
    11   29    7 1    
    12    9    8 1    
    13   30    8 1    
    14   10    9 1    
    15   19    9 2    
    16   11   10 1    
    17   12   11 2    
    18   18   11 1    
    19   13   12 1    
    20   19   12 1    
    21   14   13 1    
    22   31   13 1    
    23   32   13 1    
    24   15   14 1    
    25   16   14 1    
    26   17   14 1    
    27   41   15 1    
    28   42   15 1    
    29   43   15 1    
    30   44   16 1    
    31   45   16 1    
    32   46   16 1    
    33   18   17 1    
    34   33   17 1    
    35   34   17 1    
    36   35   18 1    
    37   36   18 1    
    38   20   19 1    
    39   21   20 2    
    40   22   20 am   
    41   23   22 1    
    42   25   22 1    
    43   24   23 1    
    44   37   23 1    
    45   38   23 1    
    46   47   24 1    
    47   48   24 1    
    48   49   24 1    
    49   26   25 1    
    50   39   25 1    
    51   40   25 1    
    52   50   26 1    
    53   51   26 1    
    54   52   26 1    
@<TRIPOS>SUBSTRUCTURE
     1 K03604      1 GROUP   
@<TRIPOS>SET

