#    Name: 3ma3_01I_1_INTS_M
#    Modification time : Mon Mar 24 22:53:11 2014

@<TRIPOS>MOLECULE
3ma3_01I_1_INTS_M
   56     0     9     0     0
SMALL
NO_CHARGES


@<TRIPOS>ATOM
      1 CA        -23.5600   40.1895    1.5790 C.3       3 GLC5        0.0000 
      2 CA        -21.8310   39.4900    0.7930 C.3       9 GLL5        0.0000 
      3 CA        -25.2890   40.8890    2.3650 C.3       6 GLP5        0.0000 
      4 CA        -19.4670   35.6345    4.2920 C.3       3 GLC5        0.0000 
      5 CA        -19.1090   36.8610    2.4800 C.3       9 GLL5        0.0000 
      6 CA        -19.8250   34.4080    6.1040 C.3       6 GLP5        0.0000 
      7 CA        -19.1215   38.5350    4.8150 C.3       3 GLC5        0.0000 
      8 CA        -19.7900   37.7350    3.2900 C.3       9 GLL5        0.0000 
      9 CA        -18.4530   39.3350    6.3400 C.3       6 GLP5        0.0000 
     10 CA        -20.3430   37.0775    5.2255 C.3       3 GLC5        0.0000 
     11 CA        -20.8960   36.4200    7.1610 C.3       6 GLP5        0.0000 
     12 CA        -19.7645   40.1425    3.9100 C.3       3 GLC5        0.0000 
     13 CA        -20.6840   38.6200    2.6980 C.3       9 GLL5        0.0000 
     14 CA        -18.8450   41.6650    5.1220 C.3       6 GLP5        0.0000 
     15 CA        -23.3220   37.7150   -2.7645 C.3       3 GLC5        0.0000 
     16 CA        -22.6010   39.6310   -2.7600 C.3       9 GLL5        0.0000 
     17 CA        -24.0430   35.7990   -2.7690 C.3       6 GLP5        0.0000 
     18 CA        -17.9280   33.2315    2.6865 C.3       3 GLC5        0.0000 
     19 CA        -17.8210   35.2640    1.7430 C.3       9 GLL5        0.0000 
     20 CA        -18.0350   31.1990    3.6300 C.3       6 GLP5        0.0000 
     21 NZ        -15.9300   32.6670    3.0365 N.4       2 LYC4        0.0000 
     22 NZ        -16.2390   34.1050    3.0240 N.4       8 LYL4        0.0000 
     23 NZ        -15.6210   31.2290    3.0490 N.4       5 LYP4        0.0000 
     24 N         -15.9300   32.6670    3.0365 N.am      1 SEC2        0.0000 
     25 N         -16.2390   34.1050    3.0240 N.am      7 SEL2        0.0000 
     26 N         -15.6210   31.2290    3.0490 N.am      4 SEP2        0.0000 
     27 NZ        -16.1465   32.3075    2.0005 N.4       2 LYC4        0.0000 
     28 NZ        -16.6720   33.3860    0.9520 N.4       8 LYL4        0.0000 
     29 N         -15.8395   32.2560    0.5510 N.am      1 SEC2        0.0000 
     30 N         -16.6720   33.3860    0.9520 N.am      7 SEL2        0.0000 
     31 N         -15.0070   31.1260    0.1500 N.am      4 SEP2        0.0000 
     32 CA        -20.3255   40.3768    0.4703 C.3       3 GLC5        0.0000 
     33 CA        -18.7220   41.2910    0.8350 C.3       6 GLP5        0.0000 
     34 CA        -22.7698   37.2485   -0.7408 C.3       3 GLC5        0.0000 
     35 CA        -21.3520   38.5320   -1.3440 C.3       9 GLL5        0.0000 
     36 CA        -24.6430   36.4170   -0.3930 C.3       6 GLP5        0.0000 
     37 CA        -19.8092   39.6855   -0.1268 C.3       3 GLC5        0.0000 
     38 CA        -19.6478   39.7087    0.8805 C.3       3 GLC5        0.0000 
     39 CA        -20.2320   37.6640    0.5230 C.3       9 GLL5        0.0000 
     40 CA        -20.7550   35.4429    1.4285 C.3       3 GLC5        0.0000 
     41 CA        -22.0640   33.8380    1.2020 C.3       6 GLP5        0.0000 
     42 CA        -21.4082   36.9535    3.2480 C.3       3 GLC5        0.0000 
     43 CA        -23.3670   36.6090    3.6110 C.3       6 GLP5        0.0000 
     44 CA        -17.7042   38.2080    2.7550 C.3       3 GLC5        0.0000 
     45 CA        -15.9590   39.1180    2.6250 C.3       6 GLP5        0.0000 
     46 CA        -19.4795   39.7343    1.9145 C.3       3 GLC5        0.0000 
     47 CA        -22.1977   37.7194    2.7453 C.3       3 GLC5        0.0000 
     48 CA        -23.5195   38.1149   -0.5441 C.3       3 GLC5        0.0000 
     49 CA        -22.5360   41.5175   -1.9478 C.3       3 GLC5        0.0000 
     50 CA        -22.0270   39.4350   -0.5820 C.3       9 GLL5        0.0000 
     51 CA        -22.5490   43.3200   -1.9960 C.3       6 GLP5        0.0000 
     52 CA        -19.2743   33.8785    0.6535 C.3       3 GLC5        0.0000 
     53 CA        -18.4880   35.7740    0.6190 C.3       9 GLL5        0.0000 
     54 CA        -20.3940   32.2380    0.1260 C.3       6 GLP5        0.0000 
     55 CA        -16.9855   36.8459    0.6028 C.3       3 GLC5        0.0000 
     56 CA        -15.6050   37.9150   -0.1050 C.3       6 GLP5        0.0000 
@<TRIPOS>BOND
@<TRIPOS>SUBSTRUCTURE
     1 SEC2       24 GROUP        1 X    SEC  0     ROOT SEC X 2
     2 LYC4       21 GROUP        1 X    LYC  0     **** LYC X 4
     3 GLC5        1 GROUP        1 X    GLC  0     **** GLC X 6
     4 SEP2       26 GROUP        1 Y    SEP  0     ROOT SEP Y 9
     5 LYP4       23 GROUP        1 Y    LYP  0     **** LYP Y 11
     6 GLP5        3 GROUP        1 Y    GLP  0     **** GLP Y 13
     7 SEL2       25 GROUP        1 Z    SEL  0     ROOT SEL Z 16
     8 LYL4       22 GROUP        1 Z    LYL  0     **** LYL Z 18
     9 GLL5        2 GROUP        1 Z    GLL  0     **** GLL Z 20
@<TRIPOS>SET

