#    Name: 3ma3_01I_1_ligand
#    Modification time : Mon Mar 24 22:53:11 2014

@<TRIPOS>MOLECULE
3ma3_01I_1_ligand
   28    31     1     0     0
SMALL
NO_CHARGES


@<TRIPOS>ATOM
      1 CAA       -21.8310   39.4900    0.7930 C.ar      1 01I313      0.0000 
      2 CAB       -22.0270   39.4350   -0.5820 C.ar      1 01I313      0.0000 
      3 CAC       -21.3520   38.5320   -1.3440 C.ar      1 01I313      0.0000 
      4 CAD       -20.4410   37.6280   -0.8330 C.ar      1 01I313      0.0000 
      5 CAE       -20.2320   37.6640    0.5230 C.ar      1 01I313      0.0000 
      6 CAF       -20.9150   38.5890    1.3290 C.ar      1 01I313      0.0000 
      7 CAG       -19.3340   36.8050    1.1370 C.ar      1 01I313      0.0000 
      8 CAH       -19.1090   36.8610    2.4800 C.ar      1 01I313      0.0000 
      9 CAI       -19.7900   37.7350    3.2900 C.ar      1 01I313      0.0000 
     10 CAJ       -20.6840   38.6200    2.6980 C.ar      1 01I313      0.0000 
     11 CAK       -22.8630   40.1630   -1.4960 C.2       1 01I313      0.0000 
     12 CAL       -22.6010   39.6310   -2.7600 C.2       1 01I313      0.0000 
     13 OAM       -21.7460   38.7000   -2.6930 O.3       1 01I313      0.0000 
     14 CAN       -18.4880   35.7740    0.6190 C.2       1 01I313      0.0000 
     15 CAO       -17.8210   35.2640    1.7430 C.2       1 01I313      0.0000 
     16 OAP       -18.1450   35.8740    2.8140 O.3       1 01I313      0.0000 
     17 CAQ       -16.8280   34.1810    1.9150 C.2       1 01I313      0.0000 
     18 CAR       -23.1040   39.8960   -4.1450 C.2       1 01I313      0.0000 
     19 OAS       -22.5000   39.3630   -5.1130 O.co2     1 01I313      0.0000 
     20 OAT       -16.2390   34.1050    3.0240 O.co2     1 01I313      0.0000 
     21 OAU       -16.6720   33.3860    0.9520 O.co2     1 01I313      0.0000 
     22 OAV       -24.0980   40.6420   -4.2990 O.co2     1 01I313      0.0000 
     23 H         -22.3248   40.1462    1.3716 H         1 01I313      0.0000 
     24 H         -19.9553   36.9750   -1.4309 H         1 01I313      0.0000 
     25 H         -19.6499   37.7416    4.2995 H         1 01I313      0.0000 
     26 H         -21.1830   39.3100    3.2853 H         1 01I313      0.0000 
     27 H         -23.4468   40.8409   -1.2694 H         1 01I313      0.0000 
     28 H         -18.4112   35.5169   -0.2554 H         1 01I313      0.0000 
@<TRIPOS>BOND
     1    2    1 ar   
     2    6    1 ar   
     3   23    1 1    
     4    3    2 ar   
     5   11    2 1    
     6    4    3 ar   
     7   13    3 1    
     8    5    4 ar   
     9   24    4 1    
    10    6    5 ar   
    11    7    5 ar   
    12   10    6 ar   
    13    8    7 ar   
    14   14    7 1    
    15    9    8 ar   
    16   16    8 1    
    17   10    9 ar   
    18   25    9 1    
    19   26   10 1    
    20   12   11 2    
    21   27   11 1    
    22   13   12 1    
    23   18   12 1    
    24   15   14 2    
    25   28   14 1    
    26   16   15 1    
    27   17   15 1    
    28   20   17 ar   
    29   21   17 ar   
    30   19   18 ar   
    31   22   18 ar   
@<TRIPOS>SUBSTRUCTURE
     1 01I313      1 GROUP   
@<TRIPOS>SET

