#    Name: 4hfp_15U_2_INTS_M
#    Modification time : Tue Mar 25 00:58:34 2014

@<TRIPOS>MOLECULE
4hfp_15U_2_INTS_M
   51     0     9     0     0
SMALL
NO_CHARGES


@<TRIPOS>ATOM
      1 CA         49.2215  -36.3350   -4.5845 C.3       3 GLC5        0.0000 
      2 CA         50.6570  -35.0070   -5.2080 C.3       9 GLL5        0.0000 
      3 CA         47.7860  -37.6630   -3.9610 C.3       6 GLP5        0.0000 
      4 CA         49.1320  -35.0785   -6.6675 C.3       3 GLC5        0.0000 
      5 CA         47.6070  -35.1500   -8.1270 C.3       6 GLP5        0.0000 
      6 CA         52.7045  -34.1875   -1.5980 C.3       3 GLC5        0.0000 
      7 CA         52.4640  -35.3210   -3.4900 C.3       9 GLL5        0.0000 
      8 CA         52.9450  -33.0540    0.2940 C.3       6 GLP5        0.0000 
      9 CA         49.5600  -34.8155   -0.5870 C.3       3 GLC5        0.0000 
     10 CA         50.1210  -34.8360   -2.7350 C.3       9 GLL5        0.0000 
     11 CA         48.9990  -34.7950    1.5610 C.3       6 GLP5        0.0000 
     12 CA         48.9535  -36.2495   -3.3480 C.3       3 GLC5        0.0000 
     13 O          51.4430  -32.4665   -8.1010 O.2       1 ALC1        0.0000 
     14 O          52.9000  -32.6790   -8.5490 O.2       7 ALL1        0.0000 
     15 O          49.9860  -32.2540   -7.6530 O.2       4 ALP1        0.0000 
     16 N          50.8350  -30.7085   -6.2240 N.am      2 SEC2        0.0000 
     17 N          52.3380  -31.2200   -6.2320 N.am      8 SEL2        0.0000 
     18 N          49.3320  -30.1970   -6.2160 N.am      5 SEP2        0.0000 
     19 CA         50.1990  -30.1070   -8.1280 C.3       3 GLC5        0.0000 
     20 CA         52.0070  -29.7030   -8.9830 C.3       9 GLL5        0.0000 
     21 CA         48.3910  -30.5110   -7.2730 C.3       6 GLP5        0.0000 
     22 CA         52.7715  -26.8300  -10.2795 C.3       3 GLC5        0.0000 
     23 CA         52.1960  -28.2260   -8.6670 C.3       9 GLL5        0.0000 
     24 CA         53.3470  -25.4340  -11.8920 C.3       6 GLP5        0.0000 
     25 O          50.8010  -26.4665  -10.3055 O.2       1 ALC1        0.0000 
     26 O          51.0270  -27.4190   -8.9760 O.2       7 ALL1        0.0000 
     27 O          50.5750  -25.5140  -11.6350 O.2       4 ALP1        0.0000 
     28 O          48.0815  -26.0045   -9.5790 O.2       1 ALC1        0.0000 
     29 O          49.0970  -26.3610   -8.2830 O.2       7 ALL1        0.0000 
     30 O          47.0660  -25.6480  -10.8750 O.2       4 ALP1        0.0000 
     31 CA         54.2330  -30.7600   -1.8110 C.3       3 GLC5        0.0000 
     32 CA         54.9830  -30.8730   -3.6320 C.3       9 GLL5        0.0000 
     33 CA         53.4830  -30.6470    0.0100 C.3       6 GLP5        0.0000 
     34 CA         52.3550  -30.2105   -4.1180 C.3       3 GLC5        0.0000 
     35 CA         54.2850  -29.9910   -4.6630 C.3       9 GLL5        0.0000 
     36 CA         50.4250  -30.4300   -3.5730 C.3       6 GLP5        0.0000 
     37 CA         56.9730  -30.0405   -2.4305 C.3       3 GLC5        0.0000 
     38 CA         57.1850  -31.8900   -2.9610 C.3       9 GLL5        0.0000 
     39 CA         56.7610  -28.1910   -1.9000 C.3       6 GLP5        0.0000 
     40 CA         57.4835  -33.5325   -2.2040 C.3       3 GLC5        0.0000 
     41 CA         57.7820  -35.1750   -1.4470 C.3       6 GLP5        0.0000 
     42 CA         49.2352  -33.6669   -3.9992 C.3       3 GLC5        0.0000 
     43 CA         51.1630  -34.5920   -3.8200 C.3       9 GLL5        0.0000 
     44 CA         47.9550  -32.5160   -4.3740 C.3       6 GLP5        0.0000 
     45 CA         57.8633  -31.9843   -6.2817 C.3       3 GLC5        0.0000 
     46 CA         55.8830  -30.6490   -6.4290 C.3       9 GLL5        0.0000 
     47 CA         59.4390  -32.9300   -6.6580 C.3       6 GLP5        0.0000 
     48 CA         58.5645  -31.7948   -4.6525 C.3       3 GLC5        0.0000 
     49 CA         56.4750  -30.9670   -3.9410 C.3       9 GLL5        0.0000 
     50 CA         60.2990  -32.1610   -5.8540 C.3       6 GLP5        0.0000 
     51 CA         55.8840  -29.3233   -3.0624 C.3       3 GLC5        0.0000 
@<TRIPOS>BOND
@<TRIPOS>SUBSTRUCTURE
     1 ALC1       13 GROUP        1 X    ALC  0     ROOT ALC X 1
     2 SEC2       16 GROUP        1 X    SEC  0     **** SEC X 2
     3 GLC5        1 GROUP        1 X    GLC  0     **** GLC X 6
     4 ALP1       15 GROUP        1 Y    ALP  0     ROOT ALP Y 8
     5 SEP2       18 GROUP        1 Y    SEP  0     **** SEP Y 9
     6 GLP5        3 GROUP        1 Y    GLP  0     **** GLP Y 13
     7 ALL1       14 GROUP        1 Z    ALL  0     ROOT ALL Z 15
     8 SEL2       17 GROUP        1 Z    SEL  0     **** SEL Z 16
     9 GLL5        2 GROUP        1 Z    GLL  0     **** GLL Z 20
@<TRIPOS>SET

