#    Name: 4hfp_15U_2_ligand
#    Modification time : Tue Mar 25 00:58:34 2014

@<TRIPOS>MOLECULE
4hfp_15U_2_ligand
   70    72     1     0     0
SMALL
NO_CHARGES


@<TRIPOS>ATOM
      1 S          53.5530  -34.1490   -8.5130 S.o2      1 15U402      0.0000 
      2 O1         52.5920  -35.1250   -8.9620 O.2       1 15U402      0.0000 
      3 O2         54.7040  -34.1940   -9.3820 O.2       1 15U402      0.0000 
      4 C1         50.6570  -35.0070   -5.2080 C.3       1 15U402      0.0000 
      5 C2         51.1630  -34.5920   -3.8200 C.3       1 15U402      0.0000 
      6 C3         52.4640  -35.3210   -3.4900 C.3       1 15U402      0.0000 
      7 C4         53.4600  -35.0340   -4.5920 C.ar      1 15U402      0.0000 
      8 C5         54.8300  -35.0270   -4.3370 C.ar      1 15U402      0.0000 
      9 C6         55.7480  -34.7630   -5.3550 C.ar      1 15U402      0.0000 
     10 C7         55.3490  -34.4860   -6.6650 C.ar      1 15U402      0.0000 
     11 C8         53.9970  -34.4700   -7.0160 C.ar      1 15U402      0.0000 
     12 C9         52.9740  -34.7510   -5.9720 C.ar      1 15U402      0.0000 
     13 C10        50.1210  -34.8360   -2.7350 C.3       1 15U402      0.0000 
     14 N          51.6450  -34.7430   -6.2510 N.3       1 15U402      0.0000 
     15 N1         52.9000  -32.6790   -8.5490 N.pl3     1 15U402      0.0000 
     16 CA         53.6650  -31.4970   -8.1680 C.3       1 15U402      0.0000 
     17 C          53.4520  -31.0890   -6.7210 C.2       1 15U402      0.0000 
     18 O          52.3380  -31.2200   -6.2320 O.2       1 15U402      0.0000 
     19 CB         53.3690  -30.3670   -9.1600 C.3       1 15U402      0.0000 
     20 CG         52.0070  -29.7030   -8.9830 C.3       1 15U402      0.0000 
     21 CD         52.1960  -28.2260   -8.6670 C.3       1 15U402      0.0000 
     22 NE         51.0270  -27.4190   -8.9760 N.pl3     1 15U402      0.0000 
     23 CZ         50.3520  -26.7460   -8.0400 C.cat     1 15U402      0.0000 
     24 NH1        49.0970  -26.3610   -8.2830 N.pl3     1 15U402      0.0000 
     25 NH2        50.8850  -26.4700   -6.9290 N.pl3     1 15U402      0.0000 
     26 N2         54.4700  -30.6040   -5.9850 N.am      1 15U402      0.0000 
     27 C11        55.8830  -30.6490   -6.4290 C.3       1 15U402      0.0000 
     28 C21        56.6920  -31.4280   -5.3820 C.3       1 15U402      0.0000 
     29 C31        56.4750  -30.9670   -3.9410 C.3       1 15U402      0.0000 
     30 C41        54.9830  -30.8730   -3.6320 C.3       1 15U402      0.0000 
     31 C51        54.2850  -29.9910   -4.6630 C.3       1 15U402      0.0000 
     32 C61        56.5530  -29.3170   -6.6860 C.2       1 15U402      0.0000 
     33 O11        56.2770  -28.3330   -5.9630 O.co2     1 15U402      0.0000 
     34 O21        57.3860  -29.2410   -7.6190 O.co2     1 15U402      0.0000 
     35 C71        57.1850  -31.8900   -2.9610 C.3       1 15U402      0.0000 
     36 H          49.7232  -34.4589   -5.4054 H         1 15U402      0.0000 
     37 H          50.4044  -36.0776   -5.1698 H         1 15U402      0.0000 
     38 H          51.3815  -33.5205   -3.8498 H         1 15U402      0.0000 
     39 H          52.2737  -36.3823   -3.4348 H         1 15U402      0.0000 
     40 H          52.8459  -34.9594   -2.5471 H         1 15U402      0.0000 
     41 H          55.1723  -35.2198   -3.3812 H         1 15U402      0.0000 
     42 H          56.7657  -34.7727   -5.1307 H         1 15U402      0.0000 
     43 H          56.0640  -34.2903   -7.3841 H         1 15U402      0.0000 
     44 H          51.9522  -32.6415   -8.8458 H         1 15U402      0.0000 
     45 H          54.7488  -31.7336   -8.2899 H         1 15U402      0.0000 
     46 H          53.4415  -30.7695  -10.1871 H         1 15U402      0.0000 
     47 H          54.1580  -29.5983   -9.0668 H         1 15U402      0.0000 
     48 H          51.4769  -30.1824   -8.1674 H         1 15U402      0.0000 
     49 H          51.4351  -29.8066   -9.8986 H         1 15U402      0.0000 
     50 H          53.0793  -27.8666   -9.2318 H         1 15U402      0.0000 
     51 H          52.4593  -28.1377   -7.5941 H         1 15U402      0.0000 
     52 H          50.7435  -27.3963   -9.9823 H         1 15U402      0.0000 
     53 H          48.7266  -26.6079   -9.1785 H         1 15U402      0.0000 
     54 H          48.6401  -25.8603   -7.5477 H         1 15U402      0.0000 
     55 H          51.8433  -26.7354   -6.8227 H         1 15U402      0.0000 
     56 H          50.2982  -26.0123   -6.2611 H         1 15U402      0.0000 
     57 H          55.9468  -31.2507   -7.3556 H         1 15U402      0.0000 
     58 H          57.7647  -31.3422   -5.6283 H         1 15U402      0.0000 
     59 H          56.4325  -32.4983   -5.4591 H         1 15U402      0.0000 
     60 H          56.9034  -29.9671   -3.8416 H         1 15U402      0.0000 
     61 H          54.8471  -30.4461   -2.6420 H         1 15U402      0.0000 
     62 H          54.5475  -31.8683   -3.6558 H         1 15U402      0.0000 
     63 H          53.2329  -29.9277   -4.4091 H         1 15U402      0.0000 
     64 H          54.7278  -29.0020   -4.6292 H         1 15U402      0.0000 
     65 H          49.8671  -35.8013   -2.6743 H         1 15U402      0.0000 
     66 H          50.4538  -34.5632   -1.8323 H         1 15U402      0.0000 
     67 H          49.2803  -34.3219   -2.9051 H         1 15U402      0.0000 
     68 H          58.1714  -31.9161   -3.1234 H         1 15U402      0.0000 
     69 H          57.0515  -31.5992   -2.0136 H         1 15U402      0.0000 
     70 H          56.8519  -32.8305   -3.0286 H         1 15U402      0.0000 
@<TRIPOS>BOND
     1    2    1 2    
     2    3    1 2    
     3   11    1 1    
     4   15    1 1    
     5    5    4 1    
     6   14    4 1    
     7   36    4 1    
     8   37    4 1    
     9    6    5 1    
    10   13    5 1    
    11   38    5 1    
    12    7    6 1    
    13   39    6 1    
    14   40    6 1    
    15    8    7 ar   
    16   12    7 ar   
    17    9    8 ar   
    18   41    8 1    
    19   10    9 ar   
    20   42    9 1    
    21   11   10 ar   
    22   43   10 1    
    23   12   11 ar   
    24   14   12 1    
    25   65   13 1    
    26   66   13 1    
    27   67   13 1    
    28   16   15 1    
    29   44   15 1    
    30   17   16 1    
    31   19   16 1    
    32   45   16 1    
    33   18   17 2    
    34   26   17 am   
    35   20   19 1    
    36   46   19 1    
    37   47   19 1    
    38   21   20 1    
    39   48   20 1    
    40   49   20 1    
    41   22   21 1    
    42   50   21 1    
    43   51   21 1    
    44   23   22 ar   
    45   52   22 1    
    46   24   23 ar   
    47   25   23 ar   
    48   53   24 1    
    49   54   24 1    
    50   55   25 1    
    51   56   25 1    
    52   27   26 1    
    53   31   26 1    
    54   28   27 1    
    55   32   27 1    
    56   57   27 1    
    57   29   28 1    
    58   58   28 1    
    59   59   28 1    
    60   30   29 1    
    61   35   29 1    
    62   60   29 1    
    63   31   30 1    
    64   61   30 1    
    65   62   30 1    
    66   63   31 1    
    67   64   31 1    
    68   33   32 ar   
    69   34   32 ar   
    70   68   35 1    
    71   69   35 1    
    72   70   35 1    
@<TRIPOS>SUBSTRUCTURE
     1 15U402      1 GROUP   
@<TRIPOS>SET

