#    Name: 1NJ5_1_CAVITY_N1_6.mol2
#    Modification time : Mon Mar 10 19:43:18 2014

@<TRIPOS>MOLECULE
1NJ5_1_CAVITY_N1_6.mol2
  121     0     7     0     0
SMALL
NO_CHARGES


@<TRIPOS>ATOM
      1 NZ        -32.7336  -89.7355  -36.3320 N.2       4 LYS4        0.0000 
      2 NZ        -33.6264  -88.2158  -37.5125 N.2       4 LYS4        0.0000 
      3 DU        -32.4904  -89.1767  -37.7027 H         7 CUB7        0.0000 
      4 CZ        -34.5192  -86.6961  -38.6929 C.ar      5 PHE5        0.0000 
      5 CZ        -33.3832  -87.6570  -38.8831 C.ar      5 PHE5        0.0000 
      6 CA        -33.1400  -87.0983  -40.2537 C.3       6 GLY6        0.0000 
      7 DU        -32.0041  -88.0592  -40.4440 H         7 CUB7        0.0000 
      8 CA        -32.8969  -86.5395  -41.6244 C.3       6 GLY6        0.0000 
      9 N         -31.7609  -87.5004  -41.8146 N.2       2 ALA2        0.0000 
     10 NZ        -31.7847  -88.7283  -35.7531 N.2       4 LYS4        0.0000 
     11 O         -32.6774  -87.2086  -36.9335 O.2       2 ALA2        0.0000 
     12 DU        -31.5415  -88.1695  -37.1237 H         7 CUB7        0.0000 
     13 O         -32.4343  -86.6498  -38.3042 O.2       2 ALA2        0.0000 
     14 DU        -31.2983  -87.6108  -38.4944 H         7 CUB7        0.0000 
     15 O         -33.3271  -85.1301  -39.4846 O.2       2 ALA2        0.0000 
     16 DU        -32.1911  -86.0911  -39.6748 H         7 CUB7        0.0000 
     17 DU        -31.0551  -87.0520  -39.8650 H         7 CUB7        0.0000 
     18 N         -29.9192  -88.0130  -40.0552 N.2       2 ALA2        0.0000 
     19 CZ        -31.9479  -85.5323  -41.0455 C.ar      5 PHE5        0.0000 
     20 N         -30.8120  -86.4933  -41.2357 N.2       2 ALA2        0.0000 
     21 N         -29.6760  -87.4542  -41.4259 N.2       2 ALA2        0.0000 
     22 CA        -31.7048  -84.9736  -42.4161 C.3       6 GLY6        0.0000 
     23 N         -30.5688  -85.9345  -42.6063 N.2       2 ALA2        0.0000 
     24 O         -31.9717  -86.7602  -34.9840 O.2       2 ALA2        0.0000 
     25 O         -31.7285  -86.2014  -36.3546 O.2       2 ALA2        0.0000 
     26 O         -30.5926  -87.1624  -36.5448 O.2       2 ALA2        0.0000 
     27 O         -29.4566  -88.1233  -36.7350 O.2       2 ALA2        0.0000 
     28 O         -31.4854  -85.6427  -37.7252 O.2       2 ALA2        0.0000 
     29 N         -30.3494  -86.6036  -37.9154 N.2       2 ALA2        0.0000 
     30 N         -29.2134  -87.5646  -38.1057 N.2       2 ALA2        0.0000 
     31 O         -33.5141  -83.1620  -38.7155 O.2       2 ALA2        0.0000 
     32 O         -32.3781  -84.1230  -38.9057 O.2       2 ALA2        0.0000 
     33 DU        -31.2422  -85.0839  -39.0959 H         7 CUB7        0.0000 
     34 N         -30.1062  -86.0449  -39.2861 N.2       2 ALA2        0.0000 
     35 N         -28.9703  -87.0058  -39.4763 N.2       2 ALA2        0.0000 
     36 OG        -35.5429  -80.6814  -39.7057 O.2       1 SER1        0.0000 
     37 CZ        -34.4069  -81.6423  -39.8959 C.ar      5 PHE5        0.0000 
     38 CZ        -33.2709  -82.6033  -40.0861 C.ar      5 PHE5        0.0000 
     39 CZ        -32.1350  -83.5642  -40.2763 C.ar      5 PHE5        0.0000 
     40 DU        -30.9990  -84.5252  -40.4665 H         7 CUB7        0.0000 
     41 N         -29.8631  -85.4861  -40.6567 N.2       2 ALA2        0.0000 
     42 O         -28.7271  -86.4470  -40.8469 O.2       2 ALA2        0.0000 
     43 NZ        -35.2997  -80.1226  -41.0763 N.2       4 LYS4        0.0000 
     44 CZ        -34.1637  -81.0836  -41.2666 C.ar      5 PHE5        0.0000 
     45 N         -30.7558  -83.9664  -41.8372 N.2       2 ALA2        0.0000 
     46 N         -29.6199  -84.9273  -42.0274 N.2       2 ALA2        0.0000 
     47 N         -28.4839  -85.8883  -42.2176 N.2       2 ALA2        0.0000 
     48 NZ        -32.4019  -85.3508  -32.8442 N.2       4 LYS4        0.0000 
     49 O         -32.1587  -84.7921  -34.2148 O.2       2 ALA2        0.0000 
     50 O         -31.0228  -85.7530  -34.4050 O.2       2 ALA2        0.0000 
     51 O         -30.7796  -85.1943  -35.7757 O.2       2 ALA2        0.0000 
     52 O         -29.6436  -86.1552  -35.9659 O.2       2 ALA2        0.0000 
     53 O         -28.5077  -87.1162  -36.1561 O.2       2 ALA2        0.0000 
     54 O         -31.6724  -83.6746  -36.9561 O.2       2 ALA2        0.0000 
     55 N         -30.5364  -84.6355  -37.1463 N.2       2 ALA2        0.0000 
     56 N         -29.4005  -85.5965  -37.3365 N.2       2 ALA2        0.0000 
     57 N         -28.2645  -86.5574  -37.5267 N.2       2 ALA2        0.0000 
     58 O         -33.7012  -81.1939  -37.9463 O.2       2 ALA2        0.0000 
     59 O         -32.5652  -82.1549  -38.1365 O.2       2 ALA2        0.0000 
     60 O         -31.4292  -83.1158  -38.3267 O.2       2 ALA2        0.0000 
     61 N         -30.2933  -84.0768  -38.5170 N.2       2 ALA2        0.0000 
     62 CZ        -35.7299  -78.7133  -38.9366 C.ar      5 PHE5        0.0000 
     63 CZ        -34.5939  -79.6742  -39.1268 C.ar      5 PHE5        0.0000 
     64 CZ        -33.4580  -80.6352  -39.3170 C.ar      5 PHE5        0.0000 
     65 OG        -32.3220  -81.5961  -39.5072 O.2       1 SER1        0.0000 
     66 OG        -31.1861  -82.5571  -39.6974 O.2       1 SER1        0.0000 
     67 CA        -30.0501  -83.5180  -39.8876 C.3       6 GLY6        0.0000 
     68 N         -28.9141  -84.4789  -40.0778 N.2       2 ALA2        0.0000 
     69 CA        -35.4867  -78.1545  -40.3072 C.3       6 GLY6        0.0000 
     70 DU        -34.3508  -79.1155  -40.4974 H         7 CUB7        0.0000 
     71 N         -33.2148  -80.0764  -40.6876 N.2       2 ALA2        0.0000 
     72 CA        -29.8069  -82.9592  -41.2582 C.3       6 GLY6        0.0000 
     73 CA        -28.6710  -83.9202  -41.4484 C.3       6 GLY6        0.0000 
     74 CA        -34.1076  -78.5567  -41.8681 C.3       6 GLY6        0.0000 
     75 O         -31.4530  -84.3437  -32.2652 O.2       2 ALA2        0.0000 
     76 O         -30.3170  -85.3046  -32.4555 O.2       2 ALA2        0.0000 
     77 CA        -32.3458  -82.8240  -33.4457 C.3       6 GLY6        0.0000 
     78 O         -31.2098  -83.7849  -33.6359 O.2       2 ALA2        0.0000 
     79 O         -30.0738  -84.7459  -33.8261 O.2       2 ALA2        0.0000 
     80 O         -32.1026  -82.2652  -34.8163 O.2       2 ALA2        0.0000 
     81 O         -30.9666  -83.2262  -35.0065 O.2       2 ALA2        0.0000 
     82 O         -29.8307  -84.1871  -35.1967 O.2       2 ALA2        0.0000 
     83 O         -28.6947  -85.1481  -35.3869 O.2       2 ALA2        0.0000 
     84 CZ        -31.8594  -81.7065  -36.1870 C.ar      5 PHE5        0.0000 
     85 O         -30.7235  -82.6674  -36.3772 O.2       2 ALA2        0.0000 
     86 N         -29.5875  -83.6284  -36.5674 N.2       2 ALA2        0.0000 
     87 CZ        -32.7522  -80.1868  -37.3674 C.ar      5 PHE5        0.0000 
     88 OG        -31.6163  -81.1477  -37.5576 O.2       1 SER1        0.0000 
     89 OG        -30.4803  -82.1087  -37.7478 O.2       1 SER1        0.0000 
     90 CZ        -33.6450  -78.6671  -38.5478 C.ar      5 PHE5        0.0000 
     91 OG        -32.5091  -79.6280  -38.7380 O.2       1 SER1        0.0000 
     92 O         -33.4019  -78.1083  -39.9185 O.2       2 ALA2        0.0000 
     93 OG        -32.2659  -79.0693  -40.1087 O.2       1 SER1        0.0000 
     94 CA        -31.6400  -82.3756  -31.4961 C.3       6 GLY6        0.0000 
     95 O         -30.5041  -83.3365  -31.6863 O.2       2 ALA2        0.0000 
     96 CA        -31.3968  -81.8168  -32.8668 C.3       6 GLY6        0.0000 
     97 OD1       -30.2609  -82.7778  -33.0570 O.3       3 ASP3        0.0000 
     98 CA        -31.1537  -81.2581  -34.2374 C.3       6 GLY6        0.0000 
     99 O         -30.0177  -82.2190  -34.4276 O.2       2 ALA2        0.0000 
    100 O         -28.8818  -83.1799  -34.6178 O.2       2 ALA2        0.0000 
    101 CZ        -32.0465  -79.7384  -35.4178 C.ar      5 PHE5        0.0000 
    102 CZ        -30.9105  -80.6993  -35.6080 C.ar      5 PHE5        0.0000 
    103 DU        -29.7745  -81.6602  -35.7982 H         7 CUB7        0.0000 
    104 N         -28.6386  -82.6212  -35.9884 N.2       2 ALA2        0.0000 
    105 NZ        -34.5753  -89.2229  -38.0914 N.2       4 LYS4        0.0000 
    106 CZ        -34.3321  -88.6642  -39.4620 C.ar      5 PHE5        0.0000 
    107 CA        -34.0890  -88.1054  -40.8327 C.3       6 GLY6        0.0000 
    108 CA        -32.9530  -89.0664  -41.0229 C.3       6 GLY6        0.0000 
    109 CZ        -31.8033  -79.1796  -36.7885 C.ar      5 PHE5        0.0000 
    110 N         -30.6673  -80.1405  -36.9787 N.2       2 ALA2        0.0000 
    111 OG        -29.5314  -81.1015  -37.1689 O.2       1 SER1        0.0000 
    112 N         -31.5601  -78.6208  -38.1591 N.2       2 ALA2        0.0000 
    113 OG        -30.4242  -79.5818  -38.3493 O.2       1 SER1        0.0000 
    114 OG        -29.0688  -81.2118  -33.8487 O.2       1 SER1        0.0000 
    115 CA        -29.9616  -79.6921  -35.0291 C.3       6 GLY6        0.0000 
    116 N         -28.8256  -80.6531  -35.2193 N.2       2 ALA2        0.0000 
    117 N         -27.6897  -81.6140  -35.4095 N.2       2 ALA2        0.0000 
    118 N         -29.7184  -79.1334  -36.3997 N.2       2 ALA2        0.0000 
    119 O         -28.5825  -80.0943  -36.5899 O.2       2 ALA2        0.0000 
    120 O         -27.4465  -81.0553  -36.7802 O.2       2 ALA2        0.0000 
    121 N         -27.8767  -79.6459  -34.6404 N.2       2 ALA2        0.0000 
@<TRIPOS>BOND
@<TRIPOS>SUBSTRUCTURE
     1 SER1       36 GROUP   
     2 ALA2        9 GROUP   
     3 ASP3       97 GROUP   
     4 LYS4        1 GROUP   
     5 PHE5        4 GROUP   
     6 GLY6        6 GROUP   
     7 CUB7        3 GROUP   
@<TRIPOS>SET

