#    Name: 1nj5_P5A_1_INTS_M
#    Modification time : Mon Mar 24 18:21:02 2014

@<TRIPOS>MOLECULE
1nj5_P5A_1_INTS_M
   81     0     9     0     0
SMALL
NO_CHARGES


@<TRIPOS>ATOM
      1 N         -36.6115  -80.7780  -39.2340 N.am      2 SEC2        0.0000 
      2 N         -35.0350  -81.1790  -39.0820 N.am      8 SEL2        0.0000 
      3 N         -38.1880  -80.3770  -39.3860 N.am      5 SEP2        0.0000 
      4 N         -35.3125  -82.0735  -37.8905 N.am      2 SEC2        0.0000 
      5 N         -35.5900  -82.9680  -36.6990 N.am      5 SEP2        0.0000 
      6 CA        -35.7485  -78.2655  -42.5570 C.3       3 GLC5        0.0000 
      7 CA        -36.1590  -78.1620  -40.5100 C.3       9 GLL5        0.0000 
      8 CA        -35.3380  -78.3690  -44.6040 C.3       6 GLP5        0.0000 
      9 CA        -35.1310  -81.6555  -41.5280 C.3       3 GLC5        0.0000 
     10 CA        -34.6190  -79.9300  -41.1030 C.3       9 GLL5        0.0000 
     11 CA        -35.6430  -83.3810  -41.9530 C.3       6 GLP5        0.0000 
     12 O         -32.3240  -81.2580  -41.4585 O.2       1 ALC1        0.0000 
     13 O         -32.9820  -81.3910  -40.0110 O.2       7 ALL1        0.0000 
     14 O         -31.6660  -81.1250  -42.9060 O.2       4 ALP1        0.0000 
     15 N         -33.6905  -84.0455  -37.3625 N.am      2 SEC2        0.0000 
     16 N         -33.2810  -83.5300  -38.7480 N.am      8 SEL2        0.0000 
     17 N         -34.1000  -84.5610  -35.9770 N.am      5 SEP2        0.0000 
     18 N         -34.4355  -83.2490  -37.7235 N.am      2 SEC2        0.0000 
     19 N         -30.3305  -81.4510  -40.0915 N.am      2 SEC2        0.0000 
     20 N         -30.9780  -82.6450  -39.4540 N.am      8 SEL2        0.0000 
     21 N         -29.6830  -80.2570  -40.7290 N.am      5 SEP2        0.0000 
     22 CA        -30.3485  -80.0980  -33.1790 C.3       3 GLC5        0.0000 
     23 CA        -29.9890  -81.4020  -34.4060 C.3       9 GLL5        0.0000 
     24 CA        -30.7080  -78.7940  -31.9520 C.3       6 GLP5        0.0000 
     25 CA        -30.7395  -80.8020  -32.2015 C.3       3 GLC5        0.0000 
     26 CA        -30.7710  -82.8100  -32.4510 C.3       9 GLL5        0.0000 
     27 CA        -28.6865  -82.4085  -32.1325 C.3       3 GLC5        0.0000 
     28 CA        -26.6020  -82.0070  -31.8140 C.3       6 GLP5        0.0000 
     29 N         -29.9070  -80.7560  -31.4555 N.am      2 SEC2        0.0000 
     30 N         -30.2670  -82.0510  -31.4230 N.am      8 SEL2        0.0000 
     31 N         -29.5470  -79.4610  -31.4880 N.am      5 SEP2        0.0000 
     32 CA        -28.8115  -83.0395  -28.9100 C.3       3 GLC5        0.0000 
     33 CA        -30.5510  -82.5820  -30.2240 C.3       9 GLL5        0.0000 
     34 CA        -27.0720  -83.4970  -27.5960 C.3       6 GLP5        0.0000 
     35 CA        -30.1450  -84.3650  -29.0100 C.3       3 GLC5        0.0000 
     36 CA        -29.7390  -86.1480  -27.7960 C.3       6 GLP5        0.0000 
     37 CA        -31.7655  -82.6180  -28.4640 C.3       3 GLC5        0.0000 
     38 CA        -32.9800  -82.6540  -26.7040 C.3       6 GLP5        0.0000 
     39 CA        -32.6840  -82.2870  -30.2445 C.3       3 GLC5        0.0000 
     40 CA        -34.8170  -81.9920  -30.2650 C.3       6 GLP5        0.0000 
     41 CA        -30.6295  -80.6880  -31.0880 C.3       3 GLC5        0.0000 
     42 CA        -28.5965  -81.8730  -30.3960 C.3       3 GLC5        0.0000 
     43 CA        -26.6420  -81.1640  -30.5680 C.3       6 GLP5        0.0000 
     44 N         -31.5315  -84.4675  -28.4795 N.am      2 SEC2        0.0000 
     45 N         -31.2470  -83.7160  -29.9550 N.am      8 SEL2        0.0000 
     46 N         -31.8160  -85.2190  -27.0040 N.am      5 SEP2        0.0000 
     47 CA        -30.7400  -85.3025  -29.3950 C.3       3 GLC5        0.0000 
     48 CA        -31.7410  -84.4570  -30.9940 C.3       9 GLL5        0.0000 
     49 O         -32.8960  -86.9605  -31.2240 O.2       1 ALC1        0.0000 
     50 O         -32.4220  -85.5610  -30.7000 O.2       7 ALL1        0.0000 
     51 O         -33.3700  -88.3600  -31.7480 O.2       4 ALP1        0.0000 
     52 O         -33.3425  -85.5565  -29.3720 O.2       1 ALC1        0.0000 
     53 O         -34.2630  -85.5520  -28.0440 O.2       4 ALP1        0.0000 
     54 N         -32.3490  -85.7075  -34.0720 N.am      2 SEC2        0.0000 
     55 N         -31.8500  -84.4870  -33.5800 N.am      8 SEL2        0.0000 
     56 N         -32.8480  -86.9280  -34.5640 N.am      5 SEP2        0.0000 
     57 O         -26.4500  -81.1655  -34.8065 O.2       1 ALC1        0.0000 
     58 O         -27.7780  -80.7320  -34.9190 O.2       7 ALL1        0.0000 
     59 O         -25.1220  -81.5990  -34.6940 O.2       4 ALP1        0.0000 
     60 CA        -28.4815  -81.5035  -38.6645 C.3       3 GLC5        0.0000 
     61 CA        -29.3420  -81.4940  -36.6970 C.3       9 GLL5        0.0000 
     62 CA        -27.6210  -81.5130  -40.6320 C.3       6 GLP5        0.0000 
     63 CA        -33.2807  -79.8322  -42.4555 C.3       3 GLC5        0.0000 
     64 CA        -33.8120  -78.6330  -41.0350 C.3       9 GLL5        0.0000 
     65 CA        -32.3460  -80.3830  -43.8420 C.3       6 GLP5        0.0000 
     66 CA        -34.7767  -78.8253  -42.8365 C.3       3 GLC5        0.0000 
     67 CA        -33.0277  -76.9672  -41.5497 C.3       3 GLC5        0.0000 
     68 CA        -31.8000  -75.7400  -42.4990 C.3       6 GLP5        0.0000 
     69 CA        -32.8972  -77.0763  -39.6657 C.3       3 GLC5        0.0000 
     70 CA        -31.5390  -75.9580  -38.7310 C.3       6 GLP5        0.0000 
     71 CA        -35.4510  -78.5565  -38.4045 C.3       3 GLC5        0.0000 
     72 CA        -34.6990  -77.7560  -40.1660 C.3       9 GLL5        0.0000 
     73 CA        -35.4730  -79.1540  -36.4710 C.3       6 GLP5        0.0000 
     74 CA        -36.0500  -76.6840  -39.3370 C.3       3 GLC5        0.0000 
     75 CA        -36.6710  -75.4090  -38.3360 C.3       6 GLP5        0.0000 
     76 CA        -32.7452  -79.8907  -36.2313 C.3       3 GLC5        0.0000 
     77 CA        -31.4920  -80.3370  -37.5110 C.3       9 GLL5        0.0000 
     78 CA        -34.5620  -79.4190  -35.4590 C.3       6 GLP5        0.0000 
     79 CA        -27.9910  -81.7715  -33.3323 C.3       3 GLC5        0.0000 
     80 CA        -33.0614  -83.1217  -31.7192 C.3       3 GLC5        0.0000 
     81 CA        -34.6830  -82.3140  -31.7460 C.3       6 GLP5        0.0000 
@<TRIPOS>BOND
@<TRIPOS>SUBSTRUCTURE
     1 ALC1       12 GROUP        1 X    ALC  0     ROOT ALC X 1
     2 SEC2        1 GROUP        1 X    SEC  0     **** SEC X 2
     3 GLC5        6 GROUP        1 X    GLC  0     **** GLC X 6
     4 ALP1       14 GROUP        1 Y    ALP  0     ROOT ALP Y 8
     5 SEP2        3 GROUP        1 Y    SEP  0     **** SEP Y 9
     6 GLP5        8 GROUP        1 Y    GLP  0     **** GLP Y 13
     7 ALL1       13 GROUP        1 Z    ALL  0     ROOT ALL Z 15
     8 SEL2        2 GROUP        1 Z    SEL  0     **** SEL Z 16
     9 GLL5        7 GROUP        1 Z    GLL  0     **** GLL Z 20
@<TRIPOS>SET

