#    Name: 1nj5_P5A_1_ligand
#    Modification time : Mon Mar 24 18:21:02 2014

@<TRIPOS>MOLECULE
1nj5_P5A_1_ligand
   50    53     1     0     0
SMALL
NO_CHARGES


@<TRIPOS>ATOM
      1 CB        -33.8120  -78.6330  -41.0350 C.3       1 P5A510      0.0000 
      2 CG        -34.6990  -77.7560  -40.1660 C.3       1 P5A510      0.0000 
      3 C         -34.2250  -80.8960  -39.9730 C.2       1 P5A510      0.0000 
      4 O         -35.0350  -81.1790  -39.0820 O.2       1 P5A510      0.0000 
      5 N         -36.0370  -79.5520  -40.9990 N.4       1 P5A510      0.0000 
      6 CD        -36.1590  -78.1620  -40.5100 C.3       1 P5A510      0.0000 
      7 CA        -34.6190  -79.9300  -41.1030 C.3       1 P5A510      0.0000 
      8 N3S       -32.9820  -81.3910  -40.0110 N.am      1 P5A510      0.0000 
      9 S         -32.3650  -82.3860  -38.9380 S.o2      1 P5A510      0.0000 
     10 O1S       -33.2810  -83.5300  -38.7480 O.2       1 P5A510      0.0000 
     11 O2S       -30.9780  -82.6450  -39.4540 O.2       1 P5A510      0.0000 
     12 O5'       -32.2310  -81.5750  -37.5700 O.3       1 P5A510      0.0000 
     13 C5'       -31.4920  -80.3370  -37.5110 C.3       1 P5A510      0.0000 
     14 C4'       -30.3650  -80.3880  -36.4960 C.3       1 P5A510      0.0000 
     15 O4'       -30.9010  -80.6470  -35.1770 O.3       1 P5A510      0.0000 
     16 C1'       -29.9890  -81.4020  -34.4060 C.3       1 P5A510      0.0000 
     17 N9        -30.6730  -82.5670  -33.8150 N.pl3     1 P5A510      0.0000 
     18 C4        -30.7710  -82.8100  -32.4510 C.ar      1 P5A510      0.0000 
     19 N3        -30.2670  -82.0510  -31.4230 N.ar      1 P5A510      0.0000 
     20 C2        -30.5510  -82.5820  -30.2240 C.ar      1 P5A510      0.0000 
     21 N1        -31.2470  -83.7160  -29.9550 N.ar      1 P5A510      0.0000 
     22 C6        -31.7410  -84.4570  -30.9940 C.ar      1 P5A510      0.0000 
     23 N6        -32.4220  -85.5610  -30.7000 N.pl3     1 P5A510      0.0000 
     24 C5        -31.5060  -83.9940  -32.3310 C.ar      1 P5A510      0.0000 
     25 N7        -31.8500  -84.4870  -33.5800 N.2       1 P5A510      0.0000 
     26 C8        -31.3400  -83.6100  -34.4210 C.2       1 P5A510      0.0000 
     27 C2'       -28.7710  -81.6700  -35.2950 C.3       1 P5A510      0.0000 
     28 O2'       -27.7780  -80.7320  -34.9190 O.3       1 P5A510      0.0000 
     29 C3'       -29.3420  -81.4940  -36.6970 C.3       1 P5A510      0.0000 
     30 O3'       -28.3540  -81.0540  -37.6250 O.3       1 P5A510      0.0000 
     31 H         -32.8924  -78.8105  -40.5516 H         1 P5A510      0.0000 
     32 H         -33.7241  -78.2171  -41.9994 H         1 P5A510      0.0000 
     33 H         -34.5587  -76.7287  -40.4130 H         1 P5A510      0.0000 
     34 H         -34.5189  -77.9552  -39.1346 H         1 P5A510      0.0000 
     35 H         -36.5174  -77.5114  -41.2719 H         1 P5A510      0.0000 
     36 H         -36.7396  -78.1121  -39.6197 H         1 P5A510      0.0000 
     37 H         -34.4306  -80.3969  -42.0496 H         1 P5A510      0.0000 
     38 H         -32.2905  -81.1646  -40.7634 H         1 P5A510      0.0000 
     39 H         -32.1547  -79.4933  -37.2430 H         1 P5A510      0.0000 
     40 H         -31.0534  -80.0910  -38.4959 H         1 P5A510      0.0000 
     41 H         -29.8407  -79.4423  -36.4802 H         1 P5A510      0.0000 
     42 H         -29.6264  -80.7460  -33.5770 H         1 P5A510      0.0000 
     43 H         -30.1767  -82.0361  -29.3484 H         1 P5A510      0.0000 
     44 H         -32.3598  -86.3063  -31.3638 H         1 P5A510      0.0000 
     45 H         -32.9349  -85.5461  -29.8417 H         1 P5A510      0.0000 
     46 H         -31.4137  -83.6684  -35.4208 H         1 P5A510      0.0000 
     47 H         -28.4993  -82.6804  -35.1498 H         1 P5A510      0.0000 
     48 H         -29.8472  -82.3694  -36.9756 H         1 P5A510      0.0000 
     49 H         -27.0672  -81.2736  -34.4702 H         1 P5A510      0.0000 
     50 H         -27.5453  -80.8605  -37.0696 H         1 P5A510      0.0000 
@<TRIPOS>BOND
     1    2    1 1    
     2    7    1 1    
     3   31    1 1    
     4   32    1 1    
     5    6    2 1    
     6   33    2 1    
     7   34    2 1    
     8    4    3 2    
     9    7    3 1    
    10    8    3 am   
    11    6    5 1    
    12    7    5 1    
    13   35    6 1    
    14   36    6 1    
    15   37    7 1    
    16    9    8 1    
    17   38    8 1    
    18   10    9 2    
    19   11    9 2    
    20   12    9 1    
    21   13   12 1    
    22   14   13 1    
    23   39   13 1    
    24   40   13 1    
    25   15   14 1    
    26   29   14 1    
    27   41   14 1    
    28   16   15 1    
    29   17   16 1    
    30   27   16 1    
    31   42   16 1    
    32   18   17 1    
    33   26   17 1    
    34   19   18 ar   
    35   24   18 ar   
    36   20   19 ar   
    37   21   20 ar   
    38   43   20 1    
    39   22   21 ar   
    40   23   22 1    
    41   24   22 ar   
    42   44   23 1    
    43   45   23 1    
    44   25   24 1    
    45   26   25 2    
    46   46   26 1    
    47   28   27 1    
    48   29   27 1    
    49   47   27 1    
    50   49   28 1    
    51   30   29 1    
    52   48   29 1    
    53   50   30 1    
@<TRIPOS>SUBSTRUCTURE
     1 P5A510      1 GROUP   
@<TRIPOS>SET

