#    Name: 1zy8_FAD_6_INTS_M
#    Modification time : Mon Mar 24 18:05:27 2014

@<TRIPOS>MOLECULE
1zy8_FAD_6_INTS_M
  123     0     9     0     0
SMALL
NO_CHARGES


@<TRIPOS>ATOM
      1 N          31.5495  110.4130   48.3790 N.am      2 SEC2        0.0000 
      2 N          30.2970  110.0190   48.5810 N.am      8 SEL2        0.0000 
      3 N          32.8020  110.8070   48.1770 N.am      5 SEP2        0.0000 
      4 N          31.1470  110.1135   47.1410 N.am      2 SEC2        0.0000 
      5 N          31.9970  110.2080   45.7010 N.am      5 SEP2        0.0000 
      6 N          30.1940  107.0285   51.2980 N.am      2 SEC2        0.0000 
      7 N          30.5760  108.2950   50.3660 N.am      8 SEL2        0.0000 
      8 N          29.8120  105.7620   52.2300 N.am      5 SEP2        0.0000 
      9 CA         31.3460  109.4795   50.8165 C.3       3 GLC5        0.0000 
     10 CA         30.3220  110.5580   52.2970 C.3       9 GLL5        0.0000 
     11 CA         32.3700  108.4010   49.3360 C.3       6 GLP5        0.0000 
     12 CA         29.3385  110.1470   54.1195 C.3       3 GLC5        0.0000 
     13 CA         28.3550  109.7360   55.9420 C.3       6 GLP5        0.0000 
     14 CA         29.2890  109.0005   52.6035 C.3       3 GLC5        0.0000 
     15 CA         28.2560  107.4430   52.9100 C.3       6 GLP5        0.0000 
     16 CA         30.1200  113.1990   53.8525 C.3       3 GLC5        0.0000 
     17 CA         31.1670  111.7410   52.7570 C.3       9 GLL5        0.0000 
     18 CA         29.0730  114.6570   54.9480 C.3       6 GLP5        0.0000 
     19 CA         32.4995  110.0255   50.8765 C.3       3 GLC5        0.0000 
     20 CA         32.6290  111.6500   52.4170 C.3       9 GLL5        0.0000 
     21 N          33.3135  114.1110   52.1960 N.am      2 SEC2        0.0000 
     22 N          32.8530  112.9690   51.9860 N.am      8 SEL2        0.0000 
     23 N          33.7740  115.2530   52.4060 N.am      5 SEP2        0.0000 
     24 N          35.4720  111.2230   54.8260 N.am      2 SEC2        0.0000 
     25 N          34.5500  111.8740   53.9630 N.am      8 SEL2        0.0000 
     26 N          36.3940  110.5720   55.6890 N.am      5 SEP2        0.0000 
     27 O          34.2950  113.3615   54.2485 O.2       1 ALC1        0.0000 
     28 O          34.5500  111.8740   53.9630 O.2       7 ALL1        0.0000 
     29 O          34.0400  114.8490   54.5340 O.2       4 ALP1        0.0000 
     30 CA         30.7570  113.3675   54.8150 C.3       3 GLC5        0.0000 
     31 CA         32.4410  112.0780   54.6820 C.3       9 GLL5        0.0000 
     32 CA         30.3970  113.1185   59.6095 C.3       3 GLC5        0.0000 
     33 CA         32.0410  112.0090   59.3900 C.3       9 GLL5        0.0000 
     34 CA         28.7530  114.2280   59.8290 C.3       6 GLP5        0.0000 
     35 CA         34.0650  111.8250   58.6805 C.3       3 GLC5        0.0000 
     36 CA         36.0890  111.6410   57.9710 C.3       6 GLP5        0.0000 
     37 N          32.4565  114.0795   61.0755 N.am      2 SEC2        0.0000 
     38 N          32.2580  113.3670   59.5010 N.am      8 SEL2        0.0000 
     39 N          32.6550  114.7920   62.6500 N.am      5 SEP2        0.0000 
     40 CA         30.6240  114.2200   59.1270 C.3       3 GLC5        0.0000 
     41 CA         32.4950  114.2120   58.4250 C.3       9 GLL5        0.0000 
     42 CA         31.9845  116.1065   59.3860 C.3       3 GLC5        0.0000 
     43 CA         31.4740  118.0010   60.3470 C.3       6 GLP5        0.0000 
     44 CA         32.7475  115.7690   57.3195 C.3       3 GLC5        0.0000 
     45 CA         33.0000  117.3260   56.2140 C.3       6 GLP5        0.0000 
     46 CA         34.2200  114.1785   58.3665 C.3       3 GLC5        0.0000 
     47 CA         35.9450  114.1450   58.3080 C.3       6 GLP5        0.0000 
     48 N          33.6145  114.7665   57.1265 N.am      2 SEC2        0.0000 
     49 N          32.5140  113.6690   57.2070 N.am      8 SEL2        0.0000 
     50 N          34.7150  115.8640   57.0460 N.am      5 SEP2        0.0000 
     51 N          25.3565  107.2045   41.8405 N.am      2 SEC2        0.0000 
     52 N          25.6710  106.6680   40.4850 N.am      8 SEL2        0.0000 
     53 N          25.0420  107.7410   43.1960 N.am      5 SEP2        0.0000 
     54 O          26.6710  107.5320   38.3500 O.2       1 ALC1        0.0000 
     55 O          27.3560  106.2710   39.0860 O.2       7 ALL1        0.0000 
     56 O          25.9860  108.7930   37.6140 O.2       4 ALP1        0.0000 
     57 N          30.6630  105.9600   37.0230 N.am      2 SEC2        0.0000 
     58 N          29.1330  105.9640   37.7630 N.am      8 SEL2        0.0000 
     59 N          32.1930  105.9560   36.2830 N.am      5 SEP2        0.0000 
     60 CA         36.4565  102.8235   42.4865 C.3       3 GLC5        0.0000 
     61 CA         35.1150  103.7790   41.5610 C.3       9 GLL5        0.0000 
     62 CA         37.7980  101.8680   43.4120 C.3       6 GLP5        0.0000 
     63 CA         35.0280  101.9725   41.4365 C.3       3 GLC5        0.0000 
     64 CA         34.9410  100.1660   41.3120 C.3       6 GLP5        0.0000 
     65 CA         36.5090  102.4170   40.6530 C.3       3 GLC5        0.0000 
     66 CA         37.9030  101.0550   39.7450 C.3       6 GLP5        0.0000 
     67 CA         36.0070  103.1750   43.7715 C.3       3 GLC5        0.0000 
     68 CA         34.2160  104.4820   44.1310 C.3       9 GLL5        0.0000 
     69 CA         33.3290  103.0230   45.5140 C.3       3 GLC5        0.0000 
     70 CA         32.4420  101.5640   46.8970 C.3       6 GLP5        0.0000 
     71 CA         30.5735  106.9925   41.6550 C.3       3 GLC5        0.0000 
     72 CA         31.0640  104.9630   42.1420 C.3       9 GLL5        0.0000 
     73 CA         30.0830  109.0220   41.1680 C.3       6 GLP5        0.0000 
     74 CA         29.4855  108.6945   44.1610 C.3       3 GLC5        0.0000 
     75 CA         28.7400  106.6280   44.2080 C.3       9 GLL5        0.0000 
     76 CA         30.2310  110.7610   44.1140 C.3       6 GLP5        0.0000 
     77 CA         29.4115  107.8250   42.6880 C.3       3 GLC5        0.0000 
     78 CA         27.4020  108.1900   43.4045 C.3       3 GLC5        0.0000 
     79 CA         26.0640  109.7520   42.6010 C.3       6 GLP5        0.0000 
     80 CA         26.1800  106.0380   44.5500 C.3       3 GLC5        0.0000 
     81 CA         27.9850  106.6040   45.5080 C.3       9 GLL5        0.0000 
     82 CA         24.3750  105.4720   43.5920 C.3       6 GLP5        0.0000 
     83 O          26.3185  104.8540   44.8335 O.2       1 ALC1        0.0000 
     84 O          26.6550  106.2210   45.2670 O.2       7 ALL1        0.0000 
     85 O          25.9820  103.4870   44.4000 O.2       4 ALP1        0.0000 
     86 CA         27.6960  110.1015   45.8855 C.3       3 GLC5        0.0000 
     87 CA         28.0120  107.9890   46.1660 C.3       9 GLL5        0.0000 
     88 CA         27.3800  112.2140   45.6050 C.3       6 GLP5        0.0000 
     89 CA         29.1215  109.3750   45.1400 C.3       3 GLC5        0.0000 
     90 CA         26.9530  106.6680   49.0070 C.3       3 GLC5        0.0000 
     91 CA         27.3800  108.0020   47.5510 C.3       9 GLL5        0.0000 
     92 CA         26.5260  105.3340   50.4630 C.3       6 GLP5        0.0000 
     93 N          25.3205  107.5955   50.4880 N.am      2 SEC2        0.0000 
     94 N          26.0950  108.5830   49.9140 N.am      8 SEL2        0.0000 
     95 N          24.5460  106.6080   51.0620 N.am      5 SEP2        0.0000 
     96 CA         32.1595  112.3773   50.7860 C.3       3 GLC5        0.0000 
     97 CA         32.4210  113.0590   48.9850 C.3       6 GLP5        0.0000 
     98 CA         34.2498  111.1505   55.5812 C.3       3 GLC5        0.0000 
     99 CA         33.3040  111.3140   53.7470 C.3       9 GLL5        0.0000 
    100 CA         35.6270  110.6050   56.9480 C.3       6 GLP5        0.0000 
    101 CA         33.9065  111.2498   57.2895 C.3       3 GLC5        0.0000 
    102 CA         32.3060  112.3290   57.0990 C.3       9 GLL5        0.0000 
    103 CA         30.0857  110.9562   58.5652 C.3       3 GLC5        0.0000 
    104 CA         32.0660  111.4600   58.1630 C.3       9 GLL5        0.0000 
    105 CA         28.1180  110.1780   58.3540 C.3       6 GLP5        0.0000 
    106 CA         33.4235  106.2387   41.6840 C.3       3 GLC5        0.0000 
    107 CA         31.6040  104.9060   40.8620 C.3       9 GLL5        0.0000 
    108 CA         34.5870  107.7530   42.6100 C.3       6 GLP5        0.0000 
    109 CA         32.2860  106.6502   40.2265 C.3       3 GLC5        0.0000 
    110 CA         32.9160  104.5430   40.6540 C.3       9 GLL5        0.0000 
    111 CA         32.3120  108.5760   39.6950 C.3       6 GLP5        0.0000 
    112 CA         34.5020  105.8825   42.1292 C.3       3 GLC5        0.0000 
    113 CA         33.7190  104.2450   41.7360 C.3       9 GLL5        0.0000 
    114 CA         32.7767  102.7099   41.3240 C.3       3 GLC5        0.0000 
    115 CA         32.5640  100.9350   41.4010 C.3       6 GLP5        0.0000 
    116 CA         33.0425  102.7415   43.2368 C.3       3 GLC5        0.0000 
    117 CA         32.3610  101.0870   42.9030 C.3       6 GLP5        0.0000 
    118 CA         33.7000  106.1390   42.9984 C.3       3 GLC5        0.0000 
    119 CA         33.2320  104.3100   43.0100 C.3       9 GLL5        0.0000 
    120 CA         31.9220  102.9477   42.7878 C.3       3 GLC5        0.0000 
    121 CA         31.9020  104.6540   43.2030 C.3       9 GLL5        0.0000 
    122 CA         26.5377  108.2188   44.6530 C.3       3 GLC5        0.0000 
    123 CA         25.0770  109.1410   43.4690 C.3       6 GLP5        0.0000 
@<TRIPOS>BOND
@<TRIPOS>SUBSTRUCTURE
     1 ALC1       27 GROUP        1 X    ALC  0     ROOT ALC X 1
     2 SEC2        1 GROUP        1 X    SEC  0     **** SEC X 2
     3 GLC5        9 GROUP        1 X    GLC  0     **** GLC X 6
     4 ALP1       29 GROUP        1 Y    ALP  0     ROOT ALP Y 8
     5 SEP2        3 GROUP        1 Y    SEP  0     **** SEP Y 9
     6 GLP5       11 GROUP        1 Y    GLP  0     **** GLP Y 13
     7 ALL1       28 GROUP        1 Z    ALL  0     ROOT ALL Z 15
     8 SEL2        2 GROUP        1 Z    SEL  0     **** SEL Z 16
     9 GLL5       10 GROUP        1 Z    GLL  0     **** GLL Z 20
@<TRIPOS>SET

