#    Name: 1zy8_FAD_6_ligand
#    Modification time : Mon Mar 24 18:05:28 2014

@<TRIPOS>MOLECULE
1zy8_FAD_6_ligand
   84    89     1     0     0
SMALL
NO_CHARGES


@<TRIPOS>ATOM
      1 PA         29.8850  109.5630   49.9040 P.3       1 FAD4755     0.0000 
      2 O1A        30.2970  110.0190   48.5810 O.co2     1 FAD4755     0.0000 
      3 O2A        30.5760  108.2950   50.3660 O.co2     1 FAD4755     0.0000 
      4 O5B        30.2420  110.7270   50.9070 O.3       1 FAD4755     0.0000 
      5 C5B        30.3220  110.5580   52.2970 C.3       1 FAD4755     0.0000 
      6 C4B        31.1670  111.7410   52.7570 C.3       1 FAD4755     0.0000 
      7 O4B        31.1540  111.9100   54.1570 O.3       1 FAD4755     0.0000 
      8 C3B        32.6290  111.6500   52.4170 C.3       1 FAD4755     0.0000 
      9 O3B        32.8530  112.9690   51.9860 O.3       1 FAD4755     0.0000 
     10 C2B        33.3040  111.3140   53.7470 C.3       1 FAD4755     0.0000 
     11 O2B        34.5500  111.8740   53.9630 O.3       1 FAD4755     0.0000 
     12 C1B        32.4410  112.0780   54.6820 C.3       1 FAD4755     0.0000 
     13 N9A        32.3120  111.5320   56.0230 N.pl3     1 FAD4755     0.0000 
     14 C8A        32.0380  110.2480   56.4340 C.2       1 FAD4755     0.0000 
     15 N7A        31.8950  110.2070   57.7570 N.2       1 FAD4755     0.0000 
     16 C5A        32.0660  111.4600   58.1630 C.ar      1 FAD4755     0.0000 
     17 C6A        32.0410  112.0090   59.3900 C.ar      1 FAD4755     0.0000 
     18 N6A        31.7840  111.2230   60.4010 N.pl3     1 FAD4755     0.0000 
     19 N1A        32.2580  113.3670   59.5010 N.ar      1 FAD4755     0.0000 
     20 C2A        32.4950  114.2120   58.4250 C.ar      1 FAD4755     0.0000 
     21 N3A        32.5140  113.6690   57.2070 N.ar      1 FAD4755     0.0000 
     22 C4A        32.3060  112.3290   57.0990 C.ar      1 FAD4755     0.0000 
     23 N1         27.6290  106.0080   41.4050 N.2       1 FAD4755     0.0000 
     24 C2         26.8320  106.3270   40.3370 C.2       1 FAD4755     0.0000 
     25 O2         25.6710  106.6680   40.4850 O.2       1 FAD4755     0.0000 
     26 N3         27.3560  106.2710   39.0860 N.am      1 FAD4755     0.0000 
     27 C4         28.6690  105.8970   38.9090 C.2       1 FAD4755     0.0000 
     28 O4         29.1330  105.9640   37.7630 O.2       1 FAD4755     0.0000 
     29 C4X        29.4810  105.5720   39.9860 C.2       1 FAD4755     0.0000 
     30 N5         30.8050  105.2120   39.7980 N.2       1 FAD4755     0.0000 
     31 C5X        31.6040  104.9060   40.8620 C.ar      1 FAD4755     0.0000 
     32 C6         32.9160  104.5430   40.6540 C.ar      1 FAD4755     0.0000 
     33 C7         33.7190  104.2450   41.7360 C.ar      1 FAD4755     0.0000 
     34 C7M        35.1150  103.7790   41.5610 C.3       1 FAD4755     0.0000 
     35 C8         33.2320  104.3100   43.0100 C.ar      1 FAD4755     0.0000 
     36 C8M        34.2160  104.4820   44.1310 C.3       1 FAD4755     0.0000 
     37 C9         31.9020  104.6540   43.2030 C.ar      1 FAD4755     0.0000 
     38 C9A        31.0640  104.9630   42.1420 C.ar      1 FAD4755     0.0000 
     39 N10        29.7240  105.3370   42.3450 N.pl3     1 FAD4755     0.0000 
     40 C10        28.9440  105.6430   41.2460 C.2       1 FAD4755     0.0000 
     41 C1'        29.0610  105.2440   43.6960 C.3       1 FAD4755     0.0000 
     42 C2'        28.7400  106.6280   44.2080 C.3       1 FAD4755     0.0000 
     43 O2'        29.9230  107.2900   44.5100 O.3       1 FAD4755     0.0000 
     44 C3'        27.9850  106.6040   45.5080 C.3       1 FAD4755     0.0000 
     45 O3'        26.6550  106.2210   45.2670 O.3       1 FAD4755     0.0000 
     46 C4'        28.0120  107.9890   46.1660 C.3       1 FAD4755     0.0000 
     47 O4'        29.3520  108.3670   46.2880 O.3       1 FAD4755     0.0000 
     48 C5'        27.3800  108.0020   47.5510 C.3       1 FAD4755     0.0000 
     49 O5'        27.2560  109.3450   47.8940 O.3       1 FAD4755     0.0000 
     50 P          27.0000  109.6730   49.4030 P.3       1 FAD4755     0.0000 
     51 O1P        26.5780  111.0850   49.5250 O.co2     1 FAD4755     0.0000 
     52 O2P        26.0950  108.5830   49.9140 O.co2     1 FAD4755     0.0000 
     53 O3P        28.3480  109.2880   50.1250 O.3       1 FAD4755     0.0000 
     54 H          30.8336  109.6551   52.5814 H         1 FAD4755     0.0000 
     55 H          29.3648  110.6255   52.7840 H         1 FAD4755     0.0000 
     56 H          30.7826  112.6530   52.2797 H         1 FAD4755     0.0000 
     57 H          32.7694  110.9238   51.7150 H         1 FAD4755     0.0000 
     58 H          33.2026  110.3059   53.9593 H         1 FAD4755     0.0000 
     59 H          32.7029  113.0978   54.6946 H         1 FAD4755     0.0000 
     60 H          31.9639  109.4906   55.8222 H         1 FAD4755     0.0000 
     61 H          31.6682  110.2533   60.1861 H         1 FAD4755     0.0000 
     62 H          31.7266  111.6632   61.2971 H         1 FAD4755     0.0000 
     63 H          32.6462  115.2092   58.5876 H         1 FAD4755     0.0000 
     64 H          26.7767  106.5073   38.2613 H         1 FAD4755     0.0000 
     65 H          33.2962  104.4939   39.6990 H         1 FAD4755     0.0000 
     66 H          31.5217  104.6810   44.1734 H         1 FAD4755     0.0000 
     67 H          29.7288  104.7441   44.3961 H         1 FAD4755     0.0000 
     68 H          28.1417  104.6661   43.6119 H         1 FAD4755     0.0000 
     69 H          28.1638  107.1597   43.4838 H         1 FAD4755     0.0000 
     70 H          28.4804  105.9134   46.1790 H         1 FAD4755     0.0000 
     71 H          27.4701  108.6721   45.5315 H         1 FAD4755     0.0000 
     72 H          28.0365  107.4525   48.2177 H         1 FAD4755     0.0000 
     73 H          26.4249  107.4916   47.4819 H         1 FAD4755     0.0000 
     74 H          35.6728  104.4514   41.0745 H         1 FAD4755     0.0000 
     75 H          35.5621  103.6075   42.4389 H         1 FAD4755     0.0000 
     76 H          35.1596  102.9278   41.0381 H         1 FAD4755     0.0000 
     77 H          34.8726  103.7286   44.1677 H         1 FAD4755     0.0000 
     78 H          34.7436  105.3262   44.0358 H         1 FAD4755     0.0000 
     79 H          33.7621  104.5188   45.0213 H         1 FAD4755     0.0000 
     80 H          33.5423  112.8922   51.2656 H         1 FAD4755     0.0000 
     81 H          34.3733  112.8457   54.1196 H         1 FAD4755     0.0000 
     82 H          29.9189  107.3861   45.5054 H         1 FAD4755     0.0000 
     83 H          26.7045  105.2517   45.0261 H         1 FAD4755     0.0000 
     84 H          29.3879  108.9297   47.1139 H         1 FAD4755     0.0000 
@<TRIPOS>BOND
     1    2    1 ar   
     2    3    1 ar   
     3    4    1 1    
     4   53    1 1    
     5    5    4 1    
     6    6    5 1    
     7   54    5 1    
     8   55    5 1    
     9    7    6 1    
    10    8    6 1    
    11   56    6 1    
    12   12    7 1    
    13    9    8 1    
    14   10    8 1    
    15   57    8 1    
    16   80    9 1    
    17   11   10 1    
    18   12   10 1    
    19   58   10 1    
    20   81   11 1    
    21   13   12 1    
    22   59   12 1    
    23   14   13 1    
    24   22   13 1    
    25   15   14 2    
    26   60   14 1    
    27   16   15 1    
    28   17   16 ar   
    29   22   16 ar   
    30   18   17 1    
    31   19   17 ar   
    32   61   18 1    
    33   62   18 1    
    34   20   19 ar   
    35   21   20 ar   
    36   63   20 1    
    37   22   21 ar   
    38   24   23 1    
    39   40   23 2    
    40   25   24 2    
    41   26   24 am   
    42   27   26 am   
    43   64   26 1    
    44   28   27 2    
    45   29   27 1    
    46   30   29 2    
    47   40   29 1    
    48   31   30 1    
    49   32   31 ar   
    50   38   31 ar   
    51   33   32 ar   
    52   65   32 1    
    53   34   33 1    
    54   35   33 ar   
    55   74   34 1    
    56   75   34 1    
    57   76   34 1    
    58   36   35 1    
    59   37   35 ar   
    60   77   36 1    
    61   78   36 1    
    62   79   36 1    
    63   38   37 ar   
    64   66   37 1    
    65   39   38 1    
    66   40   39 1    
    67   41   39 1    
    68   42   41 1    
    69   67   41 1    
    70   68   41 1    
    71   43   42 1    
    72   44   42 1    
    73   69   42 1    
    74   82   43 1    
    75   45   44 1    
    76   46   44 1    
    77   70   44 1    
    78   83   45 1    
    79   47   46 1    
    80   48   46 1    
    81   71   46 1    
    82   84   47 1    
    83   49   48 1    
    84   72   48 1    
    85   73   48 1    
    86   50   49 1    
    87   51   50 ar   
    88   52   50 ar   
    89   53   50 1    
@<TRIPOS>SUBSTRUCTURE
     1 FAD4755     1 GROUP   
@<TRIPOS>SET

