#    Name: 2zi6_3D1_4_INTS_M
#    Modification time : Mon Apr  7 18:45:39 2014

@<TRIPOS>MOLECULE
2zi6_3D1_4_INTS_M
   25     0     9     0     0
SMALL
NO_CHARGES


@<TRIPOS>ATOM
      1 CA         84.9175   62.2740  -23.3580 C.3       3 GLC5        0.0000 
      2 CA         85.6700   63.6320  -22.0150 C.3       9 GLL5        0.0000 
      3 CA         84.1650   60.9160  -24.7010 C.3       6 GLP5        0.0000 
      4 CA         84.2525   65.0625  -23.6925 C.3       3 GLC5        0.0000 
      5 CA         84.6380   64.6830  -21.6650 C.3       9 GLL5        0.0000 
      6 CA         83.8670   65.4420  -25.7200 C.3       6 GLP5        0.0000 
      7 CA         85.3230   66.6035  -22.5495 C.3       3 GLC5        0.0000 
      8 CA         86.0080   68.5240  -23.4340 C.3       6 GLP5        0.0000 
      9 CA         82.4910   59.4605  -22.9610 C.3       3 GLC5        0.0000 
     10 CA         82.3910   59.9090  -21.0630 C.3       9 GLL5        0.0000 
     11 CA         82.5910   59.0120  -24.8590 C.3       6 GLP5        0.0000 
     12 O          77.5490   60.5030  -21.2025 O.2       1 ALC1        0.0000 
     13 O          78.7280   59.7740  -21.0600 O.2       7 ALL1        0.0000 
     14 O          76.3700   61.2320  -21.3450 O.2       4 ALP1        0.0000 
     15 N          78.1765   62.9625  -21.4145 N.am      2 SEC2        0.0000 
     16 N          79.3500   62.6850  -20.7450 N.am      8 SEL2        0.0000 
     17 N          77.0030   63.2400  -22.0840 N.am      5 SEP2        0.0000 
     18 CA         82.4730   63.4008  -18.7145 C.3       3 GLC5        0.0000 
     19 CA         83.5120   64.4740  -19.5260 C.3       9 GLL5        0.0000 
     20 CA         81.9080   62.3720  -17.3260 C.3       6 GLP5        0.0000 
     21 CA         79.3011   61.3107  -19.4772 C.3       3 GLC5        0.0000 
     22 CA         79.9330   60.2080  -21.0170 C.3       9 GLL5        0.0000 
     23 CA         78.2260   61.5730  -18.0030 C.3       6 GLP5        0.0000 
     24 CA         84.8710   64.9998  -18.4208 C.3       3 GLC5        0.0000 
     25 CA         85.6430   65.1740  -16.9720 C.3       6 GLP5        0.0000 
@<TRIPOS>BOND
@<TRIPOS>SUBSTRUCTURE
     1 ALC1       12 GROUP        1 X    ALC  0     ROOT ALC X 1
     2 SEC2       15 GROUP        1 X    SEC  0     **** SEC X 2
     3 GLC5        1 GROUP        1 X    GLC  0     **** GLC X 6
     4 ALP1       14 GROUP        1 Y    ALP  0     ROOT ALP Y 8
     5 SEP2       17 GROUP        1 Y    SEP  0     **** SEP Y 9
     6 GLP5        3 GROUP        1 Y    GLP  0     **** GLP Y 13
     7 ALL1       13 GROUP        1 Z    ALL  0     ROOT ALL Z 15
     8 SEL2       16 GROUP        1 Z    SEL  0     **** SEL Z 16
     9 GLL5        2 GROUP        1 Z    GLL  0     **** GLL Z 20
@<TRIPOS>SET

