#    Name: 2zi6_3D1_4_ligand
#    Modification time : Mon Apr  7 18:45:39 2014

@<TRIPOS>MOLECULE
2zi6_3D1_4_ligand
   30    32     1     0     0
SMALL
NO_CHARGES


@<TRIPOS>ATOM
      1 O5'        85.4460   62.3550  -21.4110 O.3       1 3D14302     0.0000 
      2 C5'        85.6700   63.6320  -22.0150 C.3       1 3D14302     0.0000 
      3 C4'        84.6380   64.6830  -21.6650 C.3       1 3D14302     0.0000 
      4 O4'        83.2890   64.2110  -21.9090 O.3       1 3D14302     0.0000 
      5 C1'        82.5640   64.3850  -20.6800 C.3       1 3D14302     0.0000 
      6 N9         81.4850   63.4250  -20.6680 N.pl3     1 3D14302     0.0000 
      7 C4         81.4550   62.1290  -20.8360 C.ar      1 3D14302     0.0000 
      8 N3         82.5570   61.3250  -20.8630 N.ar      1 3D14302     0.0000 
      9 C2         82.3910   59.9090  -21.0630 C.ar      1 3D14302     0.0000 
     10 N1         81.0370   59.4840  -21.1320 N.ar      1 3D14302     0.0000 
     11 C6         79.9330   60.2080  -21.0170 C.ar      1 3D14302     0.0000 
     12 N6         78.7280   59.7740  -21.0600 N.pl3     1 3D14302     0.0000 
     13 C5         80.1840   61.6490  -20.9360 C.ar      1 3D14302     0.0000 
     14 N7         79.3500   62.6850  -20.7450 N.2       1 3D14302     0.0000 
     15 C8         80.1570   63.7880  -20.6220 C.2       1 3D14302     0.0000 
     16 C2'        83.5120   64.4740  -19.5260 C.3       1 3D14302     0.0000 
     17 C3'        84.6860   65.1770  -20.2130 C.3       1 3D14302     0.0000 
     18 O3'        84.5660   66.6040  -20.2350 O.3       1 3D14302     0.0000 
     19 H          85.6995   63.5460  -23.1289 H         1 3D14302     0.0000 
     20 H          86.6727   64.0362  -21.7315 H         1 3D14302     0.0000 
     21 H          84.8134   65.5683  -22.3036 H         1 3D14302     0.0000 
     22 H          82.0827   65.4235  -20.7736 H         1 3D14302     0.0000 
     23 H          83.1487   59.3017  -21.1431 H         1 3D14302     0.0000 
     24 H          79.8391   64.6986  -20.5171 H         1 3D14302     0.0000 
     25 H          83.8115   63.5193  -19.2140 H         1 3D14302     0.0000 
     26 H          83.1270   65.0932  -18.7731 H         1 3D14302     0.0000 
     27 H          85.5940   64.8346  -19.7887 H         1 3D14302     0.0000 
     28 H          84.4618   62.3199  -21.2377 H         1 3D14302     0.0000 
     29 H          78.1618   60.5922  -21.1600 H         1 3D14302     0.0000 
     30 H          85.1945   66.9054  -20.9520 H         1 3D14302     0.0000 
@<TRIPOS>BOND
     1    2    1 1    
     2   28    1 1    
     3    3    2 1    
     4   19    2 1    
     5   20    2 1    
     6    4    3 1    
     7   17    3 1    
     8   21    3 1    
     9    5    4 1    
    10    6    5 1    
    11   16    5 1    
    12   22    5 1    
    13    7    6 1    
    14   15    6 1    
    15    8    7 ar   
    16   13    7 ar   
    17    9    8 ar   
    18   10    9 ar   
    19   23    9 1    
    20   11   10 ar   
    21   12   11 1    
    22   13   11 ar   
    23   29   12 1    
    24   14   13 1    
    25   15   14 2    
    26   24   15 1    
    27   17   16 1    
    28   25   16 1    
    29   26   16 1    
    30   18   17 1    
    31   27   17 1    
    32   30   18 1    
@<TRIPOS>SUBSTRUCTURE
     1 3D14302     1 GROUP   
@<TRIPOS>SET

