#    Name: 1Z8D_2_CAVITY_N1_6.mol2
#    Modification time : Mon Mar 10 22:18:04 2014

@<TRIPOS>MOLECULE
1Z8D_2_CAVITY_N1_6.mol2
  126     0     7     0     0
SMALL
NO_CHARGES


@<TRIPOS>ATOM
      1 CZ         26.6247   -6.8517   44.5420 C.ar      5 PHE5        0.0000 
      2 CZ         25.8339   -7.4232   43.4027 C.ar      5 PHE5        0.0000 
      3 CA         25.0431   -7.9947   42.2634 C.3       6 GLY6        0.0000 
      4 CA         25.5153   -9.0979   40.5141 C.3       6 GLY6        0.0000 
      5 O          26.7961   -5.5708   43.7805 O.2       2 ALA2        0.0000 
      6 CZ         24.7422   -5.6107   43.2512 C.ar      5 PHE5        0.0000 
      7 CZ         26.0052   -6.1423   42.6412 C.ar      5 PHE5        0.0000 
      8 DU         27.2683   -6.6739   42.0312 H         7 CUB7        0.0000 
      9 O          23.9514   -6.1822   42.1119 O.2       2 ALA2        0.0000 
     10 O          25.2144   -6.7138   41.5019 O.2       2 ALA2        0.0000 
     11 DU         26.4775   -7.2454   40.8919 H         7 CUB7        0.0000 
     12 O          24.4236   -7.2853   40.3626 O.2       2 ALA2        0.0000 
     13 DU         25.6867   -7.8169   39.7526 H         7 CUB7        0.0000 
     14 O          23.6328   -7.8568   39.2233 O.2       2 ALA2        0.0000 
     15 CA         24.8959   -8.3884   38.6133 C.3       6 GLY6        0.0000 
     16 CA         26.1589   -8.9201   38.0033 C.3       6 GLY6        0.0000 
     17 CZ         24.9136   -4.3298   42.4898 C.ar      5 PHE5        0.0000 
     18 CA         26.1766   -4.8614   41.8797 C.3       6 GLY6        0.0000 
     19 O          27.4397   -5.3930   41.2697 O.2       2 ALA2        0.0000 
     20 CZ         24.1228   -4.9013   41.3504 C.ar      5 PHE5        0.0000 
     21 DU         25.3858   -5.4329   40.7404 H         7 CUB7        0.0000 
     22 DU         26.6489   -5.9645   40.1304 H         7 CUB7        0.0000 
     23 CA         23.3320   -5.4728   40.2111 C.3       6 GLY6        0.0000 
     24 DU         24.5950   -6.0044   39.6011 H         7 CUB7        0.0000 
     25 DU         27.1211   -7.0676   38.3811 H         7 CUB7        0.0000 
     26 CZ         23.8042   -6.5759   38.4618 C.ar      5 PHE5        0.0000 
     27 CA         25.0672   -7.1075   37.8518 C.3       6 GLY6        0.0000 
     28 CA         26.3303   -7.6391   37.2418 C.3       6 GLY6        0.0000 
     29 CA         23.9579   -9.3537   33.8239 C.3       6 GLY6        0.0000 
     30 CA         25.2209   -9.8853   33.2139 C.3       6 GLY6        0.0000 
     31 CA         26.3480   -3.5805   41.1182 C.3       6 GLY6        0.0000 
     32 CA         27.6110   -4.1121   40.5082 C.3       6 GLY6        0.0000 
     33 CA         24.2941   -3.6204   40.5890 C.3       6 GLY6        0.0000 
     34 CZ         25.5572   -4.1520   39.9789 C.ar      5 PHE5        0.0000 
     35 DU         26.8202   -4.6836   39.3689 H         7 CUB7        0.0000 
     36 CZ         24.7664   -4.7235   38.8396 C.ar      5 PHE5        0.0000 
     37 DU         26.0294   -5.2551   38.2296 H         7 CUB7        0.0000 
     38 CZ         25.2386   -5.8266   37.0903 C.ar      5 PHE5        0.0000 
     39 DU         26.5016   -6.3582   36.4803 H         7 CUB7        0.0000 
     40 CA         27.7647   -6.8898   35.8703 C.3       6 GLY6        0.0000 
     41 OG         24.4478   -6.3981   35.9510 O.2       1 SER1        0.0000 
     42 CA         25.7108   -6.9297   35.3410 C.3       6 GLY6        0.0000 
     43 CA         26.9739   -7.4613   34.7310 C.3       6 GLY6        0.0000 
     44 OG         23.6570   -6.9696   34.8117 O.2       1 SER1        0.0000 
     45 CA         24.9200   -7.5012   34.2017 C.3       6 GLY6        0.0000 
     46 CA         26.1831   -8.0329   33.5917 C.3       6 GLY6        0.0000 
     47 CA         27.4461   -8.5645   32.9817 C.3       6 GLY6        0.0000 
     48 OG         24.1292   -8.0727   33.0624 O.2       1 SER1        0.0000 
     49 CA         25.3923   -8.6044   32.4524 C.3       6 GLY6        0.0000 
     50 CZ         26.6553   -9.1360   31.8424 C.ar      5 PHE5        0.0000 
     51 OG         23.3384   -8.6442   31.9231 O.2       1 SER1        0.0000 
     52 CA         24.6015   -9.1759   31.3131 C.3       6 GLY6        0.0000 
     53 O          26.5194   -2.2995   40.3568 O.2       2 ALA2        0.0000 
     54 CA         27.7824   -2.8312   39.7467 C.3       6 GLY6        0.0000 
     55 DU         29.0454   -3.3628   39.1367 H         7 CUB7        0.0000 
     56 CZ         25.7285   -2.8710   39.2174 C.ar      5 PHE5        0.0000 
     57 DU         26.9916   -3.4027   38.6074 H         7 CUB7        0.0000 
     58 CZ         26.2008   -3.9742   37.4681 C.ar      5 PHE5        0.0000 
     59 DU         27.4638   -4.5058   36.8581 H         7 CUB7        0.0000 
     60 DU         29.9899   -5.5690   35.6381 H         7 CUB7        0.0000 
     61 CZ         25.4100   -4.5457   36.3288 C.ar      5 PHE5        0.0000 
     62 DU         26.6730   -5.0773   35.7188 H         7 CUB7        0.0000 
     63 DU         27.9361   -5.6089   35.1088 H         7 CUB7        0.0000 
     64 CZ         29.1991   -6.1405   34.4988 C.ar      5 PHE5        0.0000 
     65 OG         25.8822   -5.6488   34.5795 O.2       1 SER1        0.0000 
     66 DU         27.1452   -6.1804   33.9695 H         7 CUB7        0.0000 
     67 CZ         28.4083   -6.7120   33.3595 C.ar      5 PHE5        0.0000 
     68 OG         25.0914   -6.2203   33.4402 O.2       1 SER1        0.0000 
     69 OD1        26.3544   -6.7519   32.8302 O.3       3 ASP3        0.0000 
     70 CZ         27.6175   -7.2835   32.2202 C.ar      5 PHE5        0.0000 
     71 O          24.3006   -6.7918   32.3009 O.2       2 ALA2        0.0000 
     72 O          25.5636   -7.3234   31.6909 O.2       2 ALA2        0.0000 
     73 O          26.8267   -7.8551   31.0809 O.2       2 ALA2        0.0000 
     74 CZ         30.0076   -1.5104   39.5145 C.ar      5 PHE5        0.0000 
     75 CA         27.9538   -1.5502   38.9852 C.3       6 GLY6        0.0000 
     76 CZ         29.2168   -2.0819   38.3752 C.ar      5 PHE5        0.0000 
     77 CZ         30.4798   -2.6135   37.7652 C.ar      5 PHE5        0.0000 
     78 CA         25.8999   -1.5901   38.4560 C.3       6 GLY6        0.0000 
     79 CA         27.1630   -2.1217   37.8459 C.3       6 GLY6        0.0000 
     80 DU         28.4260   -2.6534   37.2359 H         7 CUB7        0.0000 
     81 CZ         29.6890   -3.1850   36.6259 C.ar      5 PHE5        0.0000 
     82 O          30.9521   -3.7166   36.0159 O.2       2 ALA2        0.0000 
     83 CZ         26.3722   -2.6933   36.7066 C.ar      5 PHE5        0.0000 
     84 DU         27.6352   -3.2249   36.0966 H         7 CUB7        0.0000 
     85 DU         28.8982   -3.7565   35.4866 H         7 CUB7        0.0000 
     86 CZ         30.1613   -4.2881   34.8766 C.ar      5 PHE5        0.0000 
     87 CZ         31.4243   -4.8197   34.2666 C.ar      5 PHE5        0.0000 
     88 OG         25.5813   -3.2648   35.5673 O.2       1 SER1        0.0000 
     89 OG         26.8444   -3.7964   34.9573 O.2       1 SER1        0.0000 
     90 DU         28.1074   -4.3280   34.3473 H         7 CUB7        0.0000 
     91 CZ         29.3705   -4.8596   33.7373 C.ar      5 PHE5        0.0000 
     92 OG         26.0536   -4.3679   33.8180 O.2       1 SER1        0.0000 
     93 O          27.3166   -4.8995   33.2080 O.2       2 ALA2        0.0000 
     94 CZ         28.5797   -5.4311   32.5980 C.ar      5 PHE5        0.0000 
     95 O          26.5258   -5.4710   32.0687 O.2       2 ALA2        0.0000 
     96 O          27.7889   -6.0026   31.4587 O.2       2 ALA2        0.0000 
     97 CA         27.3343   -0.8408   37.0844 C.3       6 GLY6        0.0000 
     98 CZ         28.5974   -1.3724   36.4744 C.ar      5 PHE5        0.0000 
     99 CZ         29.8604   -1.9041   35.8644 C.ar      5 PHE5        0.0000 
    100 O          31.1234   -2.4357   35.2544 O.2       2 ALA2        0.0000 
    101 CZ         25.2805   -0.8807   36.5552 C.ar      5 PHE5        0.0000 
    102 CZ         26.5435   -1.4123   35.9451 C.ar      5 PHE5        0.0000 
    103 CZ         27.8066   -1.9439   35.3351 C.ar      5 PHE5        0.0000 
    104 CZ         29.0696   -2.4756   34.7251 C.ar      5 PHE5        0.0000 
    105 O          30.3326   -3.0072   34.1151 O.2       2 ALA2        0.0000 
    106 CZ         31.5957   -3.5388   33.5051 C.ar      5 PHE5        0.0000 
    107 OG         25.7527   -1.9838   34.8058 O.2       1 SER1        0.0000 
    108 DU         27.0158   -2.5155   34.1958 H         7 CUB7        0.0000 
    109 DU         28.2788   -3.0471   33.5858 H         7 CUB7        0.0000 
    110 CZ         29.5418   -3.5787   32.9758 C.ar      5 PHE5        0.0000 
    111 O          26.2249   -3.0870   33.0565 O.2       2 ALA2        0.0000 
    112 O          27.4880   -3.6186   32.4465 O.2       2 ALA2        0.0000 
    113 CZ         28.7510   -4.1502   31.8365 C.ar      5 PHE5        0.0000 
    114 N          26.7149   -0.1314   35.1837 N.2       2 ALA2        0.0000 
    115 CZ         27.9779   -0.6630   34.5736 C.ar      5 PHE5        0.0000 
    116 CZ         29.2410   -1.1946   33.9636 C.ar      5 PHE5        0.0000 
    117 NZ         30.5040   -1.7263   33.3536 N.2       4 LYS4        0.0000 
    118 O          25.9241   -0.7029   34.0443 O.2       2 ALA2        0.0000 
    119 O          27.1871   -1.2345   33.4343 O.2       2 ALA2        0.0000 
    120 O          28.4502   -1.7662   32.8243 O.2       2 ALA2        0.0000 
    121 O          29.7132   -2.2978   32.2143 O.2       2 ALA2        0.0000 
    122 O          27.6594   -2.3377   31.6850 O.2       2 ALA2        0.0000 
    123 CZ         28.1493    0.6179   33.8121 C.ar      5 PHE5        0.0000 
    124 NZ         29.4123    0.0863   33.2021 N.2       4 LYS4        0.0000 
    125 O          27.3585    0.0464   32.6728 O.2       2 ALA2        0.0000 
    126 O          28.6215   -0.4852   32.0628 O.2       2 ALA2        0.0000 
@<TRIPOS>BOND
@<TRIPOS>SUBSTRUCTURE
     1 SER1       41 GROUP   
     2 ALA2        5 GROUP   
     3 ASP3       69 GROUP   
     4 LYS4      117 GROUP   
     5 PHE5        1 GROUP   
     6 GLY6        3 GROUP   
     7 CUB7        8 GROUP   
@<TRIPOS>SET

