#    Name: 1z8d_AMP_2_INTS_M
#    Modification time : Mon Apr  7 16:55:21 2014

@<TRIPOS>MOLECULE
1z8d_AMP_2_INTS_M
   47     0    12     0     0
SMALL
NO_CHARGES


@<TRIPOS>ATOM
      1 NZ         25.3035   -1.3015   32.5000 N.4       3 LYC4        0.0000 
      2 NZ         25.2400   -1.8970   34.0730 N.4      11 LYL4        0.0000 
      3 NZ         24.0570   -0.5370   31.0490 N.4       7 LYP4        0.0000 
      4 N          24.1750   -2.7500   34.3215 N.am      2 SEC2        0.0000 
      5 N          25.2400   -1.8970   34.0730 N.am     10 SEL2        0.0000 
      6 N          23.1100   -3.6030   34.5700 N.am      6 SEP2        0.0000 
      7 N          24.3400   -1.4065   33.1180 N.am      2 SEC2        0.0000 
      8 N          23.4400   -0.9160   32.1630 N.am      6 SEP2        0.0000 
      9 N          25.3035   -1.3015   32.5000 N.am      2 SEC2        0.0000 
     10 N          25.3670   -0.7060   30.9270 N.am      6 SEP2        0.0000 
     11 NZ         26.3475   -1.1375   31.8620 N.4       3 LYC4        0.0000 
     12 NZ         27.3280   -1.5690   32.7970 N.4      11 LYL4        0.0000 
     13 N          26.3475   -1.1375   31.8620 N.am      2 SEC2        0.0000 
     14 N          27.3280   -1.5690   32.7970 N.am     10 SEL2        0.0000 
     15 NZ         25.8780   -4.4485   31.4135 N.4       3 LYC4        0.0000 
     16 NZ         26.3910   -3.8800   33.1020 N.4      11 LYL4        0.0000 
     17 NZ         25.3650   -5.0170   29.7250 N.4       7 LYP4        0.0000 
     18 CA         29.7930   -1.3620   36.8940 C.3       4 GLC5        0.0000 
     19 CA         28.9060   -3.2920   37.3680 C.3      12 GLL5        0.0000 
     20 CA         30.6800    0.5680   36.4200 C.3       8 GLP5        0.0000 
     21 CA         26.7800   -1.1180   38.8540 C.3       4 GLC5        0.0000 
     22 CA         26.8320   -3.2200   38.8320 C.3      12 GLL5        0.0000 
     23 CA         26.7280    0.9840   38.8760 C.3       8 GLP5        0.0000 
     24 CA         25.0115   -2.9070   37.7895 C.3       4 GLC5        0.0000 
     25 CA         23.1910   -2.5940   36.7470 C.3       8 GLP5        0.0000 
     26 CA         21.7495   -6.9880   40.4270 C.3       4 GLC5        0.0000 
     27 CA         23.3830   -6.7480   39.0770 C.3      12 GLL5        0.0000 
     28 CA         20.1160   -7.2280   41.7770 C.3       8 GLP5        0.0000 
     29 CA         23.1465   -8.2410   40.6980 C.3       4 GLC5        0.0000 
     30 CA         22.9100   -9.7340   42.3190 C.3       8 GLP5        0.0000 
     31 O          21.3015   -8.0900   38.8160 O.2       1 ALC1        0.0000 
     32 O          22.7090   -7.7000   38.3400 O.2       9 ALL1        0.0000 
     33 O          19.8940   -8.4800   39.2920 O.2       5 ALP1        0.0000 
     34 N          22.6560   -7.5285   41.1970 N.am      2 SEC2        0.0000 
     35 N          23.1810   -6.4930   40.4330 N.am     10 SEL2        0.0000 
     36 N          22.1310   -8.5640   41.9610 N.am      6 SEP2        0.0000 
     37 CA         22.4985   -4.4045   40.5085 C.3       4 GLC5        0.0000 
     38 CA         23.8650   -5.5470   41.1190 C.3      12 GLL5        0.0000 
     39 CA         21.1320   -3.2620   39.8980 C.3       8 GLP5        0.0000 
     40 CA         21.9905   -6.3875   41.4480 C.3       4 GLC5        0.0000 
     41 CA         23.3875   -7.6405   41.7190 C.3       4 GLC5        0.0000 
     42 CA         29.2955   -0.5488   36.4595 C.3       4 GLC5        0.0000 
     43 CA         28.0220   -1.8810   37.2300 C.3      12 GLL5        0.0000 
     44 CA         27.3195   -0.3407   37.6875 C.3       4 GLC5        0.0000 
     45 CA         27.8000   -1.4500   35.7680 C.3      12 GLL5        0.0000 
     46 CA         22.7895   -4.4612   39.4521 C.3       4 GLC5        0.0000 
     47 CA         24.3670   -5.9380   38.4280 C.3      12 GLL5        0.0000 
@<TRIPOS>BOND
@<TRIPOS>SUBSTRUCTURE
     1 ALC1       31 GROUP        1 X    ALC  0     ROOT ALC X 1
     2 SEC2        4 GROUP        1 X    SEC  0     **** SEC X 2
     3 LYC4        1 GROUP        1 X    LYC  0     **** LYC X 4
     4 GLC5       18 GROUP        1 X    GLC  0     **** GLC X 6
     5 ALP1       33 GROUP        1 Y    ALP  0     ROOT ALP Y 8
     6 SEP2        6 GROUP        1 Y    SEP  0     **** SEP Y 9
     7 LYP4        3 GROUP        1 Y    LYP  0     **** LYP Y 11
     8 GLP5       20 GROUP        1 Y    GLP  0     **** GLP Y 13
     9 ALL1       32 GROUP        1 Z    ALL  0     ROOT ALL Z 15
    10 SEL2        5 GROUP        1 Z    SEL  0     **** SEL Z 16
    11 LYL4        2 GROUP        1 Z    LYL  0     **** LYL Z 18
    12 GLL5       19 GROUP        1 Z    GLL  0     **** GLL Z 20
@<TRIPOS>SET

