#    Name: 1z8d_AMP_2_ligand
#    Modification time : Mon Apr  7 16:55:22 2014

@<TRIPOS>MOLECULE
1z8d_AMP_2_ligand
   35    37     1     0     0
SMALL
NO_CHARGES


@<TRIPOS>ATOM
      1 P          26.5250   -2.4810   33.6690 P.3       1 AMP900      0.0000 
      2 O1P        25.2400   -1.8970   34.0730 O.co2     1 AMP900      0.0000 
      3 O2P        27.3280   -1.5690   32.7970 O.co2     1 AMP900      0.0000 
      4 O3P        26.3910   -3.8800   33.1020 O.co2     1 AMP900      0.0000 
      5 O5'        27.3260   -2.6340   35.0750 O.3       1 AMP900      0.0000 
      6 C5'        27.8000   -1.4500   35.7680 C.3       1 AMP900      0.0000 
      7 C4'        28.0220   -1.8810   37.2300 C.3       1 AMP900      0.0000 
      8 O4'        26.7190   -2.1480   37.8720 O.3       1 AMP900      0.0000 
      9 C3'        28.9060   -3.2920   37.3680 C.3       1 AMP900      0.0000 
     10 O3'        30.3590   -2.9010   37.3080 O.3       1 AMP900      0.0000 
     11 C2'        28.3770   -3.7150   38.8230 C.3       1 AMP900      0.0000 
     12 O2'        29.0130   -3.0010   39.8630 O.3       1 AMP900      0.0000 
     13 C1'        26.8320   -3.2200   38.8320 C.3       1 AMP900      0.0000 
     14 N9         25.9010   -4.3270   38.4490 N.pl3     1 AMP900      0.0000 
     15 C8         25.7280   -4.9420   37.1900 C.2       1 AMP900      0.0000 
     16 N7         24.8130   -5.9310   37.1030 N.2       1 AMP900      0.0000 
     17 C5         24.3670   -5.9380   38.4280 C.ar      1 AMP900      0.0000 
     18 C6         23.3830   -6.7480   39.0770 C.ar      1 AMP900      0.0000 
     19 N6         22.7090   -7.7000   38.3400 N.pl3     1 AMP900      0.0000 
     20 N1         23.1810   -6.4930   40.4330 N.ar      1 AMP900      0.0000 
     21 C2         23.8650   -5.5470   41.1190 C.ar      1 AMP900      0.0000 
     22 N3         24.8140   -4.7330   40.5880 N.ar      1 AMP900      0.0000 
     23 C4         25.0190   -4.9780   39.2600 C.ar      1 AMP900      0.0000 
     24 H          27.0681   -0.6615   35.7581 H         1 AMP900      0.0000 
     25 H          28.7398   -1.1055   35.3734 H         1 AMP900      0.0000 
     26 H          28.5648   -1.1445   37.7658 H         1 AMP900      0.0000 
     27 H          28.5537   -3.9128   36.6681 H         1 AMP900      0.0000 
     28 H          28.3639   -4.7404   38.8970 H         1 AMP900      0.0000 
     29 H          26.6318   -2.8794   39.8215 H         1 AMP900      0.0000 
     30 H          26.2831   -4.6322   36.4005 H         1 AMP900      0.0000 
     31 H          23.2034   -8.0841   37.5602 H         1 AMP900      0.0000 
     32 H          21.7847   -7.9232   38.6497 H         1 AMP900      0.0000 
     33 H          23.6413   -5.4299   42.1632 H         1 AMP900      0.0000 
     34 H          30.8543   -3.7624   37.1958 H         1 AMP900      0.0000 
     35 H          29.7448   -2.4878   39.4145 H         1 AMP900      0.0000 
@<TRIPOS>BOND
     1    2    1 ar   
     2    3    1 ar   
     3    4    1 ar   
     4    5    1 1    
     5    6    5 1    
     6    7    6 1    
     7   24    6 1    
     8   25    6 1    
     9    8    7 1    
    10    9    7 1    
    11   26    7 1    
    12   13    8 1    
    13   10    9 1    
    14   11    9 1    
    15   27    9 1    
    16   34   10 1    
    17   12   11 1    
    18   13   11 1    
    19   28   11 1    
    20   35   12 1    
    21   14   13 1    
    22   29   13 1    
    23   15   14 1    
    24   23   14 1    
    25   16   15 2    
    26   30   15 1    
    27   17   16 1    
    28   18   17 ar   
    29   23   17 ar   
    30   19   18 1    
    31   20   18 ar   
    32   31   19 1    
    33   32   19 1    
    34   21   20 ar   
    35   22   21 ar   
    36   33   21 1    
    37   23   22 ar   
@<TRIPOS>SUBSTRUCTURE
     1 AMP900      1 GROUP   
@<TRIPOS>SET

