#    Name: 2e0i_FAD_3_INTS_M
#    Modification time : Tue Mar 25 10:27:38 2014

@<TRIPOS>MOLECULE
2e0i_FAD_3_INTS_M
   86     0     9     0     0
SMALL
NO_CHARGES


@<TRIPOS>ATOM
      1 N          22.3100    6.0725  -12.5045 N.am      2 SEC2        0.0000 
      2 N          23.0030    7.1630  -12.9590 N.am      8 SEL2        0.0000 
      3 N          21.6170    4.9820  -12.0500 N.am      5 SEP2        0.0000 
      4 CA         26.4860    8.0545  -12.4180 C.3       3 GLC5        0.0000 
      5 CA         25.5380    9.5330  -11.8220 C.3       9 GLL5        0.0000 
      6 CA         27.4340    6.5760  -13.0140 C.3       6 GLP5        0.0000 
      7 N          24.0880   13.8440   -8.0460 N.am      2 SEC2        0.0000 
      8 N          24.5220   12.4070   -8.6480 N.am      8 SEL2        0.0000 
      9 N          23.6540   15.2810   -7.4440 N.am      5 SEP2        0.0000 
     10 CA         27.7580   11.8480  -11.2620 C.3       3 GLC5        0.0000 
     11 CA         26.0060   12.7470  -10.5350 C.3       9 GLL5        0.0000 
     12 CA         29.5100   10.9490  -11.9890 C.3       6 GLP5        0.0000 
     13 CA         27.6060   12.4840   -9.0580 C.3       3 GLC5        0.0000 
     14 CA         29.2060   12.2210   -7.5810 C.3       6 GLP5        0.0000 
     15 O          26.1915   17.4685  -15.9880 O.2       1 ALC1        0.0000 
     16 O          26.5900   16.0870  -15.4610 O.2       7 ALL1        0.0000 
     17 O          25.7930   18.8500  -16.5150 O.2       4 ALP1        0.0000 
     18 N          25.6640   18.2835  -13.9370 N.am      2 SEC2        0.0000 
     19 N          26.3270   17.0160  -13.3540 N.am      8 SEL2        0.0000 
     20 N          25.0010   19.5510  -14.5200 N.am      5 SEP2        0.0000 
     21 CA         27.9760   16.5845  -11.7330 C.3       3 GLC5        0.0000 
     22 CA         26.1690   16.8980  -12.0460 C.3       9 GLL5        0.0000 
     23 CA         29.7830   16.2710  -11.4200 C.3       6 GLP5        0.0000 
     24 CA         24.8600   18.0775  -11.6170 C.3       3 GLC5        0.0000 
     25 CA         23.5510   19.2570  -11.1880 C.3       6 GLP5        0.0000 
     26 O          18.4580   18.1280  -10.1555 O.2       1 ALC1        0.0000 
     27 O          19.5120   18.3000  -11.1480 O.2       7 ALL1        0.0000 
     28 O          17.4040   17.9560   -9.1630 O.2       4 ALP1        0.0000 
     29 N          18.3040   20.4635  -10.9220 N.am      2 SEC2        0.0000 
     30 N          18.6180   19.9410  -12.4400 N.am      8 SEL2        0.0000 
     31 N          17.9900   20.9860   -9.4040 N.am      5 SEP2        0.0000 
     32 N          19.5205   20.7235  -15.0780 N.am      2 SEC2        0.0000 
     33 N          20.0930   19.3600  -14.6440 N.am      8 SEL2        0.0000 
     34 N          18.9480   22.0870  -15.5120 N.am      5 SEP2        0.0000 
     35 CA         21.2475   20.5350  -21.1075 C.3       3 GLC5        0.0000 
     36 CA         21.3700   20.1970  -19.3350 C.3       9 GLL5        0.0000 
     37 CA         21.1250   20.8730  -22.8800 C.3       6 GLP5        0.0000 
     38 CA         19.5360   19.7695  -19.2515 C.3       3 GLC5        0.0000 
     39 CA         17.7020   19.3420  -19.1680 C.3       6 GLP5        0.0000 
     40 CA         20.1900   21.8100  -19.5575 C.3       3 GLC5        0.0000 
     41 CA         19.0100   23.4230  -19.7800 C.3       6 GLP5        0.0000 
     42 CA         21.9260   16.7895  -19.3595 C.3       3 GLC5        0.0000 
     43 CA         23.4470   18.0860  -19.0900 C.3       9 GLL5        0.0000 
     44 CA         20.4050   15.4930  -19.6290 C.3       6 GLP5        0.0000 
     45 CA         23.8910   17.5315  -20.7960 C.3       3 GLC5        0.0000 
     46 CA         24.3350   16.9770  -22.5020 C.3       6 GLP5        0.0000 
     47 CA         23.3580   17.8435  -12.6855 C.3       3 GLC5        0.0000 
     48 CA         23.1650   16.4300  -14.1830 C.3       9 GLL5        0.0000 
     49 CA         20.1600   12.6300  -11.3840 C.3       3 GLC5        0.0000 
     50 CA         20.6690   12.1820  -13.0240 C.3       9 GLL5        0.0000 
     51 CA         19.6510   13.0780   -9.7440 C.3       6 GLP5        0.0000 
     52 CA         18.9395   11.1620  -13.4905 C.3       3 GLC5        0.0000 
     53 CA         17.2100   10.1420  -13.9570 C.3       6 GLP5        0.0000 
     54 N          19.5430    9.7005  -14.2125 N.am      2 SEC2        0.0000 
     55 N          20.4390   10.8090  -13.3590 N.am      8 SEL2        0.0000 
     56 N          18.6470    8.5920  -15.0660 N.am      5 SEP2        0.0000 
     57 N          20.2135    9.0925  -10.0265 N.am      2 SEC2        0.0000 
     58 N          20.9320    9.9380  -11.0680 N.am      8 SEL2        0.0000 
     59 N          19.4950    8.2470   -8.9850 N.am      5 SEP2        0.0000 
     60 N          20.3105   10.4625   -9.7710 N.am      2 SEC2        0.0000 
     61 N          19.6890   10.9870   -8.4740 N.am      5 SEP2        0.0000 
     62 N          20.0430    7.4405  -12.0865 N.am      2 SEC2        0.0000 
     63 N          20.5490    8.3320  -13.0010 N.am      8 SEL2        0.0000 
     64 N          19.5370    6.5490  -11.1720 N.am      5 SEP2        0.0000 
     65 N          19.5980    8.4620  -14.0335 N.am      2 SEC2        0.0000 
     66 CA         27.4788   10.4835  -11.6128 C.3       3 GLC5        0.0000 
     67 CA         25.6197   14.2760   -8.8893 C.3       3 GLC5        0.0000 
     68 CA         25.9580   15.8590   -7.4820 C.3       6 GLP5        0.0000 
     69 CA         28.0183   15.6088  -12.2301 C.3       3 GLC5        0.0000 
     70 CA         26.3100   14.6720  -13.5870 C.3       9 GLL5        0.0000 
     71 CA         20.9772   20.9725  -14.9330 C.3       3 GLC5        0.0000 
     72 CA         20.7490   19.7240  -16.9390 C.3       9 GLL5        0.0000 
     73 CA         21.1170   22.5540  -13.5320 C.3       6 GLP5        0.0000 
     74 CA         22.6013   20.0790  -16.4355 C.3       3 GLC5        0.0000 
     75 CA         20.9260   19.0580  -15.7290 C.3       9 GLL5        0.0000 
     76 CA         24.3650   20.7670  -16.5370 C.3       6 GLP5        0.0000 
     77 CA         20.4988   17.9997  -18.6433 C.3       3 GLC5        0.0000 
     78 CA         21.5650   19.4280  -18.0260 C.3       9 GLL5        0.0000 
     79 CA         19.5300   16.1870  -18.6060 C.3       6 GLP5        0.0000 
     80 CA         22.9162   20.2897  -17.6088 C.3       3 GLC5        0.0000 
     81 CA         23.6833   19.5195  -17.5165 C.3       3 GLC5        0.0000 
     82 CA         22.5560   18.4580  -17.9020 C.3       9 GLL5        0.0000 
     83 CA         23.3457   19.3570  -16.3377 C.3       3 GLC5        0.0000 
     84 CA         22.7300   17.8000  -16.6870 C.3       9 GLL5        0.0000 
     85 CA         20.7708   17.3114  -17.6171 C.3       3 GLC5        0.0000 
     86 CA         21.9230   18.0940  -15.5900 C.3       9 GLL5        0.0000 
@<TRIPOS>BOND
@<TRIPOS>SUBSTRUCTURE
     1 ALC1       15 GROUP        1 X    ALC  0     ROOT ALC X 1
     2 SEC2        1 GROUP        1 X    SEC  0     **** SEC X 2
     3 GLC5        4 GROUP        1 X    GLC  0     **** GLC X 6
     4 ALP1       17 GROUP        1 Y    ALP  0     ROOT ALP Y 8
     5 SEP2        3 GROUP        1 Y    SEP  0     **** SEP Y 9
     6 GLP5        6 GROUP        1 Y    GLP  0     **** GLP Y 13
     7 ALL1       16 GROUP        1 Z    ALL  0     ROOT ALL Z 15
     8 SEL2        2 GROUP        1 Z    SEL  0     **** SEL Z 16
     9 GLL5        5 GROUP        1 Z    GLL  0     **** GLL Z 20
@<TRIPOS>SET

