#    Name: 2e0i_FAD_3_ligand
#    Modification time : Tue Mar 25 10:27:38 2014

@<TRIPOS>MOLECULE
2e0i_FAD_3_ligand
   84    89     1     0     0
SMALL
NO_CHARGES


@<TRIPOS>ATOM
      1 PA         23.5780    8.4870  -13.2860 P.3       1 FAD1300     0.0000 
      2 O1A        23.0030    7.1630  -12.9590 O.co2     1 FAD1300     0.0000 
      3 O2A        24.6620    8.7270  -14.2650 O.co2     1 FAD1300     0.0000 
      4 O5B        24.4390    8.6240  -11.9310 O.3       1 FAD1300     0.0000 
      5 C5B        25.5380    9.5330  -11.8220 C.3       1 FAD1300     0.0000 
      6 C4B        25.3570   10.5030  -10.6510 C.3       1 FAD1300     0.0000 
      7 O4B        26.4850   11.3900  -10.5500 O.3       1 FAD1300     0.0000 
      8 C3B        24.1180   11.3870  -10.8130 C.3       1 FAD1300     0.0000 
      9 O3B        23.0260   10.7950  -10.1050 O.3       1 FAD1300     0.0000 
     10 C2B        24.5570   12.6390  -10.0580 C.3       1 FAD1300     0.0000 
     11 O2B        24.5220   12.4070   -8.6480 O.3       1 FAD1300     0.0000 
     12 C1B        26.0060   12.7470  -10.5350 C.3       1 FAD1300     0.0000 
     13 N9A        26.0920   13.2940  -11.9070 N.pl3     1 FAD1300     0.0000 
     14 C8A        26.1970   12.5960  -13.0370 C.2       1 FAD1300     0.0000 
     15 N7A        26.3320   13.4310  -14.0650 N.2       1 FAD1300     0.0000 
     16 C5A        26.3100   14.6720  -13.5870 C.ar      1 FAD1300     0.0000 
     17 C6A        26.4040   15.9400  -14.1520 C.ar      1 FAD1300     0.0000 
     18 N6A        26.5900   16.0870  -15.4610 N.pl3     1 FAD1300     0.0000 
     19 N1A        26.3270   17.0160  -13.3540 N.ar      1 FAD1300     0.0000 
     20 C2A        26.1690   16.8980  -12.0460 C.ar      1 FAD1300     0.0000 
     21 N3A        26.0830   15.7080  -11.4760 N.ar      1 FAD1300     0.0000 
     22 C4A        26.1500   14.5870  -12.2110 C.ar      1 FAD1300     0.0000 
     23 N1         21.2920   16.9640  -12.1020 N.2       1 FAD1300     0.0000 
     24 C2         20.4510   17.2700  -11.0230 C.2       1 FAD1300     0.0000 
     25 O2         20.5080   16.6250   -9.9780 O.2       1 FAD1300     0.0000 
     26 N3         19.5120   18.3000  -11.1480 N.am      1 FAD1300     0.0000 
     27 C4         19.4170   19.0110  -12.3510 C.2       1 FAD1300     0.0000 
     28 O4         18.6180   19.9410  -12.4400 O.2       1 FAD1300     0.0000 
     29 C4X        20.2450   18.6930  -13.4230 C.2       1 FAD1300     0.0000 
     30 N5         20.0930   19.3600  -14.6440 N.2       1 FAD1300     0.0000 
     31 C5X        20.9260   19.0580  -15.7290 C.ar      1 FAD1300     0.0000 
     32 C6         20.7490   19.7240  -16.9390 C.ar      1 FAD1300     0.0000 
     33 C7         21.5650   19.4280  -18.0260 C.ar      1 FAD1300     0.0000 
     34 C7M        21.3700   20.1970  -19.3350 C.3       1 FAD1300     0.0000 
     35 C8         22.5560   18.4580  -17.9020 C.ar      1 FAD1300     0.0000 
     36 C8M        23.4470   18.0860  -19.0900 C.3       1 FAD1300     0.0000 
     37 C9         22.7300   17.8000  -16.6870 C.ar      1 FAD1300     0.0000 
     38 C9A        21.9230   18.0940  -15.5900 C.ar      1 FAD1300     0.0000 
     39 N10        22.0810   17.4270  -14.3610 N.pl3     1 FAD1300     0.0000 
     40 C10        21.1880   17.6750  -13.3060 C.2       1 FAD1300     0.0000 
     41 C1'        23.1650   16.4300  -14.1830 C.3       1 FAD1300     0.0000 
     42 C2'        22.8370   14.9950  -14.6030 C.3       1 FAD1300     0.0000 
     43 O2'        22.2790   14.9880  -15.9200 O.3       1 FAD1300     0.0000 
     44 C3'        21.8670   14.3260  -13.6280 C.3       1 FAD1300     0.0000 
     45 O3'        22.3980   14.4430  -12.3060 O.3       1 FAD1300     0.0000 
     46 C4'        21.6740   12.8450  -13.9700 C.3       1 FAD1300     0.0000 
     47 O4'        21.2230   12.7090  -15.3210 O.3       1 FAD1300     0.0000 
     48 C5'        20.6690   12.1820  -13.0240 C.3       1 FAD1300     0.0000 
     49 O5'        20.4390   10.8090  -13.3590 O.3       1 FAD1300     0.0000 
     50 P          21.0990    9.6140  -12.5030 P.3       1 FAD1300     0.0000 
     51 O1P        20.9320    9.9380  -11.0680 O.co2     1 FAD1300     0.0000 
     52 O2P        20.5490    8.3320  -13.0010 O.co2     1 FAD1300     0.0000 
     53 O3P        22.6580    9.7500  -12.8920 O.3       1 FAD1300     0.0000 
     54 H          25.6566   10.1371  -12.7381 H         1 FAD1300     0.0000 
     55 H          26.4915    8.9992  -11.6665 H         1 FAD1300     0.0000 
     56 H          25.2435    9.9357   -9.7401 H         1 FAD1300     0.0000 
     57 H          23.9615   11.6024  -11.7948 H         1 FAD1300     0.0000 
     58 H          24.0234   13.4522  -10.3990 H         1 FAD1300     0.0000 
     59 H          26.5503   13.3333   -9.8456 H         1 FAD1300     0.0000 
     60 H          26.1778   11.6187  -13.1009 H         1 FAD1300     0.0000 
     61 H          27.0961   15.3558  -15.9184 H         1 FAD1300     0.0000 
     62 H          26.2069   16.9155  -15.8696 H         1 FAD1300     0.0000 
     63 H          26.1107   17.7679  -11.4478 H         1 FAD1300     0.0000 
     64 H          18.8971   18.5332  -10.3641 H         1 FAD1300     0.0000 
     65 H          20.0123   20.4370  -17.0287 H         1 FAD1300     0.0000 
     66 H          23.4694   17.0822  -16.5974 H         1 FAD1300     0.0000 
     67 H          23.4851   16.4089  -13.1133 H         1 FAD1300     0.0000 
     68 H          24.0711   16.7539  -14.7497 H         1 FAD1300     0.0000 
     69 H          23.7678   14.4250  -14.5856 H         1 FAD1300     0.0000 
     70 H          20.9138   14.8207  -13.7067 H         1 FAD1300     0.0000 
     71 H          22.6318   12.3462  -13.8366 H         1 FAD1300     0.0000 
     72 H          19.7345   12.7705  -13.0667 H         1 FAD1300     0.0000 
     73 H          21.0612   12.2870  -11.9961 H         1 FAD1300     0.0000 
     74 H          21.5056   21.1801  -19.2119 H         1 FAD1300     0.0000 
     75 H          22.0128   19.8985  -20.0404 H         1 FAD1300     0.0000 
     76 H          20.4496   20.0722  -19.7055 H         1 FAD1300     0.0000 
     77 H          23.9641   18.8727  -19.4271 H         1 FAD1300     0.0000 
     78 H          24.1123   17.3796  -18.8484 H         1 FAD1300     0.0000 
     79 H          22.9130   17.7349  -19.8591 H         1 FAD1300     0.0000 
     80 H          22.3466   10.5833  -10.8075 H         1 FAD1300     0.0000 
     81 H          23.8267   11.6999   -8.5194 H         1 FAD1300     0.0000 
     82 H          21.7845   14.1214  -15.9868 H         1 FAD1300     0.0000 
     83 H          22.1163   15.3502  -11.9934 H         1 FAD1300     0.0000 
     84 H          20.2305   12.6069  -15.2534 H         1 FAD1300     0.0000 
@<TRIPOS>BOND
     1    2    1 ar   
     2    3    1 ar   
     3    4    1 1    
     4   53    1 1    
     5    5    4 1    
     6    6    5 1    
     7   54    5 1    
     8   55    5 1    
     9    7    6 1    
    10    8    6 1    
    11   56    6 1    
    12   12    7 1    
    13    9    8 1    
    14   10    8 1    
    15   57    8 1    
    16   80    9 1    
    17   11   10 1    
    18   12   10 1    
    19   58   10 1    
    20   81   11 1    
    21   13   12 1    
    22   59   12 1    
    23   14   13 1    
    24   22   13 1    
    25   15   14 2    
    26   60   14 1    
    27   16   15 1    
    28   17   16 ar   
    29   22   16 ar   
    30   18   17 1    
    31   19   17 ar   
    32   61   18 1    
    33   62   18 1    
    34   20   19 ar   
    35   21   20 ar   
    36   63   20 1    
    37   22   21 ar   
    38   24   23 1    
    39   40   23 2    
    40   25   24 2    
    41   26   24 am   
    42   27   26 am   
    43   64   26 1    
    44   28   27 2    
    45   29   27 1    
    46   30   29 2    
    47   40   29 1    
    48   31   30 1    
    49   32   31 ar   
    50   38   31 ar   
    51   33   32 ar   
    52   65   32 1    
    53   34   33 1    
    54   35   33 ar   
    55   74   34 1    
    56   75   34 1    
    57   76   34 1    
    58   36   35 1    
    59   37   35 ar   
    60   77   36 1    
    61   78   36 1    
    62   79   36 1    
    63   38   37 ar   
    64   66   37 1    
    65   39   38 1    
    66   40   39 1    
    67   41   39 1    
    68   42   41 1    
    69   67   41 1    
    70   68   41 1    
    71   43   42 1    
    72   44   42 1    
    73   69   42 1    
    74   82   43 1    
    75   45   44 1    
    76   46   44 1    
    77   70   44 1    
    78   83   45 1    
    79   47   46 1    
    80   48   46 1    
    81   71   46 1    
    82   84   47 1    
    83   49   48 1    
    84   72   48 1    
    85   73   48 1    
    86   50   49 1    
    87   51   50 ar   
    88   52   50 ar   
    89   53   50 1    
@<TRIPOS>SUBSTRUCTURE
     1 FAD1300     1 GROUP   
@<TRIPOS>SET

