#    Name: 1ybg_TAV_4_INTS_M
#    Modification time : Tue Mar 25 10:56:03 2014

@<TRIPOS>MOLECULE
1ybg_TAV_4_INTS_M
   69     0     6     0     0
SMALL
NO_CHARGES


@<TRIPOS>ATOM
      1 CA        -38.1490  -12.8770  106.9330 C.3       2 GLC5        0.0000 
      2 CA        -37.4710  -14.5890  106.6630 C.3       6 GLL5        0.0000 
      3 CA        -38.8270  -11.1650  107.2030 C.3       4 GLP5        0.0000 
      4 CA        -37.3415  -12.7240  105.8470 C.3       2 GLC5        0.0000 
      5 CA        -36.8520  -14.8810  105.4450 C.3       6 GLL5        0.0000 
      6 CA        -37.8310  -10.5670  106.2490 C.3       4 GLP5        0.0000 
      7 N         -35.6100  -13.1665  113.3100 N.am      1 SEC2        0.0000 
      8 N         -36.2020  -14.3750  113.0160 N.am      5 SEL2        0.0000 
      9 N         -35.0180  -11.9580  113.6040 N.am      3 SEP2        0.0000 
     10 CA        -35.1840  -19.1130  112.6775 C.3       2 GLC5        0.0000 
     11 CA        -36.9650  -18.4430  112.6260 C.3       6 GLL5        0.0000 
     12 CA        -33.4030  -19.7830  112.7290 C.3       4 GLP5        0.0000 
     13 CA        -37.0015  -18.8760  110.7815 C.3       2 GLC5        0.0000 
     14 CA        -38.1030  -19.2230  112.3310 C.3       6 GLL5        0.0000 
     15 CA        -35.9000  -18.5290  109.2320 C.3       4 GLP5        0.0000 
     16 CA        -43.6290  -17.0525  117.0980 C.3       2 GLC5        0.0000 
     17 CA        -43.9990  -19.1360  117.1630 C.3       6 GLL5        0.0000 
     18 CA        -43.2590  -14.9690  117.0330 C.3       4 GLP5        0.0000 
     19 CA        -45.0705  -18.1710  118.3720 C.3       2 GLC5        0.0000 
     20 CA        -46.1420  -17.2060  119.5810 C.3       4 GLP5        0.0000 
     21 CA        -42.3725  -19.9170  119.3235 C.3       2 GLC5        0.0000 
     22 CA        -42.6500  -19.2750  117.3730 C.3       6 GLL5        0.0000 
     23 CA        -42.0950  -20.5590  121.2740 C.3       4 GLP5        0.0000 
     24 CA        -39.9705  -22.2280  116.6705 C.3       2 GLC5        0.0000 
     25 CA        -39.6100  -20.6930  115.6060 C.3       6 GLL5        0.0000 
     26 CA        -40.3310  -23.7630  117.7350 C.3       4 GLP5        0.0000 
     27 N         -40.1355  -24.0295  112.3695 N.am      1 SEC2        0.0000 
     28 N         -40.0010  -22.4900  112.0080 N.am      5 SEL2        0.0000 
     29 N         -40.2700  -25.5690  112.7310 N.am      3 SEP2        0.0000 
     30 N         -36.3505  -12.3065  112.7875 N.am      1 SEC2        0.0000 
     31 N         -37.6830  -12.6550  111.9710 N.am      5 SEL2        0.0000 
     32 CA        -41.8560  -16.0575  115.2400 C.3       2 GLC5        0.0000 
     33 CA        -41.9230  -17.2250  113.6580 C.3       6 GLL5        0.0000 
     34 CA        -41.7890  -14.8900  116.8220 C.3       4 GLP5        0.0000 
     35 N         -42.2800  -12.9235  115.0050 N.am      1 SEC2        0.0000 
     36 N         -42.8120  -13.4180  113.4780 N.am      5 SEL2        0.0000 
     37 N         -41.7480  -12.4290  116.5320 N.am      3 SEP2        0.0000 
     38 CA        -45.7130  -16.5080  110.1785 C.3       2 GLC5        0.0000 
     39 CA        -43.9520  -16.4690  111.5540 C.3       6 GLL5        0.0000 
     40 CA        -47.4740  -16.5470  108.8030 C.3       4 GLP5        0.0000 
     41 CA        -36.4045  -16.4435  109.5118 C.3       2 GLC5        0.0000 
     42 CA        -37.3060  -14.3300  109.2190 C.3       6 GLL5        0.0000 
     43 CA        -37.4327  -12.8108  108.6664 C.3       2 GLC5        0.0000 
     44 CA        -36.7040  -14.6310  107.9040 C.3       6 GLL5        0.0000 
     45 CA        -38.0590  -11.1270  108.4850 C.3       4 GLP5        0.0000 
     46 CA        -35.3538  -16.7080  109.4452 C.3       2 GLC5        0.0000 
     47 CA        -34.5140  -15.0310  109.0500 C.3       6 GLL5        0.0000 
     48 CA        -33.6963  -14.9290  111.2972 C.3       2 GLC5        0.0000 
     49 CA        -32.5850  -14.9710  112.9360 C.3       4 GLP5        0.0000 
     50 CA        -35.6166  -16.7870  108.2210 C.3       2 GLC5        0.0000 
     51 CA        -33.0787  -15.2585  105.1945 C.3       2 GLC5        0.0000 
     52 CA        -34.6740  -15.2820  106.5510 C.3       6 GLL5        0.0000 
     53 CA        -31.1040  -15.2600  104.4160 C.3       4 GLP5        0.0000 
     54 CA        -33.9109  -13.2615  107.7267 C.3       2 GLC5        0.0000 
     55 CA        -33.0360  -11.3780  107.9570 C.3       4 GLP5        0.0000 
     56 CA        -36.7773  -17.8133  110.8090 C.3       2 GLC5        0.0000 
     57 CA        -37.0590  -17.0590  112.5560 C.3       6 GLL5        0.0000 
     58 CA        -38.7570  -18.5257  110.0588 C.3       2 GLC5        0.0000 
     59 CA        -39.3130  -18.6350  111.9390 C.3       6 GLL5        0.0000 
     60 CA        -38.1490  -19.1120  108.2130 C.3       4 GLP5        0.0000 
     61 CA        -42.4525  -21.8098  116.2585 C.3       2 GLC5        0.0000 
     62 CA        -42.4220  -20.4010  115.1460 C.3       6 GLL5        0.0000 
     63 CA        -41.7670  -23.3020  117.4630 C.3       4 GLP5        0.0000 
     64 CA        -41.5363  -21.5686  117.0920 C.3       2 GLC5        0.0000 
     65 CA        -41.8080  -19.9120  116.3750 C.3       6 GLL5        0.0000 
     66 CA        -41.2062  -17.9436  117.1330 C.3       2 GLC5        0.0000 
     67 CA        -41.1070  -16.0520  117.5450 C.3       4 GLP5        0.0000 
     68 CA        -41.3360  -22.2085  115.8610 C.3       2 GLC5        0.0000 
     69 CA        -41.5860  -21.0450  114.1460 C.3       6 GLL5        0.0000 
@<TRIPOS>BOND
@<TRIPOS>SUBSTRUCTURE
     1 SEC2        7 GROUP        1 X    SEC  0     ROOT SEC X 2
     2 GLC5        1 GROUP        1 X    GLC  0     **** GLC X 6
     3 SEP2        9 GROUP        1 Y    SEP  0     ROOT SEP Y 9
     4 GLP5        3 GROUP        1 Y    GLP  0     **** GLP Y 13
     5 SEL2        8 GROUP        1 Z    SEL  0     ROOT SEL Z 16
     6 GLL5        2 GROUP        1 Z    GLL  0     **** GLL Z 20
@<TRIPOS>SET

