#    Name: 1ybg_TAV_4_ligand
#    Modification time : Tue Mar 25 10:56:03 2014

@<TRIPOS>MOLECULE
1ybg_TAV_4_ligand
   70    74     1     0     0
SMALL
NO_CHARGES


@<TRIPOS>ATOM
      1 C1        -36.5120  -14.3860  110.3640 C.ar      1 TAV850      0.0000 
      2 C2        -37.3060  -14.3300  109.2190 C.ar      1 TAV850      0.0000 
      3 C3        -36.7040  -14.6310  107.9040 C.ar      1 TAV850      0.0000 
      4 C4        -35.2810  -14.9850  107.8340 C.ar      1 TAV850      0.0000 
      5 C5        -34.5140  -15.0310  109.0500 C.ar      1 TAV850      0.0000 
      6 C6        -35.1010  -14.7430  110.2670 C.ar      1 TAV850      0.0000 
      7 C9        -37.4710  -14.5890  106.6630 C.ar      1 TAV850      0.0000 
      8 C10       -34.6740  -15.2820  106.5510 C.ar      1 TAV850      0.0000 
      9 C13       -35.4330  -15.2320  105.3950 C.ar      1 TAV850      0.0000 
     10 C14       -36.8520  -14.8810  105.4450 C.ar      1 TAV850      0.0000 
     11 S18       -37.1850  -14.0130  112.0200 S.o2      1 TAV850      0.0000 
     12 O19       -36.2020  -14.3750  113.0160 O.2       1 TAV850      0.0000 
     13 N20       -38.4900  -15.0310  112.0990 N.pl3     1 TAV850      0.0000 
     14 C21       -36.9650  -18.4430  112.6260 C.ar      1 TAV850      0.0000 
     15 C22       -37.0590  -17.0590  112.5560 C.ar      1 TAV850      0.0000 
     16 C23       -38.2970  -16.4440  112.1810 C.ar      1 TAV850      0.0000 
     17 C24       -39.4170  -17.2440  111.8700 C.ar      1 TAV850      0.0000 
     18 C25       -39.3130  -18.6350  111.9390 C.ar      1 TAV850      0.0000 
     19 C26       -38.1030  -19.2230  112.3310 C.ar      1 TAV850      0.0000 
     20 C29       -40.7070  -16.5520  111.4760 C.2       1 TAV850      0.0000 
     21 S31       -39.1800  -22.0230  113.1480 S.o2      1 TAV850      0.0000 
     22 C32       -43.9990  -19.1360  117.1630 C.ar      1 TAV850      0.0000 
     23 C33       -42.6500  -19.2750  117.3730 C.ar      1 TAV850      0.0000 
     24 C34       -41.8080  -19.9120  116.3750 C.ar      1 TAV850      0.0000 
     25 C35       -42.4220  -20.4010  115.1460 C.ar      1 TAV850      0.0000 
     26 C36       -43.8540  -20.2340  114.9620 C.ar      1 TAV850      0.0000 
     27 C37       -44.6140  -19.6210  115.9410 C.ar      1 TAV850      0.0000 
     28 C41       -40.3820  -20.0770  116.5680 C.ar      1 TAV850      0.0000 
     29 C42       -41.5860  -21.0450  114.1460 C.ar      1 TAV850      0.0000 
     30 C45       -40.2240  -21.1850  114.3720 C.ar      1 TAV850      0.0000 
     31 C46       -39.6100  -20.6930  115.6060 C.ar      1 TAV850      0.0000 
     32 N49       -41.6070  -16.2300  112.5890 N.am      1 TAV850      0.0000 
     33 O50       -40.9760  -16.2630  110.3000 O.2       1 TAV850      0.0000 
     34 O51       -38.3430  -20.7340  112.6110 O.3       1 TAV850      0.0000 
     35 O52       -38.2810  -22.9030  113.8640 O.2       1 TAV850      0.0000 
     36 O53       -40.0010  -22.4900  112.0080 O.2       1 TAV850      0.0000 
     37 O54       -37.6830  -12.6550  111.9710 O.2       1 TAV850      0.0000 
     38 C56       -41.9230  -17.2250  113.6580 C.3       1 TAV850      0.0000 
     39 C57       -42.8270  -15.5050  112.0830 C.3       1 TAV850      0.0000 
     40 C61       -43.3600  -14.4700  113.2140 C.2       1 TAV850      0.0000 
     41 O62       -42.8120  -13.4180  113.4780 O.co2     1 TAV850      0.0000 
     42 O63       -44.5380  -14.8200  113.9530 O.co2     1 TAV850      0.0000 
     43 C64       -45.0910  -15.6670  110.8950 C.2       1 TAV850      0.0000 
     44 O65       -46.2590  -15.8080  111.2270 O.co2     1 TAV850      0.0000 
     45 O66       -44.7180  -14.7540  109.9080 O.co2     1 TAV850      0.0000 
     46 C67       -43.9520  -16.4690  111.5540 C.3       1 TAV850      0.0000 
     47 H         -38.2860  -14.0899  109.2494 H         1 TAV850      0.0000 
     48 H         -33.5200  -15.2836  108.9866 H         1 TAV850      0.0000 
     49 H         -34.5601  -14.7718  111.1417 H         1 TAV850      0.0000 
     50 H         -38.4569  -14.3436  106.7140 H         1 TAV850      0.0000 
     51 H         -33.6827  -15.5254  106.5314 H         1 TAV850      0.0000 
     52 H         -35.0283  -15.4373  104.4772 H         1 TAV850      0.0000 
     53 H         -37.3700  -14.8570  104.5663 H         1 TAV850      0.0000 
     54 H         -39.3580  -14.5664  112.0832 H         1 TAV850      0.0000 
     55 H         -36.0914  -18.8979  112.8857 H         1 TAV850      0.0000 
     56 H         -36.2567  -16.4632  112.7681 H         1 TAV850      0.0000 
     57 H         -40.1164  -19.2245  111.7046 H         1 TAV850      0.0000 
     58 H         -44.6099  -18.6887  117.8572 H         1 TAV850      0.0000 
     59 H         -42.1986  -18.9380  118.2303 H         1 TAV850      0.0000 
     60 H         -44.2704  -20.5808  114.0967 H         1 TAV850      0.0000 
     61 H         -45.6254  -19.4934  115.8309 H         1 TAV850      0.0000 
     62 H         -39.9718  -19.7221  117.4382 H         1 TAV850      0.0000 
     63 H         -42.0261  -21.3820  113.2930 H         1 TAV850      0.0000 
     64 H         -38.6043  -20.8242  115.7195 H         1 TAV850      0.0000 
     65 H         -42.5204  -14.8626  111.2333 H         1 TAV850      0.0000 
     66 H         -44.3406  -17.0325  112.3918 H         1 TAV850      0.0000 
     67 H         -43.5127  -17.1410  110.8288 H         1 TAV850      0.0000 
     68 H         -41.1016  -17.5174  114.1477 H         1 TAV850      0.0000 
     69 H         -42.5528  -16.8512  114.3389 H         1 TAV850      0.0000 
     70 H         -42.3502  -18.0484  113.2845 H         1 TAV850      0.0000 
@<TRIPOS>BOND
     1    2    1 ar   
     2    6    1 ar   
     3   11    1 1    
     4    3    2 ar   
     5   47    2 1    
     6    4    3 ar   
     7    7    3 ar   
     8    5    4 ar   
     9    8    4 ar   
    10    6    5 ar   
    11   48    5 1    
    12   49    6 1    
    13   10    7 ar   
    14   50    7 1    
    15    9    8 ar   
    16   51    8 1    
    17   10    9 ar   
    18   52    9 1    
    19   53   10 1    
    20   12   11 2    
    21   13   11 1    
    22   37   11 2    
    23   16   13 1    
    24   54   13 1    
    25   15   14 ar   
    26   19   14 ar   
    27   55   14 1    
    28   16   15 ar   
    29   56   15 1    
    30   17   16 ar   
    31   18   17 ar   
    32   20   17 1    
    33   19   18 ar   
    34   57   18 1    
    35   34   19 1    
    36   32   20 am   
    37   33   20 2    
    38   30   21 1    
    39   34   21 1    
    40   35   21 2    
    41   36   21 2    
    42   23   22 ar   
    43   27   22 ar   
    44   58   22 1    
    45   24   23 ar   
    46   59   23 1    
    47   25   24 ar   
    48   28   24 ar   
    49   26   25 ar   
    50   29   25 ar   
    51   27   26 ar   
    52   60   26 1    
    53   61   27 1    
    54   31   28 ar   
    55   62   28 1    
    56   30   29 ar   
    57   63   29 1    
    58   31   30 ar   
    59   64   31 1    
    60   38   32 1    
    61   39   32 1    
    62   68   38 1    
    63   69   38 1    
    64   70   38 1    
    65   40   39 1    
    66   46   39 1    
    67   65   39 1    
    68   41   40 ar   
    69   42   40 ar   
    70   44   43 ar   
    71   45   43 ar   
    72   46   43 1    
    73   66   46 1    
    74   67   46 1    
@<TRIPOS>SUBSTRUCTURE
     1 TAV850      1 GROUP   
@<TRIPOS>SET

