#    Name: 3h9g_MET_ARG_ASN_ALA_XSN_3_INTS_M
#    Modification time : Tue Mar 25 13:46:13 2014

@<TRIPOS>MOLECULE
3h9g_MET_ARG_ASN_ALA_XSN_3_INTS_M
   44     0    12     0     0
SMALL
NO_CHARGES


@<TRIPOS>ATOM
      1 OD1        16.0890   22.2465   31.2670 O.co2     3 ASC3        0.0000 
      2 OD1        16.8800   20.6510   31.3290 O.co2    11 ASL3        0.0000 
      3 OD1        15.2980   23.8420   31.2050 O.co2     7 ASP3        0.0000 
      4 CA         19.1620   21.1270   32.5925 C.3       4 GLC5        0.0000 
      5 CA         18.2130   20.5700   30.6600 C.3      12 GLL5        0.0000 
      6 CA         20.1110   21.6840   34.5250 C.3       8 GLP5        0.0000 
      7 N          20.7715   21.2315   29.1785 N.am      2 SEC2        0.0000 
      8 N          19.6100   21.8580   29.2050 N.am     10 SEL2        0.0000 
      9 N          21.9330   20.6050   29.1520 N.am      6 SEP2        0.0000 
     10 N          19.4515   21.0300   27.7965 N.am      2 SEC2        0.0000 
     11 N          19.2930   20.2020   26.3880 N.am      6 SEP2        0.0000 
     12 CA         18.2245   17.0300   32.3110 C.3       4 GLC5        0.0000 
     13 CA         18.5230   18.0460   30.4750 C.3      12 GLL5        0.0000 
     14 CA         17.9260   16.0140   34.1470 C.3       8 GLP5        0.0000 
     15 CA         22.4860   17.5920   28.6355 C.3       4 GLC5        0.0000 
     16 CA         20.6090   17.0760   28.9460 C.3      12 GLL5        0.0000 
     17 CA         24.3630   18.1080   28.3250 C.3       8 GLP5        0.0000 
     18 CA         21.7685   15.2535   28.9280 C.3       4 GLC5        0.0000 
     19 CA         22.9280   13.4310   28.9100 C.3       8 GLP5        0.0000 
     20 CA         20.3745   15.6255   30.1640 C.3       4 GLC5        0.0000 
     21 CA         20.1400   14.1750   31.3820 C.3       8 GLP5        0.0000 
     22 O          16.4480   23.2835   30.4485 O.2       1 ALC1        0.0000 
     23 O          17.5980   22.7250   29.6920 O.2       9 ALL1        0.0000 
     24 O          15.2980   23.8420   31.2050 O.2       5 ALP1        0.0000 
     25 CA         15.2285   25.1065   24.8535 C.3       4 GLC5        0.0000 
     26 CA         15.1330   23.6080   26.0120 C.3      12 GLL5        0.0000 
     27 CA         15.3240   26.6050   23.6950 C.3       8 GLP5        0.0000 
     28 O          13.8375   23.2905   28.3055 O.2       1 ALC1        0.0000 
     29 O          13.9200   23.4310   26.8100 O.2       9 ALL1        0.0000 
     30 O          13.7550   23.1500   29.8010 O.2       5 ALP1        0.0000 
     31 OD1        12.7055   23.2190   28.4785 O.co2     3 ASC3        0.0000 
     32 OD1        12.6790   23.4650   26.3300 O.co2    11 ASL3        0.0000 
     33 OD1        13.7550   23.1500   29.8010 O.co2     7 ASP3        0.0000 
     34 O          12.7055   23.2190   28.4785 O.2       1 ALC1        0.0000 
     35 O          11.6560   23.2880   27.1560 O.2       9 ALL1        0.0000 
     36 CA         19.4157   15.7970   30.6152 C.3       4 GLC5        0.0000 
     37 CA         17.0053   16.4500   30.0987 C.3       4 GLC5        0.0000 
     38 CA         18.8600   16.7920   29.2220 C.3      12 GLL5        0.0000 
     39 CA         15.3190   15.4810   30.3490 C.3       8 GLP5        0.0000 
     40 CA         19.8918   17.5800   27.1415 C.3       4 GLC5        0.0000 
     41 CA         20.0490   18.2260   25.1990 C.3       8 GLP5        0.0000 
     42 CA         16.2762   25.7922   28.8133 C.3       4 GLC5        0.0000 
     43 CA         17.8030   23.9040   28.8600 C.3      12 GLL5        0.0000 
     44 CA         15.3690   27.5360   29.1900 C.3       8 GLP5        0.0000 
@<TRIPOS>BOND
@<TRIPOS>SUBSTRUCTURE
     1 ALC1       22 GROUP        1 X    ALC  0     ROOT ALC X 1
     2 SEC2        7 GROUP        1 X    SEC  0     **** SEC X 2
     3 ASC3        1 GROUP        1 X    ASC  0     **** ASC X 3
     4 GLC5        4 GROUP        1 X    GLC  0     **** GLC X 6
     5 ALP1       24 GROUP        1 Y    ALP  0     ROOT ALP Y 8
     6 SEP2        9 GROUP        1 Y    SEP  0     **** SEP Y 9
     7 ASP3        3 GROUP        1 Y    ASP  0     **** ASP Y 10
     8 GLP5        6 GROUP        1 Y    GLP  0     **** GLP Y 13
     9 ALL1       23 GROUP        1 Z    ALL  0     ROOT ALL Z 15
    10 SEL2        8 GROUP        1 Z    SEL  0     **** SEL Z 16
    11 ASL3        2 GROUP        1 Z    ASL  0     **** ASL Z 17
    12 GLL5        5 GROUP        1 Z    GLL  0     **** GLL Z 20
@<TRIPOS>SET

