#    Name: 3h9g_MET_ARG_ASN_ALA_XSN_3_ligand
#    Modification time : Tue Mar 25 13:46:14 2014

@<TRIPOS>MOLECULE
3h9g_MET_ARG_ASN_ALA_XSN_3_ligand
   44    43     2     0     0
SMALL
NO_CHARGES


@<TRIPOS>ATOM
      1 N          16.8800   20.6510   31.3290 N.4       1 MET1        0.0000
      2 CA         18.2130   20.5700   30.6600 C.3       1 MET1        0.0000
      3 C          18.5340   21.7860   29.7950 C.2       1 MET1        0.0000
      4 O          19.6100   21.8580   29.2050 O.2       1 MET1        0.0000
      5 CB         18.2750   19.3400   29.7690 C.3       1 MET1        0.0000
      6 CG         18.5230   18.0460   30.4750 C.3       1 MET1        0.0000
      7 SD         18.8600   16.7920   29.2220 S.3       1 MET1        0.0000
      8 CE         20.6090   17.0760   28.9460 C.3       1 MET1        0.0000
      9 HA         18.9953   20.4703   31.4073 H         1 MET1        0.0000
     10 HB2        19.0678   19.5007   29.0036 H         1 MET1        0.0000
     11 HB3        17.3214   19.2720   29.1978 H         1 MET1        0.0000
     12 HG2        17.6777   17.6468   30.9690 H         1 MET1        0.0000
     13 HG3        19.4066   18.0253   31.0552 H         1 MET1        0.0000
     14 HNCA       16.6961   19.8436   31.8896 H         1 MET1        0.0000
     15 H          16.8143   21.4469   31.9309 H         1 MET1        0.0000
     16 H          16.1353   20.7230   30.6655 H         1 MET1        0.0000
     17 HE1        21.1183   17.1198   29.8055 H         1 MET1        0.0000
     18 HE2        21.0214   16.3485   28.3977 H         1 MET1        0.0000
     19 HE3        20.7740   17.9362   28.4634 H         1 MET1        0.0000
     20 N          17.5980   22.7250   29.6920 N.am      2 ARG2        0.0000
     21 CA         17.8030   23.9040   28.8600 C.3       2 ARG2        0.0000
     22 C          18.1770   25.1180   29.6980 C.2       2 ARG2        0.0000
     23 O          19.2030   25.7500   29.4510 O.2       2 ARG2        0.0000
     24 CB         16.5640   24.1930   28.0130 C.3       2 ARG2        0.0000
     25 CG         16.3910   23.2650   26.8100 C.3       2 ARG2        0.0000
     26 CD         15.1330   23.6080   26.0120 C.3       2 ARG2        0.0000
     27 NE         13.9200   23.4310   26.8100 N.pl3     2 ARG2        0.0000
     28 CZ         12.6790   23.4650   26.3300 C.cat     2 ARG2        0.0000
     29 NH1        12.4570   23.6660   25.0370 N.pl3     2 ARG2        0.0000
     30 NH2        11.6560   23.2880   27.1560 N.pl3     2 ARG2        0.0000
     31 HNCA       16.6900   22.6690   30.1888 H         2 ARG2        0.0000
     32 HA         18.6333   23.7182   28.1626 H         2 ARG2        0.0000
     33 H          17.4797   25.3081   30.4505 H         2 ARG2        0.0000
     34 HB2        16.6117   25.2362   27.6547 H         2 ARG2        0.0000
     35 HB3        15.6679   24.1174   28.6535 H         2 ARG2        0.0000
     36 HG2        16.3236   22.2332   27.1600 H         2 ARG2        0.0000
     37 HG3        17.2636   23.3542   26.1601 H         2 ARG2        0.0000
     38 HD2        15.1090   22.9656   25.1193 H         2 ARG2        0.0000
     39 HD3        15.2220   24.6479   25.6643 H         2 ARG2        0.0000
     40 HE         14.0979   23.2658   27.8451 H         2 ARG2        0.0000
     41 HH11       13.2665   23.8184   24.4700 H         2 ARG2        0.0000
     42 HH12       11.5003   23.6469   24.7466 H         2 ARG2        0.0000
     43 HH21       10.7453   23.3413   26.7463 H         2 ARG2        0.0000
     44 HH22       11.8881   23.1173   28.1136 H         2 ARG2        0.0000
@<TRIPOS>BOND
     1    2    1 1
     2   14    1 1
     3   15    1 1
     4   16    1 1
     5    3    2 1
     6    5    2 1
     7    9    2 1
     8    4    3 2
     9    6    5 1
    10   10    5 1
    11   11    5 1
    12    7    6 1
    13   12    6 1
    14   13    6 1
    15    8    7 1
    16   17    8 1
    17   18    8 1
    18   19    8 1
    19   21   20 1
    20   31   20 1
    21   22   21 1
    22   24   21 1
    23   32   21 1
    24   23   22 2
    25   33   22 1
    26   25   24 1
    27   34   24 1
    28   35   24 1
    29   26   25 1
    30   36   25 1
    31   37   25 1
    32   27   26 1
    33   38   26 1
    34   39   26 1
    35   28   27 ar
    36   40   27 1
    37   29   28 ar
    38   30   28 ar
    39   41   29 1
    40   42   29 1
    41   43   30 1
    42   44   30 1
    43   20    3 am
@<TRIPOS>SUBSTRUCTURE
     1 MET1        1 RESIDUE
     2 ARG2       20 RESIDUE
@<TRIPOS>SET

