#    Name: 3H2S_2_CAVITY_N1_6.mol2
#    Modification time : Mon Mar 10 21:13:27 2014

@<TRIPOS>MOLECULE
3H2S_2_CAVITY_N1_6.mol2
  115     0     5     0     0
SMALL
NO_CHARGES


@<TRIPOS>ATOM
      1 O          15.9512   53.7497   10.4381 O.2       2 ALA2        0.0000 
      2 O          17.0846   53.7741    7.2814 O.2       2 ALA2        0.0000 
      3 O          16.7691   52.5675   10.0099 O.2       2 ALA2        0.0000 
      4 N          16.6114   51.9641   11.3741 N.2       2 ALA2        0.0000 
      5 O          17.9025   52.5919    6.8531 O.2       2 ALA2        0.0000 
      6 O          17.7448   51.9886    8.2174 O.2       2 ALA2        0.0000 
      7 OG         17.5870   51.3852    9.5816 O.2       1 SER1        0.0000 
      8 DU         18.7204   51.4097    6.4249 H         5 CUB7        0.0000 
      9 OG         18.5627   50.8064    7.7891 O.2       1 SER1        0.0000 
     10 DU         19.5383   50.2275    5.9966 H         5 CUB7        0.0000 
     11 OG         19.3806   49.6242    7.3608 O.2       1 SER1        0.0000 
     12 O          20.3562   49.0453    5.5683 O.2       2 ALA2        0.0000 
     13 OG         20.1985   48.4420    6.9325 O.2       1 SER1        0.0000 
     14 O          21.1741   47.8631    5.1400 O.2       2 ALA2        0.0000 
     15 CA         21.0164   47.2598    6.5042 C.3       4 GLY6        0.0000 
     16 CA         20.8586   46.6564    7.8685 C.3       4 GLY6        0.0000 
     17 CA         21.9920   46.6809    4.7117 C.3       4 GLY6        0.0000 
     18 O          21.8343   46.0776    6.0760 O.2       2 ALA2        0.0000 
     19 N          21.6766   45.4742    7.4402 N.2       2 ALA2        0.0000 
     20 CZ         16.8540   57.4407    7.2271 C.ar      3 PHE5        0.0000 
     21 CZ         16.6962   56.8374    8.5913 C.ar      3 PHE5        0.0000 
     22 N          16.5385   56.2340    9.9555 N.2       2 ALA2        0.0000 
     23 CZ         17.6719   56.2585    6.7988 C.ar      3 PHE5        0.0000 
     24 CZ         17.5141   55.6552    8.1630 C.ar      3 PHE5        0.0000 
     25 O          17.3564   55.0518    9.5272 O.2       2 ALA2        0.0000 
     26 O          17.1987   54.4485   10.8914 O.2       2 ALA2        0.0000 
     27 CZ         18.4898   55.0763    6.3705 C.ar      3 PHE5        0.0000 
     28 O          18.3320   54.4730    7.7347 O.2       2 ALA2        0.0000 
     29 O          18.1743   53.8696    9.0989 O.2       2 ALA2        0.0000 
     30 O          18.0166   53.2663   10.4632 O.2       2 ALA2        0.0000 
     31 N          17.8589   52.6629   11.8274 N.2       2 ALA2        0.0000 
     32 DU         19.3077   53.8941    5.9422 H         5 CUB7        0.0000 
     33 DU         19.1500   53.2908    7.3064 H         5 CUB7        0.0000 
     34 DU         18.9922   52.6874    8.6707 H         5 CUB7        0.0000 
     35 OG         18.8345   52.0841   10.0349 O.2       1 SER1        0.0000 
     36 DU         20.1256   52.7119    5.5139 H         5 CUB7        0.0000 
     37 DU         19.9679   52.1086    6.8782 H         5 CUB7        0.0000 
     38 OG         19.8101   51.5052    8.2424 O.2       1 SER1        0.0000 
     39 O          20.9435   51.5297    5.0857 O.2       2 ALA2        0.0000 
     40 DU         20.7858   50.9264    6.4499 H         5 CUB7        0.0000 
     41 OG         20.6280   50.3230    7.8141 O.2       1 SER1        0.0000 
     42 O          21.6037   49.7442    6.0216 O.2       2 ALA2        0.0000 
     43 OG         21.4459   49.1408    7.3858 O.2       1 SER1        0.0000 
     44 O          22.4216   48.5619    5.5933 O.2       2 ALA2        0.0000 
     45 CA         22.2638   47.9586    6.9575 C.3       4 GLY6        0.0000 
     46 CA         22.1061   47.3553    8.3218 C.3       4 GLY6        0.0000 
     47 O          23.2395   47.3797    5.1650 O.2       2 ALA2        0.0000 
     48 O          23.0817   46.7764    6.5293 O.2       2 ALA2        0.0000 
     49 N          22.9240   46.1731    7.8935 N.2       2 ALA2        0.0000 
     50 N          18.2592   58.7429    6.3161 N.2       2 ALA2        0.0000 
     51 OG         18.1014   58.1396    7.6804 O.2       1 SER1        0.0000 
     52 DU         17.9437   57.5362    9.0446 H         5 CUB7        0.0000 
     53 CA         17.7860   56.9329   10.4088 C.3       4 GLY6        0.0000 
     54 N          19.0771   57.5607    5.8879 N.2       2 ALA2        0.0000 
     55 OG         18.9193   56.9574    7.2521 O.2       1 SER1        0.0000 
     56 DU         18.7616   56.3540    8.6163 H         5 CUB7        0.0000 
     57 DU         18.6039   55.7507    9.9805 H         5 CUB7        0.0000 
     58 O          18.4461   55.1473   11.3447 O.2       2 ALA2        0.0000 
     59 N          19.8950   56.3785    5.4596 N.2       2 ALA2        0.0000 
     60 DU         19.7372   55.7752    6.8238 H         5 CUB7        0.0000 
     61 N          19.4218   54.5685    9.5522 N.2       2 ALA2        0.0000 
     62 N          19.2640   53.9651   10.9165 N.2       2 ALA2        0.0000 
     63 N          20.7129   55.1963    5.0313 N.2       2 ALA2        0.0000 
     64 DU         20.5551   54.5929    6.3955 H         5 CUB7        0.0000 
     65 DU         20.3974   53.9896    7.7597 H         5 CUB7        0.0000 
     66 N          20.2397   53.3863    9.1240 N.2       2 ALA2        0.0000 
     67 N          20.0820   52.7829   10.4882 N.2       2 ALA2        0.0000 
     68 CA         21.3730   53.4107    5.9672 C.3       4 GLY6        0.0000 
     69 DU         21.2153   52.8074    7.3315 H         5 CUB7        0.0000 
     70 DU         21.0576   52.2041    8.6957 H         5 CUB7        0.0000 
     71 N          20.8999   51.6007   10.0599 N.2       2 ALA2        0.0000 
     72 CZ         22.0332   51.6252    6.9032 C.ar      3 PHE5        0.0000 
     73 OG         21.8755   51.0218    8.2674 O.2       1 SER1        0.0000 
     74 OG         21.7178   50.4185    9.6316 O.2       1 SER1        0.0000 
     75 CZ         22.8511   50.4430    6.4749 C.ar      3 PHE5        0.0000 
     76 CZ         22.6934   49.8396    7.8391 C.ar      3 PHE5        0.0000 
     77 CA         22.5357   49.2363    9.2033 C.3       4 GLY6        0.0000 
     78 CZ         23.6690   49.2608    6.0466 C.ar      3 PHE5        0.0000 
     79 CA         23.5113   48.6574    7.4108 C.3       4 GLY6        0.0000 
     80 N          23.3536   48.0541    8.7751 N.2       2 ALA2        0.0000 
     81 CA         24.3292   47.4752    6.9826 C.3       4 GLY6        0.0000 
     82 OG         19.1912   58.2350    9.4979 O.2       1 SER1        0.0000 
     83 CA         19.0334   57.6317   10.8621 C.3       4 GLY6        0.0000 
     84 N          20.3245   58.2595    6.3412 N.2       2 ALA2        0.0000 
     85 OG         20.1668   57.6562    7.7054 O.2       1 SER1        0.0000 
     86 OG         20.0091   57.0528    9.0696 O.2       1 SER1        0.0000 
     87 CA         19.8513   56.4495   10.4338 C.3       4 GLY6        0.0000 
     88 N          19.6936   55.8462   11.7980 N.2       2 ALA2        0.0000 
     89 N          21.1424   57.0773    5.9129 N.2       2 ALA2        0.0000 
     90 OG         20.9847   56.4740    7.2771 O.2       1 SER1        0.0000 
     91 O          20.8270   55.8706    8.6413 O.2       2 ALA2        0.0000 
     92 N          20.6692   55.2673   10.0055 N.2       2 ALA2        0.0000 
     93 N          21.9603   55.8951    5.4846 N.2       2 ALA2        0.0000 
     94 CA         21.8026   55.2918    6.8488 C.3       4 GLY6        0.0000 
     95 CA         21.6449   54.6884    8.2130 C.3       4 GLY6        0.0000 
     96 N          21.4871   54.0851    9.5773 N.2       2 ALA2        0.0000 
     97 CZ         22.6205   54.1096    6.4205 C.ar      3 PHE5        0.0000 
     98 CA         22.4628   53.5062    7.7848 C.3       4 GLY6        0.0000 
     99 N          22.3050   52.9029    9.1490 N.2       2 ALA2        0.0000 
    100 CZ         23.2807   52.3240    7.3565 C.ar      3 PHE5        0.0000 
    101 CA         23.1229   51.7207    8.7207 C.3       4 GLY6        0.0000 
    102 N          22.9652   51.1173   10.0849 N.2       2 ALA2        0.0000 
    103 O          22.8075   50.5140   11.4491 O.2       2 ALA2        0.0000 
    104 CZ         23.9409   50.5385    8.2924 C.ar      3 PHE5        0.0000 
    105 CA         23.7831   49.9351    9.6566 C.3       4 GLY6        0.0000 
    106 N          23.6254   49.3318   11.0209 N.2       2 ALA2        0.0000 
    107 CZ         24.7588   49.3563    7.8641 C.ar      3 PHE5        0.0000 
    108 N          24.6010   48.7529    9.2284 N.2       2 ALA2        0.0000 
    109 N          24.4433   48.1496   10.5926 N.2       2 ALA2        0.0000 
    110 OG         22.2322   57.1728    7.7304 O.2       1 SER1        0.0000 
    111 O          22.0744   56.5695    9.0946 O.2       2 ALA2        0.0000 
    112 CA         22.8923   55.3873    8.6663 C.3       4 GLY6        0.0000 
    113 O          16.4973   51.2898    7.7641 O.2       2 ALA2        0.0000 
    114 CA         19.9266   47.1643    4.6867 C.3       4 GLY6        0.0000 
    115 DU         19.7689   46.5609    6.0509 H         5 CUB7        0.0000 
@<TRIPOS>BOND
@<TRIPOS>SUBSTRUCTURE
     1 SER1        7 GROUP   
     2 ALA2        1 GROUP   
     3 PHE5       20 GROUP   
     4 GLY6       15 GROUP   
     5 CUB7        8 GROUP   
@<TRIPOS>SET

