#    Name: 3h2s_NDP_2_INTS_M
#    Modification time : Tue Mar 25 13:31:01 2014

@<TRIPOS>MOLECULE
3h2s_NDP_2_INTS_M
  109     0    12     0     0
SMALL
NO_CHARGES


@<TRIPOS>ATOM
      1 N          22.0055   44.5540    4.4685 N.am      2 SEC2        0.0000 
      2 N          20.7990   44.9470    5.0420 N.am     10 SEL2        0.0000 
      3 N          23.2120   44.1610    3.8950 N.am      6 SEP2        0.0000 
      4 CA         20.2865   45.7510    9.4560 C.3       4 GLC5        0.0000 
      5 CA         20.5890   44.0250    8.7630 C.3      12 GLL5        0.0000 
      6 CA         19.9840   47.4770   10.1490 C.3       8 GLP5        0.0000 
      7 N          20.9585   44.2500   11.1640 N.am      2 SEC2        0.0000 
      8 N          20.9360   42.6590   10.6430 N.am     10 SEL2        0.0000 
      9 N          20.9810   45.8410   11.6850 N.am      6 SEP2        0.0000 
     10 O          22.3420   39.3385    7.8540 O.2       1 ALC1        0.0000 
     11 O          22.2670   40.7080    8.5700 O.2       9 ALL1        0.0000 
     12 O          22.4170   37.9690    7.1380 O.2       5 ALP1        0.0000 
     13 N          18.7090   38.4785   10.2010 N.am      2 SEC2        0.0000 
     14 N          19.8950   39.4780    9.4050 N.am     10 SEL2        0.0000 
     15 N          17.5230   37.4790   10.9970 N.am      6 SEP2        0.0000 
     16 CA         22.6425   41.3605   10.6795 C.3       4 GLC5        0.0000 
     17 CA         20.4890   41.3550   10.8630 C.3      12 GLL5        0.0000 
     18 CA         24.7960   41.3660   10.4960 C.3       8 GLP5        0.0000 
     19 CA         21.6560   41.6035   12.2315 C.3       4 GLC5        0.0000 
     20 CA         22.8230   41.8520   13.6000 C.3       8 GLP5        0.0000 
     21 CA         16.7355   42.1410   15.9965 C.3       4 GLC5        0.0000 
     22 CA         17.3910   40.5760   14.6610 C.3      12 GLL5        0.0000 
     23 CA         16.0800   43.7060   17.3320 C.3       8 GLP5        0.0000 
     24 CA         18.6190   37.8510   13.3130 C.3       4 GLC5        0.0000 
     25 CA         19.3530   39.2900   14.7110 C.3      12 GLL5        0.0000 
     26 CA         17.8850   36.4120   11.9150 C.3       8 GLP5        0.0000 
     27 CA         20.6645   38.6905   15.8590 C.3       4 GLC5        0.0000 
     28 CA         21.9760   38.0910   17.0070 C.3       8 GLP5        0.0000 
     29 CA         21.0880   40.5710   14.1555 C.3       4 GLC5        0.0000 
     30 CA         20.9965   41.2925   13.2955 C.3       4 GLC5        0.0000 
     31 CA         19.1700   40.7330   12.9910 C.3      12 GLL5        0.0000 
     32 N          24.3540   46.4620    5.0345 N.am      2 SEC2        0.0000 
     33 N          23.3790   46.9130    5.8630 N.am     10 SEL2        0.0000 
     34 N          25.3290   46.0110    4.2060 N.am      6 SEP2        0.0000 
     35 N          23.8910   45.8635    6.4600 N.am      2 SEC2        0.0000 
     36 N          24.4030   44.8140    7.0570 N.am      6 SEP2        0.0000 
     37 NZ         21.4925   48.8975    3.8265 N.4       3 LYC4        0.0000 
     38 NZ         21.4330   48.4120    5.1510 N.4      11 LYL4        0.0000 
     39 NZ         21.3940   48.9580    1.2520 N.4       7 LYP4        0.0000 
     40 N          21.4925   48.8975    3.8265 N.am      2 SEC2        0.0000 
     41 N          21.4330   48.4120    5.1510 N.am     10 SEL2        0.0000 
     42 N          21.5520   49.3830    2.5020 N.am      6 SEP2        0.0000 
     43 CA         25.1245   47.9845    7.0255 C.3       4 GLC5        0.0000 
     44 CA         23.7100   48.5380    8.2470 C.3      12 GLL5        0.0000 
     45 CA         26.5390   47.4310    5.8040 C.3       8 GLP5        0.0000 
     46 CA         21.8470   48.0075    9.1980 C.3       4 GLC5        0.0000 
     47 CA         25.9180   48.8355    8.5140 C.3       4 GLC5        0.0000 
     48 CA         28.1260   49.1330    8.7810 C.3       8 GLP5        0.0000 
     49 CA         25.3625   50.7485    9.3925 C.3       4 GLC5        0.0000 
     50 CA         23.8140   49.7430    9.1900 C.3      12 GLL5        0.0000 
     51 CA         26.9110   51.7540    9.5950 C.3       8 GLP5        0.0000 
     52 N          23.2030   51.4075   12.6625 N.am      2 SEC2        0.0000 
     53 N          23.4090   50.4150   11.4540 N.am     10 SEL2        0.0000 
     54 N          22.9970   52.4000   13.8710 N.am      6 SEP2        0.0000 
     55 O          23.0410   48.8295   11.8120 O.2       1 ALC1        0.0000 
     56 O          23.4090   50.4150   11.4540 O.2       9 ALL1        0.0000 
     57 O          22.6730   47.2440   12.1700 O.2       5 ALP1        0.0000 
     58 O          24.2130   49.4680   11.6965 O.2       1 ALC1        0.0000 
     59 O          25.0170   48.5210   11.9390 O.2       5 ALP1        0.0000 
     60 N          20.2280   50.2025   10.4040 N.am      2 SEC2        0.0000 
     61 N          21.0560   51.6350   10.6450 N.am     10 SEL2        0.0000 
     62 N          19.4000   48.7700   10.1630 N.am      6 SEP2        0.0000 
     63 N          20.4175   50.9255   12.0000 N.am      2 SEC2        0.0000 
     64 N          19.7790   50.2160   13.3550 N.am      6 SEP2        0.0000 
     65 CA         24.8440   51.7730    9.2675 C.3       4 GLC5        0.0000 
     66 CA         22.7770   51.7920    8.9400 C.3      12 GLL5        0.0000 
     67 CA         23.6035   51.9235    6.9120 C.3       4 GLC5        0.0000 
     68 CA         24.4300   52.0550    4.8840 C.3       8 GLP5        0.0000 
     69 CA         22.6730   55.4035    9.9990 C.3       4 GLC5        0.0000 
     70 CA         22.1080   54.1200    8.4060 C.3      12 GLL5        0.0000 
     71 CA         23.2380   56.6870   11.5920 C.3       8 GLP5        0.0000 
     72 N          22.3185   57.7555    9.6185 N.am      2 SEC2        0.0000 
     73 N          21.6960   56.8330    8.9980 N.am     10 SEL2        0.0000 
     74 N          22.9410   58.6780   10.2390 N.am      6 SEP2        0.0000 
     75 N          21.6010   58.3510    8.5625 N.am      2 SEC2        0.0000 
     76 N          21.5060   59.8690    8.1270 N.am      6 SEP2        0.0000 
     77 O          21.4275   58.6440    7.4795 O.2       1 ALC1        0.0000 
     78 O          21.3490   57.4190    6.8320 O.2       9 ALL1        0.0000 
     79 O          21.5060   59.8690    8.1270 O.2       5 ALP1        0.0000 
     80 O          21.1610   57.9810    5.3570 O.2       1 ALC1        0.0000 
     81 O          20.9730   58.5430    3.8820 O.2       5 ALP1        0.0000 
     82 N          21.2280   38.4405    7.0040 N.am      2 SEC2        0.0000 
     83 N          20.0390   38.9120    6.8700 N.am     10 SEL2        0.0000 
     84 N          22.4170   37.9690    7.1380 N.am      6 SEP2        0.0000 
     85 NZ         18.2640   37.3775    9.7055 N.4       3 LYC4        0.0000 
     86 NZ         19.0050   37.2760    8.4140 N.4      11 LYL4        0.0000 
     87 NZ         16.6050   38.4050   11.2470 N.4       7 LYP4        0.0000 
     88 N          18.2640   37.3775    9.7055 N.am      2 SEC2        0.0000 
     89 N          19.0050   37.2760    8.4140 N.am     10 SEL2        0.0000 
     90 NZ         17.1045   39.4305    9.1275 N.4       3 LYC4        0.0000 
     91 NZ         17.8460   39.5190    7.9080 N.4      11 LYL4        0.0000 
     92 N          17.1045   39.4305    9.1275 N.am      2 SEC2        0.0000 
     93 N          17.8460   39.5190    7.9080 N.am     10 SEL2        0.0000 
     94 N          16.3630   39.3420   10.3470 N.am      6 SEP2        0.0000 
     95 CA         22.0725   44.1638   10.6713 C.3       4 GLC5        0.0000 
     96 CA         21.4510   42.8220    9.3140 C.3      12 GLL5        0.0000 
     97 CA         23.1250   44.9040   12.3040 C.3       8 GLP5        0.0000 
     98 CA         23.0403   41.7605    9.7185 C.3       4 GLC5        0.0000 
     99 CA         22.0355   42.3979    7.1401 C.3       4 GLC5        0.0000 
    100 CA         23.0020   42.3400    5.4770 C.3       8 GLP5        0.0000 
    101 CA         24.6115   50.1793    7.0157 C.3       4 GLC5        0.0000 
    102 CA         25.4610   51.2180    5.3130 C.3       8 GLP5        0.0000 
    103 CA         21.1240   48.9252   10.0843 C.3       4 GLC5        0.0000 
    104 CA         22.7800   49.8750   10.3480 C.3      12 GLL5        0.0000 
    105 CA         23.5270   54.9802    7.7320 C.3       4 GLC5        0.0000 
    106 CA         25.3720   55.3910    7.4970 C.3       8 GLP5        0.0000 
    107 CA         22.3406   53.4045    4.8255 C.3       4 GLC5        0.0000 
    108 CA         21.1630   54.6920    6.0630 C.3      12 GLL5        0.0000 
    109 CA         23.4280   53.7140    3.2780 C.3       8 GLP5        0.0000 
@<TRIPOS>BOND
@<TRIPOS>SUBSTRUCTURE
     1 ALC1       10 GROUP        1 X    ALC  0     ROOT ALC X 1
     2 SEC2        1 GROUP        1 X    SEC  0     **** SEC X 2
     3 LYC4       37 GROUP        1 X    LYC  0     **** LYC X 4
     4 GLC5        4 GROUP        1 X    GLC  0     **** GLC X 6
     5 ALP1       12 GROUP        1 Y    ALP  0     ROOT ALP Y 8
     6 SEP2        3 GROUP        1 Y    SEP  0     **** SEP Y 9
     7 LYP4       39 GROUP        1 Y    LYP  0     **** LYP Y 11
     8 GLP5        6 GROUP        1 Y    GLP  0     **** GLP Y 13
     9 ALL1       11 GROUP        1 Z    ALL  0     ROOT ALL Z 15
    10 SEL2        2 GROUP        1 Z    SEL  0     **** SEL Z 16
    11 LYL4       38 GROUP        1 Z    LYL  0     **** LYL Z 18
    12 GLL5        5 GROUP        1 Z    GLL  0     **** GLL Z 20
@<TRIPOS>SET

