#    Name: 3h2s_NDP_2_ligand
#    Modification time : Tue Mar 25 13:31:01 2014

@<TRIPOS>MOLECULE
3h2s_NDP_2_ligand
   74    78     1     0     0
SMALL
NO_CHARGES


@<TRIPOS>ATOM
      1 PA         20.3300   45.2870    6.4010 P.3       1 NDP301      0.0000 
      2 O1A        18.8600   45.6430    6.7620 O.co2     1 NDP301      0.0000 
      3 O2A        20.7990   44.9470    5.0420 O.co2     1 NDP301      0.0000 
      4 O5B        20.8600   44.0190    7.3690 O.3       1 NDP301      0.0000 
      5 C5B        20.5890   44.0250    8.7630 C.3       1 NDP301      0.0000 
      6 C4B        21.4510   42.8220    9.3140 C.3       1 NDP301      0.0000 
      7 O4B        20.9360   42.6590   10.6430 O.3       1 NDP301      0.0000 
      8 C3B        21.1180   41.4880    8.5680 C.3       1 NDP301      0.0000 
      9 O3B        22.2670   40.7080    8.5700 O.3       1 NDP301      0.0000 
     10 C2B        19.9960   40.8600    9.4700 C.3       1 NDP301      0.0000 
     11 O2B        19.8950   39.4780    9.4050 O.3       1 NDP301      0.0000 
     12 C1B        20.4890   41.3550   10.8630 C.3       1 NDP301      0.0000 
     13 N9A        19.3470   41.4240   11.7900 N.pl3     1 NDP301      0.0000 
     14 C8A        18.2060   42.2450   11.6250 C.2       1 NDP301      0.0000 
     15 N7A        17.3010   42.0720   12.5910 N.2       1 NDP301      0.0000 
     16 C5A        17.8880   41.1300   13.4630 C.ar      1 NDP301      0.0000 
     17 C6A        17.3910   40.5760   14.6610 C.ar      1 NDP301      0.0000 
     18 N6A        16.1830   40.9640   15.1760 N.pl3     1 NDP301      0.0000 
     19 N1A        18.1720   39.6440   15.3070 N.ar      1 NDP301      0.0000 
     20 C2A        19.3530   39.2900   14.7110 C.ar      1 NDP301      0.0000 
     21 N3A        19.9540   39.7850   13.5930 N.ar      1 NDP301      0.0000 
     22 C4A        19.1700   40.7330   12.9910 C.ar      1 NDP301      0.0000 
     23 O3         21.0670   46.6210    6.7730 O.3       1 NDP301      0.0000 
     24 PN         22.1240   47.7140    6.2640 P.3       1 NDP301      0.0000 
     25 O1N        23.3790   46.9130    5.8630 O.co2     1 NDP301      0.0000 
     26 O2N        21.4330   48.4120    5.1510 O.co2     1 NDP301      0.0000 
     27 O5D        22.5060   48.6980    7.5230 O.3       1 NDP301      0.0000 
     28 C5D        23.7100   48.5380    8.2470 C.3       1 NDP301      0.0000 
     29 C4D        23.8140   49.7430    9.1900 C.3       1 NDP301      0.0000 
     30 O4D        23.6850   50.8900    8.3670 O.3       1 NDP301      0.0000 
     31 C3D        22.7800   49.8750   10.3480 C.3       1 NDP301      0.0000 
     32 O3D        23.4090   50.4150   11.4540 O.3       1 NDP301      0.0000 
     33 C2D        21.7480   50.8720    9.6910 C.3       1 NDP301      0.0000 
     34 O2D        21.0560   51.6350   10.6450 O.3       1 NDP301      0.0000 
     35 C1D        22.7770   51.7920    8.9400 C.3       1 NDP301      0.0000 
     36 N1N        22.1180   52.7200    8.0100 N.pl3     1 NDP301      0.0000 
     37 C2N        22.1080   54.1200    8.4060 C.2       1 NDP301      0.0000 
     38 C3N        21.2560   55.0190    7.5280 C.2       1 NDP301      0.0000 
     39 C7N        21.5230   56.4810    7.8370 C.2       1 NDP301      0.0000 
     40 O7N        21.6960   56.8330    8.9980 O.2       1 NDP301      0.0000 
     41 N7N        21.3490   57.4190    6.8320 N.am      1 NDP301      0.0000 
     42 C4N        21.1630   54.6920    6.0630 C.3       1 NDP301      0.0000 
     43 C5N        20.8720   53.2360    5.8410 C.2       1 NDP301      0.0000 
     44 C6N        21.4890   52.2260    6.7940 C.2       1 NDP301      0.0000 
     45 P2B        19.1370   38.8230    8.1340 P.3       1 NDP301      0.0000 
     46 O1X        20.0390   38.9120    6.8700 O.co2     1 NDP301      0.0000 
     47 O2X        19.0050   37.2760    8.4140 O.co2     1 NDP301      0.0000 
     48 O3X        17.8460   39.5190    7.9080 O.co2     1 NDP301      0.0000 
     49 H          19.5697   43.8077    8.9970 H         1 NDP301      0.0000 
     50 H          20.9356   44.9059    9.2579 H         1 NDP301      0.0000 
     51 H          22.4388   43.0438    9.2789 H         1 NDP301      0.0000 
     52 H          20.7116   41.7281    7.6468 H         1 NDP301      0.0000 
     53 H          19.1049   41.4130    9.2627 H         1 NDP301      0.0000 
     54 H          21.2330   40.7088   11.2002 H         1 NDP301      0.0000 
     55 H          18.1281   42.8648   10.8634 H         1 NDP301      0.0000 
     56 H          15.8994   40.5117   16.0216 H         1 NDP301      0.0000 
     57 H          15.6902   41.6657   14.6614 H         1 NDP301      0.0000 
     58 H          19.9034   38.4741   15.2187 H         1 NDP301      0.0000 
     59 H          24.5848   48.5448    7.6064 H         1 NDP301      0.0000 
     60 H          23.7128   47.6415    8.8568 H         1 NDP301      0.0000 
     61 H          24.8151   49.7420    9.6337 H         1 NDP301      0.0000 
     62 H          22.3101   48.9549   10.4567 H         1 NDP301      0.0000 
     63 H          21.2093   50.3615    8.9836 H         1 NDP301      0.0000 
     64 H          23.2712   52.3566    9.7499 H         1 NDP301      0.0000 
     65 H          22.5883   54.4757    9.1532 H         1 NDP301      0.0000 
     66 H          21.5142   58.3720    7.0861 H         1 NDP301      0.0000 
     67 H          21.0733   57.0617    5.9396 H         1 NDP301      0.0000 
     68 H          22.1083   54.9545    5.5715 H         1 NDP301      0.0000 
     69 H          20.3700   55.2968    5.6054 H         1 NDP301      0.0000 
     70 H          20.3033   52.9380    5.1072 H         1 NDP301      0.0000 
     71 H          21.4493   51.2694    6.5688 H         1 NDP301      0.0000 
     72 H          22.0295   39.8962    8.0366 H         1 NDP301      0.0000 
     73 H          23.6776   49.6277   12.0089 H         1 NDP301      0.0000 
     74 H          21.6985   51.7457   11.4032 H         1 NDP301      0.0000 
@<TRIPOS>BOND
     1    2    1 ar   
     2    3    1 ar   
     3    4    1 1    
     4   23    1 1    
     5    5    4 1    
     6    6    5 1    
     7   49    5 1    
     8   50    5 1    
     9    7    6 1    
    10    8    6 1    
    11   51    6 1    
    12   12    7 1    
    13    9    8 1    
    14   10    8 1    
    15   52    8 1    
    16   72    9 1    
    17   11   10 1    
    18   12   10 1    
    19   53   10 1    
    20   45   11 1    
    21   13   12 1    
    22   54   12 1    
    23   14   13 1    
    24   22   13 1    
    25   15   14 2    
    26   55   14 1    
    27   16   15 1    
    28   17   16 ar   
    29   22   16 ar   
    30   18   17 1    
    31   19   17 ar   
    32   56   18 1    
    33   57   18 1    
    34   20   19 ar   
    35   21   20 ar   
    36   58   20 1    
    37   22   21 ar   
    38   24   23 1    
    39   25   24 ar   
    40   26   24 ar   
    41   27   24 1    
    42   28   27 1    
    43   29   28 1    
    44   59   28 1    
    45   60   28 1    
    46   30   29 1    
    47   31   29 1    
    48   61   29 1    
    49   35   30 1    
    50   32   31 1    
    51   33   31 1    
    52   62   31 1    
    53   73   32 1    
    54   34   33 1    
    55   35   33 1    
    56   63   33 1    
    57   74   34 1    
    58   36   35 1    
    59   64   35 1    
    60   37   36 1    
    61   44   36 1    
    62   38   37 2    
    63   65   37 1    
    64   39   38 1    
    65   42   38 1    
    66   40   39 2    
    67   41   39 am   
    68   66   41 1    
    69   67   41 1    
    70   43   42 1    
    71   68   42 1    
    72   69   42 1    
    73   44   43 2    
    74   70   43 1    
    75   71   44 1    
    76   46   45 ar   
    77   47   45 ar   
    78   48   45 ar   
@<TRIPOS>SUBSTRUCTURE
     1 NDP301      1 GROUP   
@<TRIPOS>SET

