#    Name: 3cnt_SP9_1_INTS_M
#    Modification time : Mon Mar 24 22:01:01 2014

@<TRIPOS>MOLECULE
3cnt_SP9_1_INTS_M
   30     0     3     0     0
SMALL
NO_CHARGES


@<TRIPOS>ATOM
      1 CA         45.1425   15.4990   36.3675 C.3       1 GLC5        0.0000 
      2 CA         45.6130   13.5810   36.0180 C.3       3 GLL5        0.0000 
      3 CA         44.6720   17.4170   36.7170 C.3       2 GLP5        0.0000 
      4 CA         47.0310   13.0965   36.7190 C.3       1 GLC5        0.0000 
      5 CA         48.4490   12.6120   37.4200 C.3       2 GLP5        0.0000 
      6 CA         40.5395   14.3970   36.3955 C.3       1 GLC5        0.0000 
      7 CA         42.3940   13.7650   37.0650 C.3       3 GLL5        0.0000 
      8 CA         38.6850   15.0290   35.7260 C.3       2 GLP5        0.0000 
      9 CA         43.5330   15.5910   36.8910 C.3       1 GLC5        0.0000 
     10 CA         39.9915   15.4660   37.6605 C.3       1 GLC5        0.0000 
     11 CA         41.9190   15.7220   38.3680 C.3       3 GLL5        0.0000 
     12 CA         38.0640   15.2100   36.9530 C.3       2 GLP5        0.0000 
     13 CA         43.7265   17.1675   40.1275 C.3       1 GLC5        0.0000 
     14 CA         42.3000   17.2030   38.3910 C.3       3 GLL5        0.0000 
     15 CA         45.1530   17.1320   41.8640 C.3       2 GLP5        0.0000 
     16 CA         40.0575   16.5245   36.5795 C.3       1 GLC5        0.0000 
     17 CA         41.4300   18.0200   37.4330 C.3       3 GLL5        0.0000 
     18 CA         38.6010   17.3360   37.6075 C.3       1 GLC5        0.0000 
     19 CA         40.1570   18.5130   38.1260 C.3       3 GLL5        0.0000 
     20 CA         37.0450   16.1590   37.0890 C.3       2 GLP5        0.0000 
     21 CA         43.8487    7.6004   33.5664 C.3       1 GLC5        0.0000 
     22 CA         43.4390    8.7790   33.2060 C.3       3 GLL5        0.0000 
     23 CA         44.3740    5.8520   34.0800 C.3       2 GLP5        0.0000 
     24 CA         45.4335   14.0362   34.6730 C.3       1 GLC5        0.0000 
     25 CA         44.3070   12.8660   35.6700 C.3       3 GLL5        0.0000 
     26 CA         45.9070   14.8490   33.5020 C.3       2 GLP5        0.0000 
     27 CA         43.0565   12.3595   38.7490 C.3       1 GLC5        0.0000 
     28 CA         43.4560   12.6710   36.9270 C.3       3 GLL5        0.0000 
     29 CA         43.1880   11.5010   40.5020 C.3       2 GLP5        0.0000 
     30 CA         43.2209   17.3291   37.3116 C.3       1 GLC5        0.0000 
@<TRIPOS>BOND
@<TRIPOS>SUBSTRUCTURE
     1 GLC5        1 GROUP        1 X    GLC  0     ROOT GLC X 6
     2 GLP5        3 GROUP        1 Y    GLP  0     ROOT GLP Y 13
     3 GLL5        2 GROUP        1 Z    GLL  0     ROOT GLL Z 20
@<TRIPOS>SET

