#    Name: 3cnt_SP9_1_ligand
#    Modification time : Mon Mar 24 22:01:01 2014

@<TRIPOS>MOLECULE
3cnt_SP9_1_ligand
   44    44     1     0     0
SMALL
NO_CHARGES


@<TRIPOS>ATOM
      1 CAE        42.9740   11.0560   32.5880 C.ar      1 SP9518      0.0000 
      2 CAD        42.6800   10.6480   31.2910 C.ar      1 SP9518      0.0000 
      3 CAC        42.7670    9.3040   30.9510 C.ar      1 SP9518      0.0000 
      4 CAR        43.1450    8.3700   31.9090 C.ar      1 SP9518      0.0000 
      5 CAS        43.4390    8.7790   33.2060 C.ar      1 SP9518      0.0000 
      6 CAF        43.3550   10.1230   33.5480 C.ar      1 SP9518      0.0000 
      7 CAG        43.7040   10.5760   34.9680 C.2       1 SP9518      0.0000 
      8 OAA        43.1770   10.0400   35.9430 O.2       1 SP9518      0.0000 
      9 NAH        44.5920   11.5640   35.0440 N.am      1 SP9518      0.0000 
     10 CAI        44.3070   12.8660   35.6700 C.3       1 SP9518      0.0000 
     11 CAB        45.6130   13.5810   36.0180 C.3       1 SP9518      0.0000 
     12 CAJ        43.4560   12.6710   36.9270 C.3       1 SP9518      0.0000 
     13 CAK        42.3940   13.7650   37.0650 C.3       1 SP9518      0.0000 
     14 NAL        42.9760   14.9680   37.6790 N.4       1 SP9518      0.0000 
     15 CAM        41.9190   15.7220   38.3680 C.3       1 SP9518      0.0000 
     16 CAN        42.3000   17.2030   38.3910 C.3       1 SP9518      0.0000 
     17 CAO        41.4300   18.0200   37.4330 C.3       1 SP9518      0.0000 
     18 CAP        40.1570   18.5130   38.1260 C.3       1 SP9518      0.0000 
     19 NAQ        40.0530   19.9740   37.9960 N.4       1 SP9518      0.0000 
     20 H          42.9096   12.0528   32.8394 H         1 SP9518      0.0000 
     21 H          42.3988   11.3409   30.5858 H         1 SP9518      0.0000 
     22 H          42.5524    8.9999   29.9929 H         1 SP9518      0.0000 
     23 H          43.2076    7.3736   31.6587 H         1 SP9518      0.0000 
     24 H          43.7188    8.0848   33.9119 H         1 SP9518      0.0000 
     25 H          45.5635   11.4673   34.6541 H         1 SP9518      0.0000 
     26 H          43.7524   13.4920   34.9819 H         1 SP9518      0.0000 
     27 H          44.1043   12.6886   37.8050 H         1 SP9518      0.0000 
     28 H          42.9636   11.6980   36.8790 H         1 SP9518      0.0000 
     29 H          41.5767   13.3751   37.6770 H         1 SP9518      0.0000 
     30 H          42.0012   13.9898   36.0701 H         1 SP9518      0.0000 
     31 H          41.8046   15.3797   39.3938 H         1 SP9518      0.0000 
     32 H          40.9686   15.6187   37.8497 H         1 SP9518      0.0000 
     33 H          43.3468   17.3087   38.1025 H         1 SP9518      0.0000 
     34 H          42.1774   17.5894   39.4039 H         1 SP9518      0.0000 
     35 H          41.1562   17.3999   36.5799 H         1 SP9518      0.0000 
     36 H          41.9985   18.8781   37.0756 H         1 SP9518      0.0000 
     37 H          40.2015   18.2198   39.1756 H         1 SP9518      0.0000 
     38 H          39.3009   18.0210   37.6626 H         1 SP9518      0.0000 
     39 H          46.1701   13.0477   36.6546 H         1 SP9518      0.0000 
     40 H          46.1732   13.7471   35.2064 H         1 SP9518      0.0000 
     41 H          45.4474   14.4692   36.4466 H         1 SP9518      0.0000 
     42 H          40.8347   20.4403   38.4102 H         1 SP9518      0.0000 
     43 H          40.0149   20.2599   37.0385 H         1 SP9518      0.0000 
     44 H          39.2307   20.3288   38.4408 H         1 SP9518      0.0000 
@<TRIPOS>BOND
     1    2    1 ar   
     2    6    1 ar   
     3   20    1 1    
     4    3    2 ar   
     5   21    2 1    
     6    4    3 ar   
     7   22    3 1    
     8    5    4 ar   
     9   23    4 1    
    10    6    5 ar   
    11   24    5 1    
    12    7    6 1    
    13    8    7 2    
    14    9    7 am   
    15   10    9 1    
    16   25    9 1    
    17   11   10 1    
    18   12   10 1    
    19   26   10 1    
    20   39   11 1    
    21   40   11 1    
    22   41   11 1    
    23   13   12 1    
    24   27   12 1    
    25   28   12 1    
    26   14   13 1    
    27   29   13 1    
    28   30   13 1    
    29   15   14 1    
    30   16   15 1    
    31   31   15 1    
    32   32   15 1    
    33   17   16 1    
    34   33   16 1    
    35   34   16 1    
    36   18   17 1    
    37   35   17 1    
    38   36   17 1    
    39   19   18 1    
    40   37   18 1    
    41   38   18 1    
    42   42   19 1    
    43   43   19 1    
    44   44   19 1    
@<TRIPOS>SUBSTRUCTURE
     1 SP9518      1 GROUP   
@<TRIPOS>SET

