#    Name: 4ge4_0KE_2_INTS_M
#    Modification time : Mon Mar 24 21:54:13 2014

@<TRIPOS>MOLECULE
4ge4_0KE_2_INTS_M
   96     0    12     0     0
SMALL
NO_CHARGES


@<TRIPOS>ATOM
      1 CA         23.9005   25.8680  -19.3180 C.3       4 GLC5        0.0000 
      2 CA         22.9260   27.7590  -18.6760 C.3      12 GLL5        0.0000 
      3 CA         24.8750   23.9770  -19.9600 C.3       8 GLP5        0.0000 
      4 CA         22.2115   32.2005  -17.9665 C.3       4 GLC5        0.0000 
      5 CA         23.0230   30.3750  -17.8090 C.3      12 GLL5        0.0000 
      6 CA         21.4000   34.0260  -18.1240 C.3       8 GLP5        0.0000 
      7 CA         29.3360   25.0405  -26.0555 C.3       4 GLC5        0.0000 
      8 CA         27.7540   26.0890  -25.7090 C.3      12 GLL5        0.0000 
      9 CA         30.9180   23.9920  -26.4020 C.3       8 GLP5        0.0000 
     10 CA         26.7105   26.9825  -27.3250 C.3       4 GLC5        0.0000 
     11 CA         25.6670   27.8760  -28.9410 C.3       8 GLP5        0.0000 
     12 CA         22.4750   31.3515  -20.3515 C.3       4 GLC5        0.0000 
     13 CA         23.5420   30.0180  -19.0390 C.3      12 GLL5        0.0000 
     14 CA         21.4080   32.6850  -21.6640 C.3       8 GLP5        0.0000 
     15 CA         22.6895   27.2135  -21.0850 C.3       4 GLC5        0.0000 
     16 CA         24.0530   28.3840  -20.7910 C.3      12 GLL5        0.0000 
     17 CA         21.3260   26.0430  -21.3790 C.3       8 GLP5        0.0000 
     18 CA         26.6780   29.1675  -21.7950 C.3       4 GLC5        0.0000 
     19 CA         24.6280   29.3050  -21.5880 C.3      12 GLL5        0.0000 
     20 CA         28.7280   29.0300  -22.0020 C.3       8 GLP5        0.0000 
     21 CA         29.6950   29.8900  -28.2340 C.3       4 GLC5        0.0000 
     22 CA         28.4450   29.4460  -26.9240 C.3      12 GLL5        0.0000 
     23 CA         30.9450   30.3340  -29.5440 C.3       8 GLP5        0.0000 
     24 CA         28.2400   31.3415  -26.3390 C.3       4 GLC5        0.0000 
     25 CA         28.0350   33.2370  -25.7540 C.3       8 GLP5        0.0000 
     26 CA         26.7390   30.4190  -27.5275 C.3       4 GLC5        0.0000 
     27 CA         25.0330   31.3920  -28.1310 C.3       8 GLP5        0.0000 
     28 CA         22.5970   29.8700  -14.1215 C.3       4 GLC5        0.0000 
     29 CA         21.4070   28.8110  -14.9950 C.3      12 GLL5        0.0000 
     30 CA         23.7870   30.9290  -13.2480 C.3       8 GLP5        0.0000 
     31 CA         20.2135   29.3805  -16.4625 C.3       4 GLC5        0.0000 
     32 CA         19.0200   29.9500  -17.9300 C.3       8 GLP5        0.0000 
     33 CA         20.4115   27.3200  -16.2520 C.3       4 GLC5        0.0000 
     34 CA         19.4160   25.8290  -17.5090 C.3       8 GLP5        0.0000 
     35 CA         27.1335   27.7115  -22.7945 C.3       4 GLC5        0.0000 
     36 CA         25.3130   27.7460  -23.3770 C.3      12 GLL5        0.0000 
     37 CA         28.9540   27.6770  -22.2120 C.3       8 GLP5        0.0000 
     38 CA         23.4145   28.2885  -24.3195 C.3       4 GLC5        0.0000 
     39 CA         21.5160   28.8310  -25.2620 C.3       8 GLP5        0.0000 
     40 CA         25.5925   24.5215  -21.9695 C.3       4 GLC5        0.0000 
     41 CA         26.3100   25.0660  -23.9790 C.3      12 GLL5        0.0000 
     42 CA         27.1980   23.4930  -23.0330 C.3       4 GLC5        0.0000 
     43 CA         28.0860   21.9200  -22.0870 C.3       8 GLP5        0.0000 
     44 CA         27.6320   26.3715  -23.0955 C.3       4 GLC5        0.0000 
     45 N          29.3665   26.9770  -27.2200 N.am      2 SEC2        0.0000 
     46 N          28.2940   27.0820  -26.4250 N.am     10 SEL2        0.0000 
     47 N          30.4390   26.8720  -28.0150 N.am      6 SEP2        0.0000 
     48 NZ         22.3920   22.6430  -22.5530 N.4       3 LYC4        0.0000 
     49 NZ         22.9200   23.7800  -23.3530 N.4      11 LYL4        0.0000 
     50 NZ         22.7780   20.7750  -21.1360 N.4       7 LYP4        0.0000 
     51 N          22.4305   24.9525  -22.9790 N.am      2 SEC2        0.0000 
     52 N          22.9200   23.7800  -23.3530 N.am     10 SEL2        0.0000 
     53 N          21.9410   26.1250  -22.6050 N.am      6 SEP2        0.0000 
     54 N          21.8295   23.3980  -23.9680 N.am      2 SEC2        0.0000 
     55 N          20.7390   23.0160  -24.5830 N.am      6 SEP2        0.0000 
     56 N          22.3920   22.6430  -22.5530 N.am      2 SEC2        0.0000 
     57 N          21.8640   21.5060  -21.7530 N.am      6 SEP2        0.0000 
     58 NZ         24.5970   21.7490  -22.3525 N.4       3 LYC4        0.0000 
     59 NZ         25.1480   22.5920  -23.2290 N.4      11 LYL4        0.0000 
     60 N          26.3475   21.9875  -23.8525 N.am      2 SEC2        0.0000 
     61 N          25.1480   22.5920  -23.2290 N.am     10 SEL2        0.0000 
     62 N          27.5470   21.3830  -24.4760 N.am      6 SEP2        0.0000 
     63 N          24.5970   21.7490  -22.3525 N.am      2 SEC2        0.0000 
     64 N          24.0460   20.9060  -21.4760 N.am      6 SEP2        0.0000 
     65 N          26.1595   31.9440  -22.7570 N.am      2 SEC2        0.0000 
     66 N          25.2260   31.5780  -21.7950 N.am     10 SEL2        0.0000 
     67 N          27.0930   32.3100  -23.7190 N.am      6 SEP2        0.0000 
     68 N          25.6855   33.1125  -21.6985 N.am      2 SEC2        0.0000 
     69 N          26.1450   34.6470  -21.6020 N.am      6 SEP2        0.0000 
     70 N          24.7160   21.8705  -25.7335 N.am      2 SEC2        0.0000 
     71 N          24.0970   23.0580  -25.4910 N.am     10 SEL2        0.0000 
     72 N          25.3350   20.6830  -25.9760 N.am      6 SEP2        0.0000 
     73 N          25.2245   23.1775  -26.2325 N.am      2 SEC2        0.0000 
     74 N          26.3520   23.2970  -26.9740 N.am      6 SEP2        0.0000 
     75 N          23.1930   23.0165  -26.4160 N.am      2 SEC2        0.0000 
     76 N          22.2890   22.9750  -27.3410 N.am      6 SEP2        0.0000 
     77 N          22.4180   23.0370  -25.0370 N.am      2 SEC2        0.0000 
     78 N          26.8015   31.1085  -24.3535 N.am      2 SEC2        0.0000 
     79 N          26.5100   29.9070  -24.9880 N.am     10 SEL2        0.0000 
     80 O          25.3970   30.5695  -25.4360 O.2       1 ALC1        0.0000 
     81 O          26.5100   29.9070  -24.9880 O.2       9 ALL1        0.0000 
     82 O          24.2840   31.2320  -25.8840 O.2       5 ALP1        0.0000 
     83 N          22.9635   32.6545  -19.8240 N.am      2 SEC2        0.0000 
     84 N          24.2170   32.2970  -19.3720 N.am     10 SEL2        0.0000 
     85 N          21.7100   33.0120  -20.2760 N.am      6 SEP2        0.0000 
     86 N          24.4495   33.6440  -19.6260 N.am      2 SEC2        0.0000 
     87 N          24.6820   34.9910  -19.8800 N.am      6 SEP2        0.0000 
     88 CA         21.0362   26.8815  -17.7868 C.3       4 GLC5        0.0000 
     89 CA         23.7660   31.1052  -16.2885 C.3       4 GLC5        0.0000 
     90 CA         22.4350   29.4160  -17.0190 C.3      12 GLL5        0.0000 
     91 CA         24.8030   32.3150  -15.1630 C.3       8 GLP5        0.0000 
     92 CA         20.8685   29.7594  -17.7263 C.3       4 GLC5        0.0000 
     93 CA         29.4425   29.4905  -25.3315 C.3       4 GLC5        0.0000 
     94 CA         27.8600   28.3210  -26.1400 C.3      12 GLL5        0.0000 
     95 CA         30.3540   29.5820  -23.7200 C.3       8 GLP5        0.0000 
     96 CA         26.7901   28.4135  -27.6165 C.3       4 GLC5        0.0000 
@<TRIPOS>BOND
@<TRIPOS>SUBSTRUCTURE
     1 ALC1       80 GROUP        1 X    ALC  0     ROOT ALC X 1
     2 SEC2       45 GROUP        1 X    SEC  0     **** SEC X 2
     3 LYC4       48 GROUP        1 X    LYC  0     **** LYC X 4
     4 GLC5        1 GROUP        1 X    GLC  0     **** GLC X 6
     5 ALP1       82 GROUP        1 Y    ALP  0     ROOT ALP Y 8
     6 SEP2       47 GROUP        1 Y    SEP  0     **** SEP Y 9
     7 LYP4       50 GROUP        1 Y    LYP  0     **** LYP Y 11
     8 GLP5        3 GROUP        1 Y    GLP  0     **** GLP Y 13
     9 ALL1       81 GROUP        1 Z    ALL  0     ROOT ALL Z 15
    10 SEL2       46 GROUP        1 Z    SEL  0     **** SEL Z 16
    11 LYL4       49 GROUP        1 Z    LYL  0     **** LYL Z 18
    12 GLL5        2 GROUP        1 Z    GLL  0     **** GLL Z 20
@<TRIPOS>SET

