#    Name: 4ge4_0KE_2_ligand
#    Modification time : Mon Mar 24 21:54:13 2014

@<TRIPOS>MOLECULE
4ge4_0KE_2_ligand
   47    49     1     0     0
SMALL
NO_CHARGES


@<TRIPOS>ATOM
      1 C14        22.9260   27.7590  -18.6760 C.ar      1 0KE501      0.0000 
      2 C13        22.3870   28.1090  -17.4530 C.ar      1 0KE501      0.0000 
      3 C15        23.0230   30.3750  -17.8090 C.ar      1 0KE501      0.0000 
      4 C21        27.7540   26.0890  -25.7090 C.ar      1 0KE501      0.0000 
      5 C1         23.4930   28.7180  -19.4900 C.ar      1 0KE501      0.0000 
      6 C22        26.8040   26.2660  -24.7230 C.ar      1 0KE501      0.0000 
      7 C17        26.3510   27.5490  -24.4460 C.ar      1 0KE501      0.0000 
      8 C16        23.5420   30.0180  -19.0390 C.ar      1 0KE501      0.0000 
      9 C12        22.4350   29.4160  -17.0190 C.ar      1 0KE501      0.0000 
     10 C18        26.9030   28.5910  -25.1800 C.ar      1 0KE501      0.0000 
     11 C19        27.8600   28.3210  -26.1400 C.ar      1 0KE501      0.0000 
     12 C2         24.0530   28.3840  -20.7910 C.2       1 0KE501      0.0000 
     13 C3         24.6280   29.3050  -21.5880 C.2       1 0KE501      0.0000 
     14 C4         24.6900   30.7180  -21.1060 C.2       1 0KE501      0.0000 
     15 C24        28.4450   29.4460  -26.9240 C.3       1 0KE501      0.0000 
     16 C10        21.4070   28.8110  -14.9950 C.3       1 0KE501      0.0000 
     17 C11        25.3130   27.7460  -23.3770 C.3       1 0KE501      0.0000 
     18 C25        26.3100   25.0660  -23.9790 C.3       1 0KE501      0.0000 
     19 N20        28.2940   27.0820  -26.4250 N.ar      1 0KE501      0.0000 
     20 N5         24.1270   30.9700  -19.8720 N.am      1 0KE501      0.0000 
     21 N8         25.1990   29.0870  -22.8330 N.pl3     1 0KE501      0.0000 
     22 O29        22.9200   23.7800  -23.3530 O.co2     1 0KE501      0.0000 
     23 O30        25.1480   22.5920  -23.2290 O.co2     1 0KE501      0.0000 
     24 O7         25.2260   31.5780  -21.7950 O.2       1 0KE501      0.0000 
     25 O28        24.0970   23.0580  -25.4910 O.co2     1 0KE501      0.0000 
     26 O23        26.5100   29.9070  -24.9880 O.3       1 0KE501      0.0000 
     27 O6         24.2170   32.2970  -19.3720 O.2       1 0KE501      0.0000 
     28 O9         21.9040   29.8640  -15.8080 O.3       1 0KE501      0.0000 
     29 O26        24.8990   24.9500  -24.1530 O.3       1 0KE501      0.0000 
     30 P27        24.2240   23.4670  -24.0490 P.3       1 0KE501      0.0000 
     31 H          22.9040   26.7712  -18.9828 H         1 0KE501      0.0000 
     32 H          21.9453   27.3848  -16.8610 H         1 0KE501      0.0000 
     33 H          23.0779   31.3515  -17.4901 H         1 0KE501      0.0000 
     34 H          28.0679   25.0850  -25.9003 H         1 0KE501      0.0000 
     35 H          23.9842   27.3827  -21.0755 H         1 0KE501      0.0000 
     36 H          25.5233   27.0138  -22.5511 H         1 0KE501      0.0000 
     37 H          24.3224   27.4147  -23.7910 H         1 0KE501      0.0000 
     38 H          26.5742   25.1789  -22.9194 H         1 0KE501      0.0000 
     39 H          26.8339   24.1793  -24.3593 H         1 0KE501      0.0000 
     40 H          25.5540   29.8654  -23.3989 H         1 0KE501      0.0000 
     41 H          28.8996   30.1131  -26.3338 H         1 0KE501      0.0000 
     42 H          29.1259   29.1252  -27.5824 H         1 0KE501      0.0000 
     43 H          27.7468   29.9404  -27.4417 H         1 0KE501      0.0000 
     44 H          22.1217   28.1505  -14.7648 H         1 0KE501      0.0000 
     45 H          21.0343   29.1523  -14.1321 H         1 0KE501      0.0000 
     46 H          20.6751   28.3041  -15.4503 H         1 0KE501      0.0000 
     47 H          25.7322   30.0371  -25.6030 H         1 0KE501      0.0000 
@<TRIPOS>BOND
     1    2    1 ar   
     2    5    1 ar   
     3   31    1 1    
     4    9    2 ar   
     5   32    2 1    
     6    8    3 ar   
     7    9    3 ar   
     8   33    3 1    
     9    6    4 ar   
    10   19    4 ar   
    11   34    4 1    
    12    8    5 ar   
    13   12    5 1    
    14    7    6 ar   
    15   18    6 1    
    16   10    7 ar   
    17   17    7 1    
    18   20    8 1    
    19   28    9 1    
    20   11   10 ar   
    21   26   10 1    
    22   15   11 1    
    23   19   11 ar   
    24   13   12 2    
    25   35   12 1    
    26   14   13 1    
    27   21   13 1    
    28   20   14 am   
    29   24   14 2    
    30   41   15 1    
    31   42   15 1    
    32   43   15 1    
    33   28   16 1    
    34   44   16 1    
    35   45   16 1    
    36   46   16 1    
    37   21   17 1    
    38   36   17 1    
    39   37   17 1    
    40   29   18 1    
    41   38   18 1    
    42   39   18 1    
    43   27   20 1    
    44   40   21 1    
    45   30   22 ar   
    46   30   23 ar   
    47   30   25 ar   
    48   47   26 1    
    49   30   29 1    
@<TRIPOS>SUBSTRUCTURE
     1 0KE501      1 GROUP   
@<TRIPOS>SET

