#    Name: 1jbw_ACQ_1_INTS_M
#    Modification time : Tue Mar 25 08:43:09 2014

@<TRIPOS>MOLECULE
1jbw_ACQ_1_INTS_M
   90     0    15     0     0
SMALL
NO_CHARGES


@<TRIPOS>ATOM
      1 NZ         14.8720    4.3010   16.8960 N.4       3 LYC4        0.0000 
      2 NZ         13.8650    3.5230   16.1630 N.4      13 LYL4        0.0000 
      3 NZ         15.8790    5.0790   17.6290 N.4       8 LYP4        0.0000 
      4 Zn         13.3790    4.0550   15.2235 Zn        4 ZIC7        0.0000 
      5 Zn         13.8650    3.5230   16.1630 Zn       14 ZIL7        0.0000 
      6 Zn         12.8930    4.5870   14.2840 Zn        9 ZIP7        0.0000 
      7 N          14.8720    4.3010   16.8960 N.am      2 SEC2        0.0000 
      8 N          13.8650    3.5230   16.1630 N.am     12 SEL2        0.0000 
      9 N          15.8790    5.0790   17.6290 N.am      7 SEP2        0.0000 
     10 Zn         14.4035    0.8680   18.2710 Zn        4 ZIC7        0.0000 
     11 Zn         13.7630    1.5410   17.7400 Zn       14 ZIL7        0.0000 
     12 Zn         15.0440    0.1950   18.8020 Zn        9 ZIP7        0.0000 
     13 Zn         16.0260    0.6445   18.4030 Zn        4 ZIC7        0.0000 
     14 Zn         17.0080    1.0940   18.0040 Zn       14 ZIL7        0.0000 
     15 N          18.0495    0.8885   18.8835 N.am      2 SEC2        0.0000 
     16 N          17.0080    1.0940   18.0040 N.am     12 SEL2        0.0000 
     17 N          19.0910    0.6830   19.7630 N.am      7 SEP2        0.0000 
     18 NZ         16.7115    4.1270   17.0885 N.4       3 LYC4        0.0000 
     19 NZ         17.5440    3.1750   16.5480 N.4      13 LYL4        0.0000 
     20 N          18.8705    3.0475   17.4285 N.am      2 SEC2        0.0000 
     21 N          17.5440    3.1750   16.5480 N.am     12 SEL2        0.0000 
     22 N          20.1970    2.9200   18.3090 N.am      7 SEP2        0.0000 
     23 N          16.7115    4.1270   17.0885 N.am      2 SEC2        0.0000 
     24 CA         14.8360   -0.5150   15.4955 C.3       5 GLC5        0.0000 
     25 CA         15.5020    1.4540   15.8960 C.3      15 GLL5        0.0000 
     26 CA         14.1700   -2.4840   15.0950 C.3      10 GLP5        0.0000 
     27 NZ         17.4840   -3.0295   16.2140 N.4       3 LYC4        0.0000 
     28 NZ         17.7430   -1.5040   16.3970 N.4      13 LYL4        0.0000 
     29 NZ         17.2250   -4.5550   16.0310 N.4       8 LYP4        0.0000 
     30 N          20.4845   -0.8940   17.8215 N.am      2 SEC2        0.0000 
     31 N          19.9780   -0.3590   16.5620 N.am     12 SEL2        0.0000 
     32 N          20.9910   -1.4290   19.0810 N.am      7 SEP2        0.0000 
     33 N          20.9470   -1.4410   16.5350 N.am      2 SEC2        0.0000 
     34 N          21.9160   -2.5230   16.5080 N.am      7 SEP2        0.0000 
     35 N          19.2000    1.9350   15.6035 N.am      2 SEC2        0.0000 
     36 N          17.8770    0.8290   15.7110 N.am     12 SEL2        0.0000 
     37 N          20.5230    3.0410   15.4960 N.am      7 SEP2        0.0000 
     38 CA         15.9980   -1.6650   14.2490 C.3       5 GLC5        0.0000 
     39 CA         17.8260   -0.8460   13.4030 C.3      15 GLL5        0.0000 
     40 CA         16.7190   -1.5775   10.9155 C.3       5 GLC5        0.0000 
     41 CA         18.2530   -0.5780   11.9850 C.3      15 GLL5        0.0000 
     42 CA         15.1850   -2.5770    9.8460 C.3      10 GLP5        0.0000 
     43 CA         19.7285   -2.9755   12.6785 C.3       5 GLC5        0.0000 
     44 CA         19.3390   -1.4680   11.5120 C.3      15 GLL5        0.0000 
     45 CA         20.1180   -4.4830   13.8450 C.3      10 GLP5        0.0000 
     46 N          17.4635   -3.1280   10.2385 N.am      2 SEC2        0.0000 
     47 N          18.7630   -2.6760   10.9920 N.am     12 SEL2        0.0000 
     48 N          16.1640   -3.5800    9.4850 N.am      7 SEP2        0.0000 
     49 O          18.8060   -2.7095    9.3025 O.2       1 ALC1        0.0000 
     50 O          18.7630   -2.6760   10.9920 O.2      11 ALL1        0.0000 
     51 O          18.8490   -2.7430    7.6130 O.2       6 ALP1        0.0000 
     52 O          19.1350   -3.4615   10.0235 O.2       1 ALC1        0.0000 
     53 O          19.5070   -4.2470    9.0550 O.2       6 ALP1        0.0000 
     54 CA         21.8640   -1.0630   10.1830 C.3       5 GLC5        0.0000 
     55 CA         20.0350   -0.6370   10.4790 C.3      15 GLL5        0.0000 
     56 CA         23.6930   -1.4890    9.8870 C.3      10 GLP5        0.0000 
     57 O          19.0810   -1.6800    8.4240 O.2       1 ALC1        0.0000 
     58 O          19.3130   -0.6170    9.2350 O.2      11 ALL1        0.0000 
     59 CA         19.9625    2.7470   11.8660 C.3       5 GLC5        0.0000 
     60 CA         19.9400    0.8220   11.0200 C.3      15 GLL5        0.0000 
     61 CA         19.9850    4.6720   12.7120 C.3      10 GLP5        0.0000 
     62 CA         21.9440   -0.1140   11.1015 C.3       5 GLC5        0.0000 
     63 CA         23.9480   -1.0500   11.1830 C.3      10 GLP5        0.0000 
     64 N          23.5740    1.1425   14.4440 N.am      2 SEC2        0.0000 
     65 N          22.5930    1.6730   13.5290 N.am     12 SEL2        0.0000 
     66 N          24.5550    0.6120   15.3590 N.am      7 SEP2        0.0000 
     67 CA         22.2425    2.4350   14.3970 C.3       5 GLC5        0.0000 
     68 CA         22.9370    2.4330   12.4540 C.3      15 GLL5        0.0000 
     69 CA         21.5480    2.4370   16.3400 C.3      10 GLP5        0.0000 
     70 O          25.0395    3.1095   14.7210 O.2       1 ALC1        0.0000 
     71 O          24.8890    3.6380   13.2180 O.2      11 ALL1        0.0000 
     72 O          25.1900    2.5810   16.2240 O.2       6 ALP1        0.0000 
     73 CA         21.5815    4.1915   11.3850 C.3       5 GLC5        0.0000 
     74 CA         23.1780    3.7110   10.0580 C.3      15 GLL5        0.0000 
     75 CA         24.8425    2.7105   10.3260 C.3       5 GLC5        0.0000 
     76 CA         26.5070    1.7100   10.5940 C.3      10 GLP5        0.0000 
     77 CA         21.4010    3.6415    8.6940 C.3       5 GLC5        0.0000 
     78 CA         19.6240    3.5720    7.3300 C.3      10 GLP5        0.0000 
     79 Zn         12.7585    3.5995   13.7950 Zn        4 ZIC7        0.0000 
     80 Zn         12.6240    2.6120   13.3060 Zn       14 ZIL7        0.0000 
     81 N          12.6320    2.8235   12.0840 N.am      2 SEC2        0.0000 
     82 N          12.6240    2.6120   13.3060 N.am     12 SEL2        0.0000 
     83 N          12.6400    3.0350   10.8620 N.am      7 SEP2        0.0000 
     84 N          11.8545   -0.9815   12.3505 N.am      2 SEC2        0.0000 
     85 N          12.3530    0.1100   13.0500 N.am     12 SEL2        0.0000 
     86 N          11.3560   -2.0730   11.6510 N.am      7 SEP2        0.0000 
     87 CA         18.3328   -2.5430   13.3595 C.3       5 GLC5        0.0000 
     88 CA         18.6260   -4.3740   14.0250 C.3      10 GLP5        0.0000 
     89 CA         24.9863    2.3045   11.4715 C.3       5 GLC5        0.0000 
     90 CA         21.3744    3.6210   12.2880 C.3       5 GLC5        0.0000 
@<TRIPOS>BOND
@<TRIPOS>SUBSTRUCTURE
     1 ALC1       49 GROUP        1 X    ALC  0     ROOT ALC X 1
     2 SEC2        7 GROUP        1 X    SEC  0     **** SEC X 2
     3 LYC4        1 GROUP        1 X    LYC  0     **** LYC X 4
     4 ZIC7        4 GROUP        1 X    ZIC  0     **** ZIC X 5
     5 GLC5       24 GROUP        1 X    GLC  0     **** GLC X 6
     6 ALP1       51 GROUP        1 Y    ALP  0     ROOT ALP Y 8
     7 SEP2        9 GROUP        1 Y    SEP  0     **** SEP Y 9
     8 LYP4        3 GROUP        1 Y    LYP  0     **** LYP Y 11
     9 ZIP7        6 GROUP        1 Y    ZIP  0     **** ZIP Y 12
    10 GLP5       26 GROUP        1 Y    GLP  0     **** GLP Y 13
    11 ALL1       50 GROUP        1 Z    ALL  0     ROOT ALL Z 15
    12 SEL2        8 GROUP        1 Z    SEL  0     **** SEL Z 16
    13 LYL4        2 GROUP        1 Z    LYL  0     **** LYL Z 18
    14 ZIL7        5 GROUP        1 Z    ZIL  0     **** ZIL Z 19
    15 GLL5       25 GROUP        1 Z    GLL  0     **** GLL Z 20
@<TRIPOS>SET

