#    Name: 1jbw_ACQ_1_ligand
#    Modification time : Tue Mar 25 08:43:09 2014

@<TRIPOS>MOLECULE
1jbw_ACQ_1_ligand
   49    51     1     0     0
SMALL
NO_CHARGES


@<TRIPOS>ATOM
      1 PG         13.8940    2.0220   16.3150 P.3       1 ACQ999      0.0000 
      2 O1G        13.8650    3.5230   16.1630 O.co2     1 ACQ999      0.0000 
      3 O2G        13.7630    1.5410   17.7400 O.co2     1 ACQ999      0.0000 
      4 O3G        12.9240    1.2000   15.2960 O.3       1 ACQ999      0.0000 
      5 PB         17.0930    1.7430   16.6630 P.3       1 ACQ999      0.0000 
      6 O1B        17.0080    1.0940   18.0040 O.co2     1 ACQ999      0.0000 
      7 O2B        17.5440    3.1750   16.5480 O.co2     1 ACQ999      0.0000 
      8 C3B        15.5020    1.4540   15.8960 C.3       1 ACQ999      0.0000 
      9 PA         18.6780   -0.4790   15.8760 P.3       1 ACQ999      0.0000 
     10 O1A        17.7430   -1.5040   16.3970 O.co2     1 ACQ999      0.0000 
     11 O2A        19.9780   -0.3590   16.5620 O.co2     1 ACQ999      0.0000 
     12 O3A        17.8770    0.8290   15.7110 O.3       1 ACQ999      0.0000 
     13 O5'        18.9500   -0.6590   14.3150 O.3       1 ACQ999      0.0000 
     14 C5'        17.8260   -0.8460   13.4030 C.3       1 ACQ999      0.0000 
     15 C4'        18.2530   -0.5780   11.9850 C.3       1 ACQ999      0.0000 
     16 O4'        18.7930    0.7740   11.9240 O.3       1 ACQ999      0.0000 
     17 C3'        19.3390   -1.4680   11.5120 C.3       1 ACQ999      0.0000 
     18 O3'        18.7630   -2.6760   10.9920 O.3       1 ACQ999      0.0000 
     19 C2'        20.0350   -0.6370   10.4790 C.3       1 ACQ999      0.0000 
     20 O2'        19.3130   -0.6170    9.2350 O.3       1 ACQ999      0.0000 
     21 C1'        19.9400    0.8220   11.0200 C.3       1 ACQ999      0.0000 
     22 N9         21.1290    1.3340   11.8120 N.pl3     1 ACQ999      0.0000 
     23 C8         21.5230    1.0420   13.0980 C.2       1 ACQ999      0.0000 
     24 N7         22.5930    1.6730   13.5290 N.2       1 ACQ999      0.0000 
     25 C5         22.9370    2.4330   12.4540 C.ar      1 ACQ999      0.0000 
     26 C6         23.9940    3.3650   12.2440 C.ar      1 ACQ999      0.0000 
     27 N6         24.8890    3.6380   13.2180 N.pl3     1 ACQ999      0.0000 
     28 N1         24.0780    3.9860   11.0240 N.ar      1 ACQ999      0.0000 
     29 C2         23.1780    3.7110   10.0580 C.ar      1 ACQ999      0.0000 
     30 N3         22.1290    2.8540   10.1330 N.ar      1 ACQ999      0.0000 
     31 C4         22.0620    2.2410   11.3790 C.ar      1 ACQ999      0.0000 
     32 PD         12.0810    1.3370   13.9080 P.3       1 ACQ999      0.0000 
     33 O1D        12.6240    2.6120   13.3060 O.co2     1 ACQ999      0.0000 
     34 O2D        12.3530    0.1100   13.0500 O.co2     1 ACQ999      0.0000 
     35 O3D        10.5990    1.4280   14.2400 O.co2     1 ACQ999      0.0000 
     36 H          15.6559    1.7404   14.7994 H         1 ACQ999      0.0000 
     37 H          15.4200    0.3153   15.8258 H         1 ACQ999      0.0000 
     38 H          17.0045   -0.1655   13.6586 H         1 ACQ999      0.0000 
     39 H          17.4429   -1.8718   13.4682 H         1 ACQ999      0.0000 
     40 H          17.4079   -0.6509   11.3305 H         1 ACQ999      0.0000 
     41 H          20.0067   -1.6437   12.3250 H         1 ACQ999      0.0000 
     42 H          21.0338   -0.8827   10.3897 H         1 ACQ999      0.0000 
     43 H          19.7142    1.4708   10.2047 H         1 ACQ999      0.0000 
     44 H          20.9979    0.3743   13.6562 H         1 ACQ999      0.0000 
     45 H          25.5831    4.3235   12.9982 H         1 ACQ999      0.0000 
     46 H          24.7781    3.1303   14.0724 H         1 ACQ999      0.0000 
     47 H          23.3051    4.2346    9.1092 H         1 ACQ999      0.0000 
     48 H          19.3523   -2.9351   10.2268 H         1 ACQ999      0.0000 
     49 H          19.3011   -1.5685    8.9275 H         1 ACQ999      0.0000 
@<TRIPOS>BOND
     1    2    1 ar   
     2    3    1 ar   
     3    4    1 1    
     4    8    1 1    
     5   32    4 1    
     6    6    5 ar   
     7    7    5 ar   
     8    8    5 1    
     9   12    5 1    
    10   36    8 1    
    11   37    8 1    
    12   10    9 ar   
    13   11    9 ar   
    14   12    9 1    
    15   13    9 1    
    16   14   13 1    
    17   15   14 1    
    18   38   14 1    
    19   39   14 1    
    20   16   15 1    
    21   17   15 1    
    22   40   15 1    
    23   21   16 1    
    24   18   17 1    
    25   19   17 1    
    26   41   17 1    
    27   48   18 1    
    28   20   19 1    
    29   21   19 1    
    30   42   19 1    
    31   49   20 1    
    32   22   21 1    
    33   43   21 1    
    34   23   22 1    
    35   31   22 1    
    36   24   23 2    
    37   44   23 1    
    38   25   24 1    
    39   26   25 ar   
    40   31   25 ar   
    41   27   26 1    
    42   28   26 ar   
    43   45   27 1    
    44   46   27 1    
    45   29   28 ar   
    46   30   29 ar   
    47   47   29 1    
    48   31   30 ar   
    49   33   32 ar   
    50   34   32 ar   
    51   35   32 ar   
@<TRIPOS>SUBSTRUCTURE
     1 ACQ999      1 GROUP   
@<TRIPOS>SET

