#    Name: 4m49_22Y_3_INTS_M
#    Modification time : Tue Mar 25 11:50:32 2014

@<TRIPOS>MOLECULE
4m49_22Y_3_INTS_M
   57     0     9     0     0
SMALL
NO_CHARGES


@<TRIPOS>ATOM
      1 CA         12.9155   -5.2425   -1.8980 C.3       3 GLC5        0.0000 
      2 CA         13.8780   -5.9270   -0.6300 C.3       9 GLL5        0.0000 
      3 CA         11.9530   -4.5580   -3.1660 C.3       6 GLP5        0.0000 
      4 CA         13.5500  -10.6595    1.2275 C.3       3 GLC5        0.0000 
      5 CA         12.6890   -8.7450    0.7270 C.3       9 GLL5        0.0000 
      6 CA         14.4110  -12.5740    1.7280 C.3       6 GLP5        0.0000 
      7 CA         12.3395   -8.4615    2.9180 C.3       3 GLC5        0.0000 
      8 CA         11.9900   -8.1780    5.1090 C.3       6 GLP5        0.0000 
      9 O          14.7695   -6.0220    2.1330 O.2       1 ALC1        0.0000 
     10 O          14.8510   -7.1870    1.2370 O.2       7 ALL1        0.0000 
     11 O          14.6880   -4.8570    3.0290 O.2       4 ALP1        0.0000 
     12 CA         17.2800   -7.3485    1.1375 C.3       3 GLC5        0.0000 
     13 CA         15.6460   -8.1930    1.7770 C.3       9 GLL5        0.0000 
     14 CA         18.9140   -6.5040    0.4980 C.3       6 GLP5        0.0000 
     15 CA         16.9110   -6.6980    4.1370 C.3       3 GLC5        0.0000 
     16 CA         15.8230   -8.2970    3.1710 C.3       9 GLL5        0.0000 
     17 CA         17.9990   -5.0990    5.1030 C.3       6 GLP5        0.0000 
     18 CA         13.9065   -8.2375    4.1400 C.3       3 GLC5        0.0000 
     19 CA         15.5300   -9.0455    5.2310 C.3       3 GLC5        0.0000 
     20 CA         15.2370   -9.7940    7.2910 C.3       6 GLP5        0.0000 
     21 CA         17.7590   -8.0415    3.0820 C.3       3 GLC5        0.0000 
     22 CA         19.6950   -7.7860    2.9930 C.3       6 GLP5        0.0000 
     23 N          15.4515   -9.4420    4.9190 N.am      2 SEC2        0.0000 
     24 N          16.5730   -9.2670    3.6730 N.am      8 SEL2        0.0000 
     25 N          14.3300   -9.6170    6.1650 N.am      5 SEP2        0.0000 
     26 N          16.9995   -9.6525    4.9505 N.am      2 SEC2        0.0000 
     27 N          17.4260  -10.0380    6.2280 N.am      5 SEP2        0.0000 
     28 CA         16.5605  -11.0570    4.5385 C.3       3 GLC5        0.0000 
     29 CA         17.1550  -10.1320    2.8530 C.3       9 GLL5        0.0000 
     30 CA         15.9660  -11.9820    6.2240 C.3       6 GLP5        0.0000 
     31 CA         18.6585   -9.4675    3.3500 C.3       3 GLC5        0.0000 
     32 CA         20.1620   -8.8030    3.8470 C.3       6 GLP5        0.0000 
     33 CA         18.3310   -8.9180    2.2335 C.3       3 GLC5        0.0000 
     34 CA         16.9670  -10.0500    1.4740 C.3       9 GLL5        0.0000 
     35 CA         19.5745  -10.0485    2.3585 C.3       3 GLC5        0.0000 
     36 CA         18.9870  -11.2940    0.8700 C.3       9 GLL5        0.0000 
     37 CA         14.8895  -11.9585    0.3790 C.3       3 GLC5        0.0000 
     38 CA         15.3680  -11.3430   -0.9700 C.3       9 GLL5        0.0000 
     39 N          21.7925  -10.5420    0.4345 N.am      2 SEC2        0.0000 
     40 N          21.7180  -11.8850    1.2040 N.am      8 SEL2        0.0000 
     41 N          21.8670   -9.1990   -0.3350 N.am      5 SEP2        0.0000 
     42 N          23.0385  -11.9900    1.0665 N.am      2 SEC2        0.0000 
     43 N          24.3590  -12.0950    0.9290 N.am      5 SEP2        0.0000 
     44 O          15.4975   -7.4545    5.4230 O.2       1 ALC1        0.0000 
     45 O          15.2190   -7.3860    4.0250 O.2       7 ALL1        0.0000 
     46 O          15.7760   -7.5230    6.8210 O.2       4 ALP1        0.0000 
     47 O          14.9535   -6.1215    3.5270 O.2       1 ALC1        0.0000 
     48 CA         11.6037  -11.7878    0.9850 C.3       3 GLC5        0.0000 
     49 CA         11.7570   -9.7520    0.5740 C.3       9 GLL5        0.0000 
     50 CA         11.5290  -13.5120    2.0100 C.3       6 GLP5        0.0000 
     51 CA         15.7360  -11.3325    1.9458 C.3       3 GLC5        0.0000 
     52 CA         18.4183  -12.7988    1.8758 C.3       3 GLC5        0.0000 
     53 CA         17.6500  -11.0190    0.5830 C.3       9 GLL5        0.0000 
     54 CA         18.5180  -14.4410    3.0250 C.3       6 GLP5        0.0000 
     55 CA         15.8750  -11.9497    0.8787 C.3       3 GLC5        0.0000 
     56 CA         18.9500  -13.4640    1.2737 C.3       3 GLC5        0.0000 
     57 CA         19.0680  -12.7880   -1.0250 C.3       9 GLL5        0.0000 
@<TRIPOS>BOND
@<TRIPOS>SUBSTRUCTURE
     1 ALC1        9 GROUP        1 X    ALC  0     ROOT ALC X 1
     2 SEC2       23 GROUP        1 X    SEC  0     **** SEC X 2
     3 GLC5        1 GROUP        1 X    GLC  0     **** GLC X 6
     4 ALP1       11 GROUP        1 Y    ALP  0     ROOT ALP Y 8
     5 SEP2       25 GROUP        1 Y    SEP  0     **** SEP Y 9
     6 GLP5        3 GROUP        1 Y    GLP  0     **** GLP Y 13
     7 ALL1       10 GROUP        1 Z    ALL  0     ROOT ALL Z 15
     8 SEL2       24 GROUP        1 Z    SEL  0     **** SEL Z 16
     9 GLL5        2 GROUP        1 Z    GLL  0     **** GLL Z 20
@<TRIPOS>SET

