#    Name: 4m49_22Y_3_ligand
#    Modification time : Tue Mar 25 11:50:32 2014

@<TRIPOS>MOLECULE
4m49_22Y_3_ligand
   42    44     1     0     0
SMALL
NO_CHARGES


@<TRIPOS>ATOM
      1 C1         13.8780   -5.9270   -0.6300 C.3       1 22Y802      0.0000 
      2 C2         14.4820   -7.2600   -0.1780 C.3       1 22Y802      0.0000 
      3 C4         13.4640   -8.3580   -0.3510 C.ar      1 22Y802      0.0000 
      4 C5         12.6890   -8.7450    0.7270 C.ar      1 22Y802      0.0000 
      5 C6         11.7570   -9.7520    0.5740 C.ar      1 22Y802      0.0000 
      6 C7         11.6000  -10.3750   -0.6540 C.ar      1 22Y802      0.0000 
      7 C8         12.3740   -9.9850   -1.7320 C.ar      1 22Y802      0.0000 
      8 C9         13.3100   -8.9770   -1.5800 C.ar      1 22Y802      0.0000 
      9 N10        14.8510   -7.1870    1.2370 N.pl3     1 22Y802      0.0000 
     10 C11        15.6460   -8.1930    1.7770 C.ar      1 22Y802      0.0000 
     11 C12        15.8230   -8.2970    3.1710 C.ar      1 22Y802      0.0000 
     12 N13        16.5730   -9.2670    3.6730 N.ar      1 22Y802      0.0000 
     13 C14        17.1550  -10.1320    2.8530 C.ar      1 22Y802      0.0000 
     14 C15        16.9670  -10.0500    1.4740 C.ar      1 22Y802      0.0000 
     15 N16        16.2210   -9.0690    0.9650 N.ar      1 22Y802      0.0000 
     16 C17        17.6500  -11.0190    0.5830 C.ar      1 22Y802      0.0000 
     17 C18        18.9870  -11.2940    0.8700 C.ar      1 22Y802      0.0000 
     18 C19        19.6960  -12.1860    0.0700 C.ar      1 22Y802      0.0000 
     19 C20        19.0680  -12.7880   -1.0250 C.ar      1 22Y802      0.0000 
     20 C21        17.7500  -12.5140   -1.3100 C.ar      1 22Y802      0.0000 
     21 C22        17.0280  -11.6320   -0.5240 C.ar      1 22Y802      0.0000 
     22 CL1        15.3680  -11.3430   -0.9700 Cl        1 22Y802      0.0000 
     23 C24        21.1120  -12.4900    0.3390 C.2       1 22Y802      0.0000 
     24 O25        21.7180  -11.8850    1.2040 O.co2     1 22Y802      0.0000 
     25 O26        21.7440  -13.4180   -0.4080 O.co2     1 22Y802      0.0000 
     26 N27        15.2190   -7.3860    4.0250 N.pl3     1 22Y802      0.0000 
     27 H          15.3369   -7.4741   -0.7822 H         1 22Y802      0.0000 
     28 H          12.8073   -8.2834    1.6395 H         1 22Y802      0.0000 
     29 H          11.1747  -10.0433    1.3745 H         1 22Y802      0.0000 
     30 H          10.9060  -11.1290   -0.7628 H         1 22Y802      0.0000 
     31 H          12.2542  -10.4437   -2.6462 H         1 22Y802      0.0000 
     32 H          13.8910   -8.6876   -2.3792 H         1 22Y802      0.0000 
     33 H          14.5180   -6.4074    1.7831 H         1 22Y802      0.0000 
     34 H          17.7684  -10.8963    3.2163 H         1 22Y802      0.0000 
     35 H          19.4450  -10.8403    1.6675 H         1 22Y802      0.0000 
     36 H          19.6054  -13.4409   -1.6174 H         1 22Y802      0.0000 
     37 H          17.2906  -12.9696   -2.1188 H         1 22Y802      0.0000 
     38 H          15.4150   -7.4992    4.9991 H         1 22Y802      0.0000 
     39 H          14.6398   -6.6948    3.5928 H         1 22Y802      0.0000 
     40 H          14.5268   -5.1726   -0.5306 H         1 22Y802      0.0000 
     41 H          13.6017   -5.9512   -1.5908 H         1 22Y802      0.0000 
     42 H          13.0662   -5.6875   -0.0975 H         1 22Y802      0.0000 
@<TRIPOS>BOND
     1    2    1 1    
     2   40    1 1    
     3   41    1 1    
     4   42    1 1    
     5    3    2 1    
     6    9    2 1    
     7   27    2 1    
     8    4    3 ar   
     9    8    3 ar   
    10    5    4 ar   
    11   28    4 1    
    12    6    5 ar   
    13   29    5 1    
    14    7    6 ar   
    15   30    6 1    
    16    8    7 ar   
    17   31    7 1    
    18   32    8 1    
    19   10    9 1    
    20   33    9 1    
    21   11   10 ar   
    22   15   10 ar   
    23   12   11 ar   
    24   26   11 1    
    25   13   12 ar   
    26   14   13 ar   
    27   34   13 1    
    28   15   14 ar   
    29   16   14 1    
    30   17   16 ar   
    31   21   16 ar   
    32   18   17 ar   
    33   35   17 1    
    34   19   18 ar   
    35   23   18 1    
    36   20   19 ar   
    37   36   19 1    
    38   21   20 ar   
    39   37   20 1    
    40   22   21 1    
    41   24   23 ar   
    42   25   23 ar   
    43   38   26 1    
    44   39   26 1    
@<TRIPOS>SUBSTRUCTURE
     1 22Y802      1 GROUP   
@<TRIPOS>SET

