#    Name: 4nc3_ERM_1_INTS_M
#    Modification time : Tue Mar 25 12:59:54 2014

@<TRIPOS>MOLECULE
4nc3_ERM_1_INTS_M
  106     0    12     0     0
SMALL
NO_CHARGES


@<TRIPOS>ATOM
      1 CA        -21.9865  -13.3075    6.0540 C.3       4 GLC5        0.0000 
      2 CA        -23.2070  -14.7790    5.2580 C.3      12 GLL5        0.0000 
      3 CA        -20.7660  -11.8360    6.8500 C.3       8 GLP5        0.0000 
      4 CA        -22.9265  -13.2890    3.7135 C.3       4 GLC5        0.0000 
      5 CA        -22.6460  -11.7990    2.1690 C.3       8 GLP5        0.0000 
      6 CA        -24.7820  -13.4180    4.6910 C.3       4 GLC5        0.0000 
      7 CA        -26.3570  -12.0570    4.1240 C.3       8 GLP5        0.0000 
      8 CA        -25.8820  -11.7055    8.6735 C.3       4 GLC5        0.0000 
      9 CA        -24.5310  -13.3600    8.2740 C.3      12 GLL5        0.0000 
     10 CA        -27.2330  -10.0510    9.0730 C.3       8 GLP5        0.0000 
     11 CA        -25.1565  -13.0305    5.6825 C.3       4 GLC5        0.0000 
     12 CA        -23.9560  -14.0040    7.2410 C.3      12 GLL5        0.0000 
     13 CA        -22.1810  -19.9770    4.8390 C.3       4 GLC5        0.0000 
     14 CA        -21.1080  -19.7220    6.4790 C.3      12 GLL5        0.0000 
     15 CA        -23.2540  -20.2320    3.1990 C.3       8 GLP5        0.0000 
     16 CA        -22.8065  -19.5390    7.8855 C.3       4 GLC5        0.0000 
     17 CA        -24.5050  -19.3560    9.2920 C.3       8 GLP5        0.0000 
     18 CA        -20.5850  -21.6595    7.0775 C.3       4 GLC5        0.0000 
     19 CA        -20.0620  -23.5970    7.6760 C.3       8 GLP5        0.0000 
     20 CA        -19.6795  -20.6045    5.4325 C.3       4 GLC5        0.0000 
     21 CA        -18.2510  -21.4870    4.3860 C.3       8 GLP5        0.0000 
     22 CA        -18.9595  -19.7945   15.3590 C.3       4 GLC5        0.0000 
     23 CA        -19.0790  -19.8010   13.2770 C.3      12 GLL5        0.0000 
     24 CA        -18.8400  -19.7880   17.4410 C.3       8 GLP5        0.0000 
     25 CA        -20.4145  -19.8915   16.4555 C.3       4 GLC5        0.0000 
     26 CA        -21.9890  -19.9950   15.4700 C.3      12 GLL5        0.0000 
     27 OD1       -19.7470  -17.9575    6.9250 O.co2     3 ASC3        0.0000 
     28 OD1       -20.8980  -18.7020    7.5410 O.co2    11 ASL3        0.0000 
     29 OD1       -18.5960  -17.2130    6.3090 O.co2     7 ASP3        0.0000 
     30 OD1       -19.1450  -18.7415    7.3925 O.co2     3 ASC3        0.0000 
     31 OD1       -17.3920  -18.7810    7.2440 O.co2     7 ASP3        0.0000 
     32 O         -19.7470  -17.9575    6.9250 O.2       1 ALC1        0.0000 
     33 O         -20.8980  -18.7020    7.5410 O.2       9 ALL1        0.0000 
     34 O         -18.5960  -17.2130    6.3090 O.2       5 ALP1        0.0000 
     35 CA        -23.1260  -24.7745   17.3195 C.3       4 GLC5        0.0000 
     36 CA        -21.9330  -23.7370   16.4000 C.3      12 GLL5        0.0000 
     37 CA        -24.3190  -25.8120   18.2390 C.3       8 GLP5        0.0000 
     38 CA        -23.4575  -25.3565   16.1200 C.3       4 GLC5        0.0000 
     39 CA        -21.7230  -24.6740   15.2350 C.3      12 GLL5        0.0000 
     40 CA        -25.1920  -26.0390   17.0050 C.3       8 GLP5        0.0000 
     41 CA        -23.4645  -24.5650   14.1970 C.3       4 GLC5        0.0000 
     42 CA        -25.2060  -24.4560   13.1590 C.3       8 GLP5        0.0000 
     43 CA        -21.4250  -26.2850   14.1420 C.3       4 GLC5        0.0000 
     44 CA        -21.1270  -27.8960   13.0490 C.3       8 GLP5        0.0000 
     45 CA        -21.2400  -25.5490   13.1515 C.3       4 GLC5        0.0000 
     46 CA        -20.6390  -23.9870   14.3530 C.3      12 GLL5        0.0000 
     47 CA        -21.8410  -27.1110   11.9500 C.3       8 GLP5        0.0000 
     48 CA        -15.6600  -19.5505   12.8755 C.3       4 GLC5        0.0000 
     49 CA        -17.6400  -19.6240   13.7240 C.3      12 GLL5        0.0000 
     50 CA        -13.6800  -19.4770   12.0270 C.3       8 GLP5        0.0000 
     51 CA        -16.9500  -17.9645   13.0675 C.3       4 GLC5        0.0000 
     52 CA        -16.2600  -16.3050   12.4110 C.3       8 GLP5        0.0000 
     53 CA        -17.2425  -18.9380   15.4820 C.3       4 GLC5        0.0000 
     54 CA        -16.8450  -18.2520   17.2400 C.3       8 GLP5        0.0000 
     55 CA        -24.6690  -20.9345   14.5075 C.3       4 GLC5        0.0000 
     56 CA        -23.1780  -19.4320   14.7490 C.3      12 GLL5        0.0000 
     57 CA        -26.1600  -22.4370   14.2660 C.3       8 GLP5        0.0000 
     58 CA        -24.3955  -16.9545   14.3360 C.3       4 GLC5        0.0000 
     59 CA        -24.0120  -18.5620   15.6640 C.3      12 GLL5        0.0000 
     60 CA        -24.7790  -15.3470   13.0080 C.3       8 GLP5        0.0000 
     61 CA        -21.1780  -16.6975    4.4575 C.3       4 GLC5        0.0000 
     62 CA        -21.7290  -16.7780    6.1570 C.3      12 GLL5        0.0000 
     63 CA        -20.6270  -16.6170    2.7580 C.3       8 GLP5        0.0000 
     64 N         -19.3720  -17.3915   15.7930 N.am      2 SEC2        0.0000 
     65 N         -20.0430  -18.0610   14.6920 N.am     10 SEL2        0.0000 
     66 N         -18.7010  -16.7220   16.8940 N.am      6 SEP2        0.0000 
     67 CA        -22.9165  -16.1525   18.7820 C.3       4 GLC5        0.0000 
     68 CA        -24.2280  -16.6400   17.1130 C.3      12 GLL5        0.0000 
     69 CA        -21.6050  -15.6650   20.4510 C.3       8 GLP5        0.0000 
     70 CA        -25.7555  -20.6590   15.0765 C.3       4 GLC5        0.0000 
     71 CA        -25.3510  -18.8810   15.8870 C.3      12 GLL5        0.0000 
     72 CA        -21.3630  -21.3035    9.1065 C.3       4 GLC5        0.0000 
     73 CA        -20.8490  -19.4000    8.8670 C.3      12 GLL5        0.0000 
     74 CA        -21.8770  -23.2070    9.3460 C.3       8 GLP5        0.0000 
     75 CA        -21.7773  -15.9023    4.2428 C.3       4 GLC5        0.0000 
     76 CA        -22.6480  -15.5960    6.1970 C.3      12 GLL5        0.0000 
     77 CA        -24.3095  -14.8648   11.3447 C.3       4 GLC5        0.0000 
     78 CA        -23.4170  -14.9360    9.7720 C.3      12 GLL5        0.0000 
     79 CA        -22.5047  -12.7590    7.3037 C.3       4 GLC5        0.0000 
     80 CA        -21.3819  -14.3208    8.3589 C.3       4 GLC5        0.0000 
     81 CA        -23.1200  -15.1040    7.4280 C.3      12 GLL5        0.0000 
     82 CA        -19.6430  -13.4560    8.3840 C.3       8 GLP5        0.0000 
     83 CA        -20.6988  -14.8770    6.0420 C.3       4 GLC5        0.0000 
     84 CA        -19.2090  -13.5670    5.9070 C.3       8 GLP5        0.0000 
     85 CA        -19.7407  -20.9000   15.9350 C.3       4 GLC5        0.0000 
     86 CA        -20.7050  -21.4560   13.9160 C.3      12 GLL5        0.0000 
     87 CA        -22.0867  -16.0862   16.3320 C.3       4 GLC5        0.0000 
     88 CA        -23.4510  -17.4390   16.2750 C.3      12 GLL5        0.0000 
     89 CA        -20.3340  -15.1330   15.9700 C.3       8 GLP5        0.0000 
     90 CA        -23.8412  -15.6018   15.3355 C.3       4 GLC5        0.0000 
     91 CA        -23.8430  -14.1640   13.9770 C.3       8 GLP5        0.0000 
     92 CA        -25.1395  -16.0515   19.0023 C.3       4 GLC5        0.0000 
     93 CA        -25.3810  -15.3020   20.7790 C.3       8 GLP5        0.0000 
     94 CA        -27.7715  -16.7040   16.8630 C.3       4 GLC5        0.0000 
     95 CA        -25.5680  -16.9620   17.3380 C.3      12 GLL5        0.0000 
     96 CA        -29.6950  -15.8860   16.6940 C.3       8 GLP5        0.0000 
     97 CA        -26.4743  -20.1107   16.8858 C.3       4 GLC5        0.0000 
     98 CA        -26.1280  -18.0820   16.7260 C.3      12 GLL5        0.0000 
     99 CA        -27.2090  -21.7400   17.4650 C.3       8 GLP5        0.0000 
    100 CA        -25.9752  -16.7888   15.1797 C.3       4 GLC5        0.0000 
    101 CA        -26.3510  -15.3760   13.9000 C.3       8 GLP5        0.0000 
    102 CA        -22.5673  -19.1258    9.3368 C.3       4 GLC5        0.0000 
    103 CA        -20.6190  -15.2172    8.8457 C.3       4 GLC5        0.0000 
    104 CA        -21.2870  -17.1700    9.8640 C.3      12 GLL5        0.0000 
    105 CA        -23.0529  -18.2698    9.1406 C.3       4 GLC5        0.0000 
    106 CA        -21.9030  -16.7870    8.7510 C.3      12 GLL5        0.0000 
@<TRIPOS>BOND
@<TRIPOS>SUBSTRUCTURE
     1 ALC1       32 GROUP        1 X    ALC  0     ROOT ALC X 1
     2 SEC2       64 GROUP        1 X    SEC  0     **** SEC X 2
     3 ASC3       27 GROUP        1 X    ASC  0     **** ASC X 3
     4 GLC5        1 GROUP        1 X    GLC  0     **** GLC X 6
     5 ALP1       34 GROUP        1 Y    ALP  0     ROOT ALP Y 8
     6 SEP2       66 GROUP        1 Y    SEP  0     **** SEP Y 9
     7 ASP3       29 GROUP        1 Y    ASP  0     **** ASP Y 10
     8 GLP5        3 GROUP        1 Y    GLP  0     **** GLP Y 13
     9 ALL1       33 GROUP        1 Z    ALL  0     ROOT ALL Z 15
    10 SEL2       65 GROUP        1 Z    SEL  0     **** SEL Z 16
    11 ASL3       28 GROUP        1 Z    ASL  0     **** ASL Z 17
    12 GLL5        2 GROUP        1 Z    GLL  0     **** GLL Z 20
@<TRIPOS>SET

