#    Name: 4nc3_ERM_1_ligand
#    Modification time : Tue Mar 25 12:59:54 2014

@<TRIPOS>MOLECULE
4nc3_ERM_1_ligand
   79    86     1     0     0
SMALL
NO_CHARGES


@<TRIPOS>ATOM
      1 C1        -23.2070  -14.7790    5.2580 C.2       1 ERM1202     0.0000 
      2 N1        -23.9810  -13.8410    5.8530 N.pl3     1 ERM1202     0.0000 
      3 O1        -21.3450  -19.5250   11.7810 O.2       1 ERM1202     0.0000 
      4 C10       -23.4170  -14.9360    9.7720 C.ar      1 ERM1202     0.0000 
      5 C11       -24.2630  -13.8290    9.5910 C.ar      1 ERM1202     0.0000 
      6 C12       -24.5310  -13.3600    8.2740 C.ar      1 ERM1202     0.0000 
      7 C13       -23.9560  -14.0040    7.2410 C.ar      1 ERM1202     0.0000 
      8 C14       -23.1200  -15.1040    7.4280 C.ar      1 ERM1202     0.0000 
      9 C15       -21.1080  -19.7220    6.4790 C.3       1 ERM1202     0.0000 
     10 C16       -20.3360  -19.0660   11.3010 C.2       1 ERM1202     0.0000 
     11 C17       -19.0790  -19.8010   13.2770 C.3       1 ERM1202     0.0000 
     12 C18       -20.0480  -19.1950   14.2620 C.2       1 ERM1202     0.0000 
     13 C19       -21.9890  -19.9950   15.4700 C.3       1 ERM1202     0.0000 
     14 N2        -20.8980  -18.7020    7.5410 N.4       1 ERM1202     0.0000 
     15 C2        -22.6480  -15.5960    6.1970 C.2       1 ERM1202     0.0000 
     16 O2        -19.4920  -21.1690   13.2130 O.3       1 ERM1202     0.0000 
     17 C20       -22.3480  -21.3160   16.1310 C.2       1 ERM1202     0.0000 
     18 C21       -21.9330  -23.7370   16.4000 C.3       1 ERM1202     0.0000 
     19 C22       -21.7230  -24.6740   15.2350 C.3       1 ERM1202     0.0000 
     20 C23       -20.6390  -23.9870   14.3530 C.3       1 ERM1202     0.0000 
     21 C24       -20.5780  -22.5680   14.9420 C.3       1 ERM1202     0.0000 
     22 C25       -20.7050  -21.4560   13.9160 C.3       1 ERM1202     0.0000 
     23 C26       -17.6400  -19.6240   13.7240 C.3       1 ERM1202     0.0000 
     24 C27       -23.1780  -19.4320   14.7490 C.3       1 ERM1202     0.0000 
     25 C28       -24.0120  -18.5620   15.6640 C.ar      1 ERM1202     0.0000 
     26 C29       -23.4510  -17.4390   16.2750 C.ar      1 ERM1202     0.0000 
     27 C3        -21.7290  -16.7780    6.1570 C.3       1 ERM1202     0.0000 
     28 N3        -19.1590  -19.1500   11.9620 N.am      1 ERM1202     0.0000 
     29 O3        -20.0430  -18.0610   14.6920 O.2       1 ERM1202     0.0000 
     30 C30       -24.2280  -16.6400   17.1130 C.ar      1 ERM1202     0.0000 
     31 C31       -25.5680  -16.9620   17.3380 C.ar      1 ERM1202     0.0000 
     32 C32       -26.1280  -18.0820   16.7260 C.ar      1 ERM1202     0.0000 
     33 C33       -25.3510  -18.8810   15.8870 C.ar      1 ERM1202     0.0000 
     34 C4        -21.9260  -17.6070    7.4780 C.3       1 ERM1202     0.0000 
     35 N4        -20.8990  -20.1750   14.5620 N.am      1 ERM1202     0.0000 
     36 O4        -23.2830  -21.3590   16.9380 O.2       1 ERM1202     0.0000 
     37 C5        -20.8490  -19.4000    8.8670 C.3       1 ERM1202     0.0000 
     38 N5        -21.6880  -22.4170   15.8500 N.am      1 ERM1202     0.0000 
     39 O5        -21.7470  -21.7120   13.0350 O.3       1 ERM1202     0.0000 
     40 C6        -20.4100  -18.3910    9.8960 C.3       1 ERM1202     0.0000 
     41 C7        -21.2870  -17.1700    9.8640 C.2       1 ERM1202     0.0000 
     42 C8        -21.9030  -16.7870    8.7510 C.2       1 ERM1202     0.0000 
     43 C9        -22.8260  -15.5980    8.7070 C.ar      1 ERM1202     0.0000 
     44 H         -23.0657  -14.8635    4.2981 H         1 ERM1202     0.0000 
     45 H         -24.4869  -13.1490    5.4049 H         1 ERM1202     0.0000 
     46 H         -23.2322  -15.2650   10.7441 H         1 ERM1202     0.0000 
     47 H         -24.6846  -13.3608   10.3890 H         1 ERM1202     0.0000 
     48 H         -25.1453  -12.5571    8.1544 H         1 ERM1202     0.0000 
     49 H         -21.7108  -19.2970   16.2616 H         1 ERM1202     0.0000 
     50 H         -19.9019  -18.2494    7.3696 H         1 ERM1202     0.0000 
     51 H         -21.2283  -23.9770   17.1738 H         1 ERM1202     0.0000 
     52 H         -22.9432  -23.8350   16.7506 H         1 ERM1202     0.0000 
     53 H         -22.6164  -24.7700   14.6649 H         1 ERM1202     0.0000 
     54 H         -21.3466  -25.6112   15.5704 H         1 ERM1202     0.0000 
     55 H         -20.9742  -23.9502   13.3573 H         1 ERM1202     0.0000 
     56 H         -19.7183  -24.4751   14.4919 H         1 ERM1202     0.0000 
     57 H         -19.6525  -22.4517   15.4762 H         1 ERM1202     0.0000 
     58 H         -23.7985  -20.2498   14.3676 H         1 ERM1202     0.0000 
     59 H         -22.8419  -18.8352   13.8946 H         1 ERM1202     0.0000 
     60 H         -22.4663  -17.2021   16.1068 H         1 ERM1202     0.0000 
     61 H         -20.6991  -16.4633    6.1135 H         1 ERM1202     0.0000 
     62 H         -21.9644  -17.4203    5.3242 H         1 ERM1202     0.0000 
     63 H         -18.2815  -18.7698   11.5833 H         1 ERM1202     0.0000 
     64 H         -23.8161  -15.8155   17.5646 H         1 ERM1202     0.0000 
     65 H         -26.1399  -16.3728   17.9546 H         1 ERM1202     0.0000 
     66 H         -27.1134  -18.3197   16.8925 H         1 ERM1202     0.0000 
     67 H         -25.7654  -19.7040   15.4338 H         1 ERM1202     0.0000 
     68 H         -22.9159  -18.0928    7.3957 H         1 ERM1202     0.0000 
     69 H         -20.1379  -20.2130    8.8292 H         1 ERM1202     0.0000 
     70 H         -21.8298  -19.7755    9.1221 H         1 ERM1202     0.0000 
     71 H         -19.3789  -18.0874    9.6409 H         1 ERM1202     0.0000 
     72 H         -21.3641  -16.6694   10.7647 H         1 ERM1202     0.0000 
     73 H         -21.0504  -19.3227    5.5640 H         1 ERM1202     0.0000 
     74 H         -20.4251  -20.4512    6.5241 H         1 ERM1202     0.0000 
     75 H         -22.0058  -20.1562    6.5534 H         1 ERM1202     0.0000 
     76 H         -16.9964  -20.0228   13.0707 H         1 ERM1202     0.0000 
     77 H         -17.3976  -18.6588   13.8222 H         1 ERM1202     0.0000 
     78 H         -17.4692  -20.0604   14.6074 H         1 ERM1202     0.0000 
     79 H         -22.0827  -20.8103   12.7624 H         1 ERM1202     0.0000 
@<TRIPOS>BOND
     1    2    1 1    
     2   15    1 2    
     3   44    1 1    
     4    7    2 1    
     5   45    2 1    
     6   10    3 2    
     7    5    4 ar   
     8   43    4 ar   
     9   46    4 1    
    10    6    5 ar   
    11   47    5 1    
    12    7    6 ar   
    13   48    6 1    
    14    8    7 ar   
    15   15    8 1    
    16   43    8 ar   
    17   14    9 1    
    18   73    9 1    
    19   74    9 1    
    20   75    9 1    
    21   28   10 am   
    22   40   10 1    
    23   12   11 1    
    24   16   11 1    
    25   23   11 1    
    26   28   11 1    
    27   29   12 2    
    28   35   12 am   
    29   17   13 1    
    30   24   13 1    
    31   35   13 1    
    32   49   13 1    
    33   34   14 1    
    34   37   14 1    
    35   50   14 1    
    36   27   15 1    
    37   22   16 1    
    38   36   17 2    
    39   38   17 am   
    40   19   18 1    
    41   38   18 1    
    42   51   18 1    
    43   52   18 1    
    44   20   19 1    
    45   53   19 1    
    46   54   19 1    
    47   21   20 1    
    48   55   20 1    
    49   56   20 1    
    50   22   21 1    
    51   38   21 1    
    52   57   21 1    
    53   35   22 1    
    54   39   22 1    
    55   76   23 1    
    56   77   23 1    
    57   78   23 1    
    58   25   24 1    
    59   58   24 1    
    60   59   24 1    
    61   26   25 ar   
    62   33   25 ar   
    63   30   26 ar   
    64   60   26 1    
    65   34   27 1    
    66   61   27 1    
    67   62   27 1    
    68   63   28 1    
    69   31   30 ar   
    70   64   30 1    
    71   32   31 ar   
    72   65   31 1    
    73   33   32 ar   
    74   66   32 1    
    75   67   33 1    
    76   42   34 1    
    77   68   34 1    
    78   40   37 1    
    79   69   37 1    
    80   70   37 1    
    81   79   39 1    
    82   41   40 1    
    83   71   40 1    
    84   42   41 2    
    85   72   41 1    
    86   43   42 1    
@<TRIPOS>SUBSTRUCTURE
     1 ERM1202     1 GROUP   
@<TRIPOS>SET

