#    Name: 1m9m_6NI_2_INTS_M
#    Modification time : Tue Mar 25 11:28:05 2014

@<TRIPOS>MOLECULE
1m9m_6NI_2_INTS_M
   15     0     9     0     0
SMALL
NO_CHARGES


@<TRIPOS>ATOM
      1 CA         22.0875   16.0860   25.8565 C.3       3 GLC5        0.0000 
      2 CA         22.0390   14.8220   24.0990 C.3       9 GLL5        0.0000 
      3 CA         22.1360   17.3500   27.6140 C.3       6 GLP5        0.0000 
      4 CA         24.9695   11.6790   22.8415 C.3       3 GLC5        0.0000 
      5 CA         23.2890   12.6280   23.5800 C.3       9 GLL5        0.0000 
      6 CA         26.6500   10.7300   22.1030 C.3       6 GLP5        0.0000 
      7 O          19.8490   16.1245   21.7450 O.2       1 ALC1        0.0000 
      8 O          20.5140   15.7330   22.8780 O.2       7 ALL1        0.0000 
      9 O          19.1840   16.5160   20.6120 O.2       4 ALP1        0.0000 
     10 N          19.7940   17.7310   23.8145 N.am      2 SEC2        0.0000 
     11 N          20.6100   16.5910   23.9200 N.am      8 SEL2        0.0000 
     12 N          18.9780   18.8710   23.7090 N.am      5 SEP2        0.0000 
     13 CA         22.2350   15.2980   20.9297 C.3       3 GLC5        0.0000 
     14 CA         21.3230   14.6350   22.8780 C.3       9 GLL5        0.0000 
     15 CA         23.0310   16.5170   19.4010 C.3       6 GLP5        0.0000 
@<TRIPOS>BOND
@<TRIPOS>SUBSTRUCTURE
     1 ALC1        7 GROUP        1 X    ALC  0     ROOT ALC X 1
     2 SEC2       10 GROUP        1 X    SEC  0     **** SEC X 2
     3 GLC5        1 GROUP        1 X    GLC  0     **** GLC X 6
     4 ALP1        9 GROUP        1 Y    ALP  0     ROOT ALP Y 8
     5 SEP2       12 GROUP        1 Y    SEP  0     **** SEP Y 9
     6 GLP5        3 GROUP        1 Y    GLP  0     **** GLP Y 13
     7 ALL1        8 GROUP        1 Z    ALL  0     ROOT ALL Z 15
     8 SEL2       11 GROUP        1 Z    SEL  0     **** SEL Z 16
     9 GLL5        2 GROUP        1 Z    GLL  0     **** GLL Z 20
@<TRIPOS>SET

