#    Name: 1m9m_6NI_2_ligand
#    Modification time : Tue Mar 25 11:28:05 2014

@<TRIPOS>MOLECULE
1m9m_6NI_2_ligand
   17    18     1     0     0
SMALL
NO_CHARGES


@<TRIPOS>ATOM
      1 C6         22.5240   12.5390   22.3910 C.ar      1 6NI907      0.0000 
      2 C7         21.5550   13.5230   22.0390 C.ar      1 6NI907      0.0000 
      3 C8         21.3230   14.6350   22.8780 C.ar      1 6NI907      0.0000 
      4 C9         22.0390   14.8220   24.0990 C.ar      1 6NI907      0.0000 
      5 C4         23.0820   13.7930   24.5100 C.ar      1 6NI907      0.0000 
      6 C5         23.2890   12.6280   23.5800 C.ar      1 6NI907      0.0000 
      7 N1         20.5140   15.7330   22.8780 N.pl3     1 6NI907      0.0000 
      8 N2         20.6100   16.5910   23.9200 N.2       1 6NI907      0.0000 
      9 C3         21.5760   16.0230   24.7010 C.2       1 6NI907      0.0000 
     10 N10        22.7180   11.4830   21.5630 N.pl3     1 6NI907      0.0000 
     11 O11        23.0160   11.6630   20.2460 O.2       1 6NI907      0.0000 
     12 O12        22.6180   10.2180   22.0330 O.2       1 6NI907      0.0000 
     13 H          21.0258   13.4178   21.1698 H         1 6NI907      0.0000 
     14 H          23.5817   13.8896   25.3277 H         1 6NI907      0.0000 
     15 H          23.9724   11.9407   23.8350 H         1 6NI907      0.0000 
     16 H          19.8555   15.8986   22.1103 H         1 6NI907      0.0000 
     17 H          21.9117   16.3592   25.5333 H         1 6NI907      0.0000 
@<TRIPOS>BOND
     1    2    1 ar   
     2    6    1 ar   
     3   10    1 1    
     4    3    2 ar   
     5   13    2 1    
     6    4    3 ar   
     7    7    3 1    
     8    5    4 ar   
     9    9    4 1    
    10    6    5 ar   
    11   14    5 1    
    12   15    6 1    
    13    8    7 1    
    14   16    7 1    
    15    9    8 2    
    16   17    9 1    
    17   11   10 2    
    18   12   10 2    
@<TRIPOS>SUBSTRUCTURE
     1 6NI907      1 GROUP   
@<TRIPOS>SET

