#    Name: 3sac_AF8_1_INTS_M
#    Modification time : Mon Apr  7 22:11:17 2014

@<TRIPOS>MOLECULE
3sac_AF8_1_INTS_M
   83     0     9     0     0
SMALL
NO_CHARGES


@<TRIPOS>ATOM
      1 CA         23.7680   26.9980   13.4530 C.3       3 GLC5        0.0000 
      2 CA         23.4880   27.6940   11.5120 C.3       9 GLL5        0.0000 
      3 CA         24.0480   26.3020   15.3940 C.3       6 GLP5        0.0000 
      4 CA         24.2405   29.4615   11.4770 C.3       3 GLC5        0.0000 
      5 CA         24.9930   31.2290   11.4420 C.3       6 GLP5        0.0000 
      6 CA         26.1140   25.6250   11.1745 C.3       3 GLC5        0.0000 
      7 CA         24.1410   26.6500   10.8540 C.3       9 GLL5        0.0000 
      8 CA         28.0870   24.6000   11.4950 C.3       6 GLP5        0.0000 
      9 O          26.0515   25.5835   10.1020 O.2       1 ALC1        0.0000 
     10 O          25.4650   26.7600   10.5790 O.2       7 ALL1        0.0000 
     11 O          26.6380   24.4070    9.6250 O.2       4 ALP1        0.0000 
     12 CA         22.8645   32.8980   18.9455 C.3       3 GLC5        0.0000 
     13 CA         22.3080   33.5210   17.1590 C.3       9 GLL5        0.0000 
     14 CA         23.4210   32.2750   20.7320 C.3       6 GLP5        0.0000 
     15 CA         24.1150   32.4080   17.2715 C.3       3 GLC5        0.0000 
     16 CA         25.9220   31.2950   17.3840 C.3       6 GLP5        0.0000 
     17 CA         21.3785   34.1565   13.6310 C.3       3 GLC5        0.0000 
     18 CA         22.1870   32.5480   14.8590 C.3       9 GLL5        0.0000 
     19 CA         20.5700   35.7650   12.4030 C.3       6 GLP5        0.0000 
     20 CA         23.3635   32.5890   12.9790 C.3       3 GLC5        0.0000 
     21 CA         24.5400   32.6300   11.0990 C.3       6 GLP5        0.0000 
     22 CA         17.5195   30.7120   17.6320 C.3       3 GLC5        0.0000 
     23 CA         19.0290   30.5960   16.0850 C.3       9 GLL5        0.0000 
     24 CA         16.0100   30.8280   19.1790 C.3       6 GLP5        0.0000 
     25 N          19.3615   27.9210   17.5790 N.am      2 SEC2        0.0000 
     26 N          19.9240   28.3530   16.3120 N.am      8 SEL2        0.0000 
     27 N          18.7990   27.4890   18.8460 N.am      5 SEP2        0.0000 
     28 O          20.7580   28.0265   17.2560 O.2       1 ALC1        0.0000 
     29 O          19.9240   28.3530   16.3120 O.2       7 ALL1        0.0000 
     30 O          21.5920   27.7000   18.2000 O.2       4 ALP1        0.0000 
     31 O          21.4485   28.7565   16.8105 O.2       1 ALC1        0.0000 
     32 O          22.9730   29.1600   17.3090 O.2       4 ALP1        0.0000 
     33 O          20.4025   26.8150   13.9680 O.2       1 ALC1        0.0000 
     34 O          20.5760   28.3070   13.4670 O.2       7 ALL1        0.0000 
     35 O          20.2290   25.3230   14.4690 O.2       4 ALP1        0.0000 
     36 CA         17.3890   26.3275   14.3570 C.3       3 GLC5        0.0000 
     37 CA         18.2210   28.3500   13.9490 C.3       9 GLL5        0.0000 
     38 CA         16.5570   24.3050   14.7650 C.3       6 GLP5        0.0000 
     39 CA         17.3230   25.4860   13.4175 C.3       3 GLC5        0.0000 
     40 CA         18.0890   26.6670   12.0700 C.3       9 GLL5        0.0000 
     41 N          13.9515   35.0470   19.9855 N.am      2 SEC2        0.0000 
     42 N          14.1860   35.9860   18.7270 N.am      8 SEL2        0.0000 
     43 N          13.7170   34.1080   21.2440 N.am      5 SEP2        0.0000 
     44 CA         16.4285   33.2195   18.5215 C.3       3 GLC5        0.0000 
     45 CA         15.7790   34.8210   17.1380 C.3       9 GLL5        0.0000 
     46 CA         17.0780   31.6180   19.9050 C.3       6 GLP5        0.0000 
     47 CA         15.6730   35.9130   20.0540 C.3       3 GLC5        0.0000 
     48 CA         15.2670   35.9980   17.9150 C.3       9 GLL5        0.0000 
     49 CA         16.0790   35.8280   22.1930 C.3       6 GLP5        0.0000 
     50 CA         15.1485   31.0100   15.2190 C.3       3 GLC5        0.0000 
     51 CA         15.9010   32.6740   16.3150 C.3       9 GLL5        0.0000 
     52 CA         14.3960   29.3460   14.1230 C.3       6 GLP5        0.0000 
     53 CA         23.4497   23.6663   11.1140 C.3       3 GLC5        0.0000 
     54 CA         23.4470   25.4910   10.4910 C.3       9 GLL5        0.0000 
     55 CA         24.1300   21.9020   11.5910 C.3       6 GLP5        0.0000 
     56 CA         18.9432   29.6938    9.7918 C.3       3 GLC5        0.0000 
     57 CA         17.5510   28.9630   11.6000 C.3       9 GLL5        0.0000 
     58 CA         20.4580   30.5920    8.6460 C.3       6 GLP5        0.0000 
     59 CA         17.3242   30.5917   10.1433 C.3       3 GLC5        0.0000 
     60 CA         17.3060   28.6280   10.2750 C.3       9 GLL5        0.0000 
     61 CA         17.2200   32.3880    9.3490 C.3       6 GLP5        0.0000 
     62 CA         15.9577   27.4793   11.1523 C.3       3 GLC5        0.0000 
     63 CA         14.4870   26.1630   11.3670 C.3       6 GLP5        0.0000 
     64 CA         16.1062   28.9554   13.2683 C.3       3 GLC5        0.0000 
     65 CA         16.1810   28.3233    8.7480 C.3       3 GLC5        0.0000 
     66 CA         14.9820   28.6740    7.4360 C.3       6 GLP5        0.0000 
     67 CA         16.0685   26.4945   10.8300 C.3       3 GLC5        0.0000 
     68 CA         17.4540   27.3170    9.8450 C.3       9 GLL5        0.0000 
     69 CA         16.2515   26.7440   11.8272 C.3       3 GLC5        0.0000 
     70 CA         14.2192   35.1097   15.6545 C.3       3 GLC5        0.0000 
     71 CA         15.1960   33.5580   17.1560 C.3       9 GLL5        0.0000 
     72 CA         12.9510   36.0300   14.1620 C.3       6 GLP5        0.0000 
     73 CA         14.3453   37.6932   16.7328 C.3       3 GLC5        0.0000 
     74 CA         13.1430   38.7580   15.5540 C.3       6 GLP5        0.0000 
     75 CA         15.5835   33.1165   14.1220 C.3       3 GLC5        0.0000 
     76 CA         16.9810   33.3160   15.7130 C.3       9 GLL5        0.0000 
     77 CA         14.7260   33.2380   12.2300 C.3       6 GLP5        0.0000 
     78 CA         13.7896   33.2184   16.2790 C.3       3 GLC5        0.0000 
     79 CA         11.8850   33.0050   15.8270 C.3       6 GLP5        0.0000 
     80 CA         15.9143   32.0523   17.8820 C.3       3 GLC5        0.0000 
     81 CA         22.9342   25.7131   12.9273 C.3       3 GLC5        0.0000 
     82 CA         22.0920   25.3700   10.7830 C.3       9 GLL5        0.0000 
     83 CA         23.0010   25.3000   14.9200 C.3       6 GLP5        0.0000 
@<TRIPOS>BOND
@<TRIPOS>SUBSTRUCTURE
     1 ALC1        9 GROUP        1 X    ALC  0     ROOT ALC X 1
     2 SEC2       25 GROUP        1 X    SEC  0     **** SEC X 2
     3 GLC5        1 GROUP        1 X    GLC  0     **** GLC X 6
     4 ALP1       11 GROUP        1 Y    ALP  0     ROOT ALP Y 8
     5 SEP2       27 GROUP        1 Y    SEP  0     **** SEP Y 9
     6 GLP5        3 GROUP        1 Y    GLP  0     **** GLP Y 13
     7 ALL1       10 GROUP        1 Z    ALL  0     ROOT ALL Z 15
     8 SEL2       26 GROUP        1 Z    SEL  0     **** SEL Z 16
     9 GLL5        2 GROUP        1 Z    GLL  0     **** GLL Z 20
@<TRIPOS>SET

