#    Name: 3sac_AF8_1_ligand
#    Modification time : Mon Apr  7 22:11:17 2014

@<TRIPOS>MOLECULE
3sac_AF8_1_ligand
   70    73     1     0     0
SMALL
NO_CHARGES


@<TRIPOS>ATOM
      1 C21        21.3860   28.6690   12.4790 C.2       1 AF8200      0.0000 
      2 O22        21.4770   29.8090   12.0540 O.2       1 AF8200      0.0000 
      3 C22        22.1390   27.5720   11.7910 C.ar      1 AF8200      0.0000 
      4 C27        23.4880   27.6940   11.5120 C.ar      1 AF8200      0.0000 
      5 C26        24.1410   26.6500   10.8540 C.ar      1 AF8200      0.0000 
      6 C25        23.4470   25.4910   10.4910 C.ar      1 AF8200      0.0000 
      7 C24        22.0920   25.3700   10.7830 C.ar      1 AF8200      0.0000 
      8 C23        21.4410   26.4160   11.4300 C.ar      1 AF8200      0.0000 
      9 O27        25.4650   26.7600   10.5790 O.3       1 AF8200      0.0000 
     10 N11        19.3240   31.8790   15.4000 N.pl3     1 AF8200      0.0000 
     11 C12        20.0650   32.8520   16.2440 C.3       1 AF8200      0.0000 
     12 C13        21.5680   32.5320   16.2600 C.3       1 AF8200      0.0000 
     13 C14        22.3080   33.5210   17.1590 C.3       1 AF8200      0.0000 
     14 C15        22.1870   32.5480   14.8590 C.3       1 AF8200      0.0000 
     15 C16        19.0290   30.5960   16.0850 C.3       1 AF8200      0.0000 
     16 C17        19.9340   29.5190   15.4710 C.3       1 AF8200      0.0000 
     17 O18        19.9240   28.3530   16.3120 O.3       1 AF8200      0.0000 
     18 C19        19.5350   29.1360   14.0460 C.3       1 AF8200      0.0000 
     19 N20        20.5760   28.3070   13.4670 N.am      1 AF8200      0.0000 
     20 C32        18.2210   28.3500   13.9490 C.3       1 AF8200      0.0000 
     21 C33        17.5510   28.9630   11.6000 C.ar      1 AF8200      0.0000 
     22 C34        17.3060   28.6280   10.2750 C.ar      1 AF8200      0.0000 
     23 C35        17.4540   27.3170    9.8450 C.ar      1 AF8200      0.0000 
     24 C36        17.8460   26.3350   10.7410 C.ar      1 AF8200      0.0000 
     25 C37        18.0890   26.6670   12.0700 C.ar      1 AF8200      0.0000 
     26 C38        17.9430   27.9830   12.5050 C.ar      1 AF8200      0.0000 
     27 C1         15.0100   38.0090   18.7610 C.2       1 AF8200      0.0000 
     28 N1         14.0080   37.2130   19.2550 N.2       1 AF8200      0.0000 
     29 O1         14.1860   35.9860   18.7270 O.3       1 AF8200      0.0000 
     30 S1         17.1700   35.0020   16.1240 S.3       1 AF8200      0.0000 
     31 C2         15.7790   34.8210   17.1380 C.2       1 AF8200      0.0000 
     32 C3         15.2670   35.9980   17.9150 C.2       1 AF8200      0.0000 
     33 C4         15.8280   37.2590   17.9080 C.2       1 AF8200      0.0000 
     34 C5         16.9810   33.3160   15.7130 C.2       1 AF8200      0.0000 
     35 C6         15.9010   32.6740   16.3150 C.2       1 AF8200      0.0000 
     36 C7         15.1960   33.5580   17.1560 C.2       1 AF8200      0.0000 
     37 S8         18.0270   32.5290   14.6610 S.o2      1 AF8200      0.0000 
     38 O9         17.3080   31.4750   14.0210 O.2       1 AF8200      0.0000 
     39 O10        18.6110   33.4800   13.7500 O.2       1 AF8200      0.0000 
     40 H          24.0047   28.5336   11.7810 H         1 AF8200      0.0000 
     41 H          23.9410   24.7306   10.0086 H         1 AF8200      0.0000 
     42 H          21.5808   24.5230   10.5254 H         1 AF8200      0.0000 
     43 H          20.4360   26.3403   11.6460 H         1 AF8200      0.0000 
     44 H          19.6958   32.8229   17.2724 H         1 AF8200      0.0000 
     45 H          19.9331   33.8670   15.8604 H         1 AF8200      0.0000 
     46 H          21.7011   31.5365   16.6811 H         1 AF8200      0.0000 
     47 H          17.9986   30.3095   15.9332 H         1 AF8200      0.0000 
     48 H          19.2446   30.6679   17.1411 H         1 AF8200      0.0000 
     49 H          20.9507   29.9305   15.4323 H         1 AF8200      0.0000 
     50 H          19.4301   30.0412   13.4577 H         1 AF8200      0.0000 
     51 H          20.6588   27.3361   13.9040 H         1 AF8200      0.0000 
     52 H          17.4125   28.9643   14.3335 H         1 AF8200      0.0000 
     53 H          18.3038   27.4478   14.5473 H         1 AF8200      0.0000 
     54 H          17.4426   29.9372   11.9133 H         1 AF8200      0.0000 
     55 H          17.0126   29.3574    9.6074 H         1 AF8200      0.0000 
     56 H          17.2726   27.0748    8.8613 H         1 AF8200      0.0000 
     57 H          17.9576   25.3627   10.4266 H         1 AF8200      0.0000 
     58 H          18.3784   25.9372   12.7368 H         1 AF8200      0.0000 
     59 H          15.1432   38.9380   18.9598 H         1 AF8200      0.0000 
     60 H          16.5738   37.5534   17.4488 H         1 AF8200      0.0000 
     61 H          15.6616   31.7520   16.1804 H         1 AF8200      0.0000 
     62 H          14.4207   33.3127   17.6673 H         1 AF8200      0.0000 
     63 H          23.2897   33.3329   17.1889 H         1 AF8200      0.0000 
     64 H          22.1996   34.4634   16.8426 H         1 AF8200      0.0000 
     65 H          21.9744   33.4879   18.1011 H         1 AF8200      0.0000 
     66 H          23.1642   32.3368   14.8823 H         1 AF8200      0.0000 
     67 H          21.7564   31.8773   14.2551 H         1 AF8200      0.0000 
     68 H          22.0907   33.4416   14.4206 H         1 AF8200      0.0000 
     69 H          25.7472   25.8437   10.2949 H         1 AF8200      0.0000 
     70 H          20.8417   28.3110   16.7070 H         1 AF8200      0.0000 
@<TRIPOS>BOND
     1    2    1 2    
     2    3    1 1    
     3   19    1 am   
     4    4    3 ar   
     5    8    3 ar   
     6    5    4 ar   
     7   40    4 1    
     8    6    5 ar   
     9    9    5 1    
    10    7    6 ar   
    11   41    6 1    
    12    8    7 ar   
    13   42    7 1    
    14   43    8 1    
    15   69    9 1    
    16   11   10 1    
    17   15   10 1    
    18   37   10 1    
    19   12   11 1    
    20   44   11 1    
    21   45   11 1    
    22   13   12 1    
    23   14   12 1    
    24   46   12 1    
    25   63   13 1    
    26   64   13 1    
    27   65   13 1    
    28   66   14 1    
    29   67   14 1    
    30   68   14 1    
    31   16   15 1    
    32   47   15 1    
    33   48   15 1    
    34   17   16 1    
    35   18   16 1    
    36   49   16 1    
    37   70   17 1    
    38   19   18 1    
    39   20   18 1    
    40   50   18 1    
    41   51   19 1    
    42   26   20 1    
    43   52   20 1    
    44   53   20 1    
    45   22   21 ar   
    46   26   21 ar   
    47   54   21 1    
    48   23   22 ar   
    49   55   22 1    
    50   24   23 ar   
    51   56   23 1    
    52   25   24 ar   
    53   57   24 1    
    54   26   25 ar   
    55   58   25 1    
    56   28   27 2    
    57   33   27 1    
    58   59   27 1    
    59   29   28 1    
    60   32   29 1    
    61   31   30 1    
    62   34   30 1    
    63   32   31 1    
    64   36   31 2    
    65   33   32 2    
    66   60   33 1    
    67   35   34 2    
    68   37   34 1    
    69   36   35 1    
    70   61   35 1    
    71   62   36 1    
    72   38   37 2    
    73   39   37 2    
@<TRIPOS>SUBSTRUCTURE
     1 AF8200      1 GROUP   
@<TRIPOS>SET

