#    Name: 2xke_WI2_1_INTS_M
#    Modification time : Tue Mar 25 06:14:48 2014

@<TRIPOS>MOLECULE
2xke_WI2_1_INTS_M
   63     0    12     0     0
SMALL
NO_CHARGES


@<TRIPOS>ATOM
      1 CA        -20.8915    6.2295   16.9375 C.3       4 GLC5        0.0000 
      2 CA        -22.7460    7.2100   16.4480 C.3      12 GLL5        0.0000 
      3 CA        -19.0370    5.2490   17.4270 C.3       8 GLP5        0.0000 
      4 CA        -21.3155    5.2110   15.5605 C.3       4 GLC5        0.0000 
      5 CA        -22.3490    6.9820   14.9860 C.3      12 GLL5        0.0000 
      6 CA        -20.2820    3.4400   16.1350 C.3       8 GLP5        0.0000 
      7 CA        -22.4235    9.2175   15.6505 C.3       4 GLC5        0.0000 
      8 CA        -23.0220    7.9920   14.0840 C.3      12 GLL5        0.0000 
      9 CA        -21.8250   10.4430   17.2170 C.3       8 GLP5        0.0000 
     10 CA        -21.3155    8.5295   12.8935 C.3       4 GLC5        0.0000 
     11 CA        -19.6090    9.0670   11.7030 C.3       8 GLP5        0.0000 
     12 NZ        -22.8480    7.0765   10.8395 N.4       3 LYC4        0.0000 
     13 NZ        -21.9200    6.8140   12.2270 N.4      11 LYL4        0.0000 
     14 NZ        -23.7760    7.3390    9.4520 N.4       7 LYP4        0.0000 
     15 N         -20.6685    5.9710   12.4595 N.am      2 SEC2        0.0000 
     16 N         -21.9200    6.8140   12.2270 N.am     10 SEL2        0.0000 
     17 N         -19.4170    5.1280   12.6920 N.am      6 SEP2        0.0000 
     18 N         -20.5600    7.6030   12.5850 N.am      2 SEC2        0.0000 
     19 N         -19.2000    8.3920   12.9430 N.am      6 SEP2        0.0000 
     20 NZ        -23.5495    7.9120   10.6155 N.4       3 LYC4        0.0000 
     21 NZ        -23.3230    8.4850   11.7790 N.4      11 LYL4        0.0000 
     22 N         -23.5495    7.9120   10.6155 N.am      2 SEC2        0.0000 
     23 N         -23.3230    8.4850   11.7790 N.am     10 SEL2        0.0000 
     24 N         -23.7760    7.3390    9.4520 N.am      6 SEP2        0.0000 
     25 CA        -23.4025    9.2600   16.4970 C.3       4 GLC5        0.0000 
     26 CA        -24.9800    8.0770   15.7770 C.3      12 GLL5        0.0000 
     27 CA        -26.0710    4.3620   18.6680 C.3       4 GLC5        0.0000 
     28 CA        -24.5390    5.6140   18.6020 C.3      12 GLL5        0.0000 
     29 CA        -27.6030    3.1100   18.7340 C.3       8 GLP5        0.0000 
     30 CA        -23.3610    5.5370   20.3950 C.3       4 GLC5        0.0000 
     31 CA        -22.1830    5.4600   22.1880 C.3       8 GLP5        0.0000 
     32 O         -23.9475    3.2165   18.3275 O.2       1 ALC1        0.0000 
     33 O         -24.0130    4.4920   18.0000 O.2       9 ALL1        0.0000 
     34 O         -23.8820    1.9410   18.6550 O.2       5 ALP1        0.0000 
     35 N         -24.4410    4.6005   21.0030 N.am      2 SEC2        0.0000 
     36 N         -24.9380    5.4430   19.9050 N.am     10 SEL2        0.0000 
     37 N         -23.9440    3.7580   22.1010 N.am      6 SEP2        0.0000 
     38 CA        -26.5410    4.7935   19.6530 C.3       4 GLC5        0.0000 
     39 CA        -25.4790    6.4770   20.5720 C.3      12 GLL5        0.0000 
     40 CA        -23.8310    5.9685   21.3800 C.3       4 GLC5        0.0000 
     41 CA        -23.2677    5.4195   15.0395 C.3       4 GLC5        0.0000 
     42 CA        -23.9880    3.7430   14.3620 C.3       8 GLP5        0.0000 
     43 CA        -21.5898    8.4295   16.3900 C.3       4 GLC5        0.0000 
     44 CA        -20.6320    9.7630   17.0630 C.3       8 GLP5        0.0000 
     45 CA        -23.8805    5.8340   14.2825 C.3       4 GLC5        0.0000 
     46 CA        -26.3800    8.0137   14.3098 C.3       4 GLC5        0.0000 
     47 CA        -24.5240    7.8580   14.3220 C.3      12 GLL5        0.0000 
     48 CA        -28.0080    8.0600   13.5700 C.3       8 GLP5        0.0000 
     49 CA        -27.6235    6.8130   19.8343 C.3       4 GLC5        0.0000 
     50 CA        -25.6470    7.7410   19.9690 C.3      12 GLL5        0.0000 
     51 CA        -29.6840    6.5170   19.3980 C.3       8 GLP5        0.0000 
     52 CA        -28.1215    9.1500   20.1947 C.3       4 GLC5        0.0000 
     53 CA        -26.2840    8.8240   20.7690 C.3      12 GLL5        0.0000 
     54 CA        -29.5670    9.5730   19.0530 C.3       8 GLP5        0.0000 
     55 CA        -25.4475    9.5490   22.5633 C.3       4 GLC5        0.0000 
     56 CA        -24.2190   10.3710   23.7900 C.3       8 GLP5        0.0000 
     57 CA        -27.9605   10.1320   19.8508 C.3       4 GLC5        0.0000 
     58 CA        -26.0800   10.1390   20.3130 C.3      12 GLL5        0.0000 
     59 CA        -25.2865   10.5310   22.2192 C.3       4 GLC5        0.0000 
     60 CA        -28.5403    9.9838   20.7022 C.3       4 GLC5        0.0000 
     61 CA        -27.4080   11.0510   22.1310 C.3      12 GLL5        0.0000 
     62 CA        -25.8663   10.3828   23.0707 C.3       4 GLC5        0.0000 
     63 CA        -27.6190    9.7380   22.5720 C.3      12 GLL5        0.0000 
@<TRIPOS>BOND
@<TRIPOS>SUBSTRUCTURE
     1 ALC1       32 GROUP        1 X    ALC  0     ROOT ALC X 1
     2 SEC2       15 GROUP        1 X    SEC  0     **** SEC X 2
     3 LYC4       12 GROUP        1 X    LYC  0     **** LYC X 4
     4 GLC5        1 GROUP        1 X    GLC  0     **** GLC X 6
     5 ALP1       34 GROUP        1 Y    ALP  0     ROOT ALP Y 8
     6 SEP2       17 GROUP        1 Y    SEP  0     **** SEP Y 9
     7 LYP4       14 GROUP        1 Y    LYP  0     **** LYP Y 11
     8 GLP5        3 GROUP        1 Y    GLP  0     **** GLP Y 13
     9 ALL1       33 GROUP        1 Z    ALL  0     ROOT ALL Z 15
    10 SEL2       16 GROUP        1 Z    SEL  0     **** SEL Z 16
    11 LYL4       13 GROUP        1 Z    LYL  0     **** LYL Z 18
    12 GLL5        2 GROUP        1 Z    GLL  0     **** GLL Z 20
@<TRIPOS>SET

