#    Name: 2xke_WI2_1_ligand
#    Modification time : Tue Mar 25 06:14:48 2014

@<TRIPOS>MOLECULE
2xke_WI2_1_ligand
   43    45     1     0     0
SMALL
NO_CHARGES


@<TRIPOS>ATOM
      1 CAL       -22.7460    7.2100   16.4480 C.3       1 WI21280     0.0000 
      2 CAJ       -22.3490    6.9820   14.9860 C.3       1 WI21280     0.0000 
      3 CAW       -23.0220    7.9920   14.0840 C.3       1 WI21280     0.0000 
      4 CAQ       -22.6180    7.7310   12.6530 C.2       1 WI21280     0.0000 
      5 OAD       -21.9200    6.8140   12.2270 O.co2     1 WI21280     0.0000 
      6 OAC       -23.3230    8.4850   11.7790 O.co2     1 WI21280     0.0000 
      7 CAK       -24.5240    7.8580   14.3220 C.3       1 WI21280     0.0000 
      8 CAM       -24.9800    8.0770   15.7770 C.3       1 WI21280     0.0000 
      9 NAX       -24.2230    7.1490   16.6760 N.3       1 WI21280     0.0000 
     10 CAV       -24.7210    6.8900   17.9790 C.ar      1 WI21280     0.0000 
     11 NAO       -25.2600    7.9270   18.6830 N.ar      1 WI21280     0.0000 
     12 CAR       -24.5390    5.6140   18.6020 C.ar      1 WI21280     0.0000 
     13 NAB       -24.0130    4.4920   18.0000 N.pl3     1 WI21280     0.0000 
     14 NAN       -24.9380    5.4430   19.9050 N.ar      1 WI21280     0.0000 
     15 CAH       -25.4790    6.4770   20.5720 C.ar      1 WI21280     0.0000 
     16 CAU       -25.6470    7.7410   19.9690 C.ar      1 WI21280     0.0000 
     17 CAT       -26.2840    8.8240   20.7690 C.ar      1 WI21280     0.0000 
     18 CAI       -27.0680    8.6300   21.9040 C.ar      1 WI21280     0.0000 
     19 CAG       -26.0800   10.1390   20.3130 C.ar      1 WI21280     0.0000 
     20 CAE       -26.6280   11.2430   20.9840 C.ar      1 WI21280     0.0000 
     21 CAF       -27.4080   11.0510   22.1310 C.ar      1 WI21280     0.0000 
     22 CAS       -27.6190    9.7380   22.5720 C.ar      1 WI21280     0.0000 
     23 OAP       -28.3320    9.4520   23.7050 O.3       1 WI21280     0.0000 
     24 CAA       -29.2910   10.3970   24.1460 C.3       1 WI21280     0.0000 
     25 H         -22.3593    8.1929   16.7640 H         1 WI21280     0.0000 
     26 H         -22.2405    6.4512   17.0679 H         1 WI21280     0.0000 
     27 H         -22.6429    5.9743   14.6931 H         1 WI21280     0.0000 
     28 H         -21.2667    7.0721   14.8956 H         1 WI21280     0.0000 
     29 H         -22.7084    8.9734   14.3851 H         1 WI21280     0.0000 
     30 H         -24.8513    6.8510   14.0001 H         1 WI21280     0.0000 
     31 H         -25.0571    8.5807   13.6752 H         1 WI21280     0.0000 
     32 H         -26.0439    7.8785   15.8400 H         1 WI21280     0.0000 
     33 H         -24.7853    9.1081   16.0494 H         1 WI21280     0.0000 
     34 H         -23.9348    3.6789   18.5768 H         1 WI21280     0.0000 
     35 H         -23.7552    4.5884   17.0386 H         1 WI21280     0.0000 
     36 H         -25.7920    6.3708   21.5631 H         1 WI21280     0.0000 
     37 H         -27.2462    7.6847   22.2559 H         1 WI21280     0.0000 
     38 H         -25.5120   10.2945   19.4622 H         1 WI21280     0.0000 
     39 H         -26.4563   12.1907   20.6330 H         1 WI21280     0.0000 
     40 H         -27.8074   11.8367   22.6267 H         1 WI21280     0.0000 
     41 H         -28.8739   11.2834   24.3469 H         1 WI21280     0.0000 
     42 H         -29.9996   10.5556   23.4584 H         1 WI21280     0.0000 
     43 H         -29.7537   10.0952   24.9795 H         1 WI21280     0.0000 
@<TRIPOS>BOND
     1    2    1 1    
     2    9    1 1    
     3   25    1 1    
     4   26    1 1    
     5    3    2 1    
     6   27    2 1    
     7   28    2 1    
     8    4    3 1    
     9    7    3 1    
    10   29    3 1    
    11    5    4 ar   
    12    6    4 ar   
    13    8    7 1    
    14   30    7 1    
    15   31    7 1    
    16    9    8 1    
    17   32    8 1    
    18   33    8 1    
    19   10    9 1    
    20   11   10 ar   
    21   12   10 ar   
    22   16   11 ar   
    23   13   12 1    
    24   14   12 ar   
    25   34   13 1    
    26   35   13 1    
    27   15   14 ar   
    28   16   15 ar   
    29   36   15 1    
    30   17   16 1    
    31   18   17 ar   
    32   19   17 ar   
    33   22   18 ar   
    34   37   18 1    
    35   20   19 ar   
    36   38   19 1    
    37   21   20 ar   
    38   39   20 1    
    39   22   21 ar   
    40   40   21 1    
    41   23   22 1    
    42   24   23 1    
    43   41   24 1    
    44   42   24 1    
    45   43   24 1    
@<TRIPOS>SUBSTRUCTURE
     1 WI21280     1 GROUP   
@<TRIPOS>SET

