#    Name: 3VHH_3_CAVITY_N1_6.mol2
#    Modification time : Tue Mar 11 11:14:37 2014

@<TRIPOS>MOLECULE
3VHH_3_CAVITY_N1_6.mol2
   44     0     5     0     0
SMALL
NO_CHARGES


@<TRIPOS>ATOM
      1 OG          5.0220  -13.5262    9.0329 O.2       1 SER1        0.0000 
      2 CZ          4.8927  -13.1483    7.5871 C.ar      3 PHE5        0.0000 
      3 OG          5.0121  -12.6527   13.9306 O.2       1 SER1        0.0000 
      4 OG          6.2488  -13.4404   13.6141 O.2       1 SER1        0.0000 
      5 OG          7.4855  -14.2281   13.2977 O.2       1 SER1        0.0000 
      6 OG          4.8828  -12.2749   12.4847 O.2       1 SER1        0.0000 
      7 OG          6.1195  -13.0626   12.1683 O.2       1 SER1        0.0000 
      8 N           4.7536  -11.8970   11.0389 N.2       2 ALA2        0.0000 
      9 OG          5.9902  -12.6847   10.7224 O.2       1 SER1        0.0000 
     10 N           4.6243  -11.5192    9.5930 N.2       2 ALA2        0.0000 
     11 CZ          5.8609  -12.3069    9.2766 C.ar      3 PHE5        0.0000 
     12 CA          4.4950  -11.1413    8.1472 C.3       4 GLY6        0.0000 
     13 CZ          5.7317  -11.9290    7.8307 C.ar      3 PHE5        0.0000 
     14 OG          4.3657  -10.7634    6.7013 O.2       1 SER1        0.0000 
     15 CZ          5.6024  -11.5511    6.3848 C.ar      3 PHE5        0.0000 
     16 CA          7.2171  -12.5990   15.3036 C.3       4 GLY6        0.0000 
     17 CA          5.8511  -11.4334   14.1742 C.3       4 GLY6        0.0000 
     18 CA          7.0878  -12.2211   13.8578 C.3       4 GLY6        0.0000 
     19 OG          8.3245  -13.0088   13.5413 O.2       1 SER1        0.0000 
     20 CZ          5.7218  -11.0555   12.7284 C.ar      3 PHE5        0.0000 
     21 DU          6.9585  -11.8432   12.4119 H         5 CUB7        0.0000 
     22 CZ          8.1952  -12.6309   12.0955 C.ar      3 PHE5        0.0000 
     23 CZ          5.5925  -10.6777   11.2825 C.ar      3 PHE5        0.0000 
     24 CZ          6.8292  -11.4654   10.9661 C.ar      3 PHE5        0.0000 
     25 CZ          8.0659  -12.2531   10.6496 C.ar      3 PHE5        0.0000 
     26 CZ          5.4632  -10.2998    9.8366 C.ar      3 PHE5        0.0000 
     27 CZ          6.6999  -11.0875    9.5202 C.ar      3 PHE5        0.0000 
     28 CA          5.3340   -9.9220    8.3908 C.3       4 GLY6        0.0000 
     29 CA          6.5706  -10.7097    8.0743 C.3       4 GLY6        0.0000 
     30 O           5.2047   -9.5441    6.9449 O.2       2 ALA2        0.0000 
     31 CA          6.4413  -10.3318    6.6285 C.3       4 GLY6        0.0000 
     32 CA          8.0561  -11.3796   15.5473 C.3       4 GLY6        0.0000 
     33 CA          6.6901  -10.2141   14.4178 C.3       4 GLY6        0.0000 
     34 CA          7.9268  -11.0018   14.1014 C.3       4 GLY6        0.0000 
     35 CZ          9.1635  -11.7895   13.7850 C.ar      3 PHE5        0.0000 
     36 CZ          6.5608   -9.8362   12.9720 C.ar      3 PHE5        0.0000 
     37 CZ          7.7975  -10.6239   12.6555 C.ar      3 PHE5        0.0000 
     38 CZ          9.0342  -11.4116   12.3391 C.ar      3 PHE5        0.0000 
     39 CZ          7.6682  -10.2461   11.2097 C.ar      3 PHE5        0.0000 
     40 OG          8.9049  -11.0338   10.8932 O.2       1 SER1        0.0000 
     41 CA          7.5389   -9.8682    9.7638 C.3       4 GLY6        0.0000 
     42 CZ          8.6365   -9.4046   12.8992 C.ar      3 PHE5        0.0000 
     43 CZ          9.8732  -10.1923   12.5827 C.ar      3 PHE5        0.0000 
     44 CZ          8.5072   -9.0267   11.4533 C.ar      3 PHE5        0.0000 
@<TRIPOS>BOND
@<TRIPOS>SUBSTRUCTURE
     1 SER1        1 GROUP   
     2 ALA2        8 GROUP   
     3 PHE5        2 GROUP   
     4 GLY6       12 GROUP   
     5 CUB7       21 GROUP   
@<TRIPOS>SET

