#    Name: 3vhh_VHH_3_INTS_M
#    Modification time : Tue Mar 25 00:50:58 2014

@<TRIPOS>MOLECULE
3vhh_VHH_3_INTS_M
   70     0     6     0     0
SMALL
NO_CHARGES


@<TRIPOS>ATOM
      1 CA          8.8405  -12.5960    9.9220 C.3       2 GLC5        0.0000 
      2 CA          8.7260  -11.0860   11.0550 C.3       6 GLL5        0.0000 
      3 CA          8.9550  -14.1060    8.7890 C.3       4 GLP5        0.0000 
      4 CA          7.2095   -9.0130    9.9610 C.3       2 GLC5        0.0000 
      5 CA          7.0250  -10.7860   11.2350 C.3       6 GLL5        0.0000 
      6 CA          7.3940   -7.2400    8.6870 C.3       4 GLP5        0.0000 
      7 N           7.6995  -14.3170   16.1075 N.am      1 SEC2        0.0000 
      8 N           7.1170  -13.7780   14.7840 N.am      5 SEL2        0.0000 
      9 N           8.2820  -14.8560   17.4310 N.am      3 SEP2        0.0000 
     10 N           6.3510  -14.8045   14.7700 N.am      1 SEC2        0.0000 
     11 N           5.5850  -15.8310   14.7560 N.am      3 SEP2        0.0000 
     12 CA          6.7710   -9.1020   13.4235 C.3       2 GLC5        0.0000 
     13 CA          8.1260  -10.5940   13.5860 C.3       6 GLL5        0.0000 
     14 CA          5.4160   -7.6100   13.2610 C.3       4 GLP5        0.0000 
     15 CA          9.2140   -9.2590   14.2095 C.3       2 GLC5        0.0000 
     16 CA         10.3020   -7.9240   14.8330 C.3       4 GLP5        0.0000 
     17 CA         10.2810   -9.2590   13.2115 C.3       2 GLC5        0.0000 
     18 CA          9.3130  -10.5440   12.6300 C.3       6 GLL5        0.0000 
     19 CA         11.2490   -7.9740   13.7930 C.3       4 GLP5        0.0000 
     20 CA          5.1740  -10.0190   10.7995 C.3       2 GLC5        0.0000 
     21 CA          6.2260  -11.6930   10.2870 C.3       6 GLL5        0.0000 
     22 CA          4.1220   -8.3450   11.3120 C.3       4 GLP5        0.0000 
     23 CA          7.5505  -10.0350    8.0135 C.3       2 GLC5        0.0000 
     24 CA          6.3440  -11.5110    8.9480 C.3       6 GLL5        0.0000 
     25 CA          8.7570   -8.5590    7.0790 C.3       4 GLP5        0.0000 
     26 CA          7.3245  -13.0285    7.6040 C.3       2 GLC5        0.0000 
     27 CA          5.6360  -12.2590    7.7880 C.3       6 GLL5        0.0000 
     28 CA          9.0130  -13.7980    7.4200 C.3       4 GLP5        0.0000 
     29 CA          7.7425  -12.1515    6.0060 C.3       2 GLC5        0.0000 
     30 CA          6.0740  -11.4220    6.5810 C.3       6 GLL5        0.0000 
     31 CA          9.4110  -12.8810    5.4310 C.3       4 GLP5        0.0000 
     32 CA          7.2170  -10.6725    4.9755 C.3       2 GLC5        0.0000 
     33 CA          8.3600   -9.9230    3.3700 C.3       4 GLP5        0.0000 
     34 CA          7.4155   -9.9905    6.8300 C.3       2 GLC5        0.0000 
     35 N           2.8350  -10.8675    6.5090 N.am      1 SEC2        0.0000 
     36 N           4.1600  -10.2400    6.5010 N.am      5 SEL2        0.0000 
     37 N           1.5100  -11.4950    6.5170 N.am      3 SEP2        0.0000 
     38 N           3.0875   -9.5610    7.2665 N.am      1 SEC2        0.0000 
     39 N           2.0150   -8.8820    8.0320 N.am      3 SEP2        0.0000 
     40 N           5.8480  -10.8220    3.8025 N.am      1 SEC2        0.0000 
     41 N           5.7270   -9.7220    5.1460 N.am      5 SEL2        0.0000 
     42 N           5.9690  -11.9220    2.4590 N.am      3 SEP2        0.0000 
     43 N           6.6210   -9.2680    4.2230 N.am      1 SEC2        0.0000 
     44 N           7.5150   -8.8140    3.3000 N.am      3 SEP2        0.0000 
     45 CA          5.3995  -11.9425   14.8355 C.3       2 GLC5        0.0000 
     46 CA          5.1260  -12.7530   12.8770 C.3       6 GLL5        0.0000 
     47 CA          5.6730  -11.1320   16.7940 C.3       4 GLP5        0.0000 
     48 CA          4.7545  -14.3820   11.8155 C.3       2 GLC5        0.0000 
     49 CA          4.3830  -16.0110   10.7540 C.3       4 GLP5        0.0000 
     50 CA          3.1320  -12.1770   13.3510 C.3       2 GLC5        0.0000 
     51 CA          1.1380  -11.6010   13.8250 C.3       4 GLP5        0.0000 
     52 CA          7.4745  -11.6045   16.0855 C.3       2 GLC5        0.0000 
     53 CA          9.2760  -12.0770   15.3770 C.3       6 GLL5        0.0000 
     54 CA         10.9560  -12.4580   14.9315 C.3       2 GLC5        0.0000 
     55 CA         12.6360  -12.8390   14.4860 C.3       4 GLP5        0.0000 
     56 CA         10.6050  -10.7100   15.4115 C.3       2 GLC5        0.0000 
     57 CA         11.9340   -9.3430   15.4460 C.3       4 GLP5        0.0000 
     58 CA          9.9960  -11.8560   17.2675 C.3       2 GLC5        0.0000 
     59 CA         10.7160  -11.6350   19.1580 C.3       4 GLP5        0.0000 
     60 CA         10.7263  -10.8085   11.0218 C.3       2 GLC5        0.0000 
     61 CA         12.4330  -10.8020   10.2010 C.3       4 GLP5        0.0000 
     62 CA         10.4947  -11.9760   12.5633 C.3       2 GLC5        0.0000 
     63 CA         11.9700  -13.1370   13.2840 C.3       4 GLP5        0.0000 
     64 CA          6.1335   -9.3652   11.9607 C.3       2 GLC5        0.0000 
     65 CA          6.8170  -10.8550   12.7780 C.3       6 GLL5        0.0000 
     66 CA          5.3460   -7.9100   11.9150 C.3       4 GLP5        0.0000 
     67 CA          6.5723  -10.9283   14.9880 C.3       2 GLC5        0.0000 
     68 CA          7.6200  -12.8540    9.2033 C.3       2 GLC5        0.0000 
     69 CA          4.8985  -13.3468    6.5448 C.3       2 GLC5        0.0000 
     70 CA          3.9420  -14.8530    5.9050 C.3       4 GLP5        0.0000 
@<TRIPOS>BOND
@<TRIPOS>SUBSTRUCTURE
     1 SEC2        7 GROUP        1 X    SEC  0     ROOT SEC X 2
     2 GLC5        1 GROUP        1 X    GLC  0     **** GLC X 6
     3 SEP2        9 GROUP        1 Y    SEP  0     ROOT SEP Y 9
     4 GLP5        3 GROUP        1 Y    GLP  0     **** GLP Y 13
     5 SEL2        8 GROUP        1 Z    SEL  0     ROOT SEL Z 16
     6 GLL5        2 GROUP        1 Z    GLL  0     **** GLL Z 20
@<TRIPOS>SET

