#    Name: 3vhh_VHH_3_ligand
#    Modification time : Tue Mar 25 00:50:58 2014

@<TRIPOS>MOLECULE
3vhh_VHH_3_ligand
   37    38     1     0     0
SMALL
NO_CHARGES


@<TRIPOS>ATOM
      1 N1          8.2510  -11.8060   14.3780 N.am      1 VHH1124     0.0000 
      2 S1          8.7260  -11.0860   11.0550 S.3       1 VHH1124     0.0000 
      3 C2          7.0250  -10.7860   11.2350 C.3       1 VHH1124     0.0000 
      4 N2          6.4130  -12.1660   13.2540 N.am      1 VHH1124     0.0000 
      5 C3          7.2640  -12.6430   14.1230 C.2       1 VHH1124     0.0000 
      6 O3          7.1170  -13.7780   14.7840 O.2       1 VHH1124     0.0000 
      7 C4          6.8170  -10.8550   12.7780 C.3       1 VHH1124     0.0000 
      8 C5          8.1260  -10.5940   13.5860 C.3       1 VHH1124     0.0000 
      9 C6          9.3130  -10.5440   12.6300 C.3       1 VHH1124     0.0000 
     10 C7          6.2260  -11.6930   10.2870 C.3       1 VHH1124     0.0000 
     11 C8          6.3440  -11.5110    8.9480 C.3       1 VHH1124     0.0000 
     12 C9          5.6360  -12.2590    7.7880 C.3       1 VHH1124     0.0000 
     13 C10         6.0740  -11.4220    6.5810 C.3       1 VHH1124     0.0000 
     14 C11         5.3050  -10.4420    6.0610 C.2       1 VHH1124     0.0000 
     15 O11         4.1600  -10.2400    6.5010 O.co2     1 VHH1124     0.0000 
     16 O12         5.7270   -9.7220    5.1460 O.co2     1 VHH1124     0.0000 
     17 C17         5.1260  -12.7530   12.8770 C.3       1 VHH1124     0.0000 
     18 C18         9.2760  -12.0770   15.3770 C.3       1 VHH1124     0.0000 
     19 H           6.9689   -9.7377   10.9267 H         1 VHH1124     0.0000 
     20 H           6.1074  -10.1118   13.0863 H         1 VHH1124     0.0000 
     21 H           8.0309   -9.7515   14.1474 H         1 VHH1124     0.0000 
     22 H           9.6558   -9.5674   12.4442 H         1 VHH1124     0.0000 
     23 H          10.0663  -11.2387   12.8664 H         1 VHH1124     0.0000 
     24 H           5.1395  -11.6132   10.6394 H         1 VHH1124     0.0000 
     25 H           6.4880  -12.7621   10.6020 H         1 VHH1124     0.0000 
     26 H           7.4937  -11.5431    8.6292 H         1 VHH1124     0.0000 
     27 H           6.1735  -10.3620    8.6734 H         1 VHH1124     0.0000 
     28 H           4.5982  -12.1945    7.9145 H         1 VHH1124     0.0000 
     29 H           6.0220  -13.2299    7.7132 H         1 VHH1124     0.0000 
     30 H           6.3721  -12.2038    5.7742 H         1 VHH1124     0.0000 
     31 H           7.1311  -11.0302    6.8635 H         1 VHH1124     0.0000 
     32 H           5.2341  -13.6708   12.4951 H         1 VHH1124     0.0000 
     33 H           4.5101  -12.8324   13.6608 H         1 VHH1124     0.0000 
     34 H           4.6543  -12.2026   12.1882 H         1 VHH1124     0.0000 
     35 H           9.7820  -12.9148   15.1721 H         1 VHH1124     0.0000 
     36 H           9.9456  -11.3363   15.4325 H         1 VHH1124     0.0000 
     37 H           8.8844  -12.1871   16.2905 H         1 VHH1124     0.0000 
@<TRIPOS>BOND
     1    5    1 am   
     2    8    1 1    
     3   18    1 1    
     4    3    2 1    
     5    9    2 1    
     6    7    3 1    
     7   10    3 1    
     8   19    3 1    
     9    5    4 am   
    10    7    4 1    
    11   17    4 1    
    12    6    5 2    
    13    8    7 1    
    14   20    7 1    
    15    9    8 1    
    16   21    8 1    
    17   22    9 1    
    18   23    9 1    
    19   11   10 1    
    20   24   10 1    
    21   25   10 1    
    22   12   11 1    
    23   26   11 1    
    24   27   11 1    
    25   13   12 1    
    26   28   12 1    
    27   29   12 1    
    28   14   13 1    
    29   30   13 1    
    30   31   13 1    
    31   15   14 ar   
    32   16   14 ar   
    33   32   17 1    
    34   33   17 1    
    35   34   17 1    
    36   35   18 1    
    37   36   18 1    
    38   37   18 1    
@<TRIPOS>SUBSTRUCTURE
     1 VHH1124     1 GROUP   
@<TRIPOS>SET

