#    Name: 3T8G_1_CAVITY_N1_ALL.mol2
#    Modification time : Tue Mar 11 02:55:06 2014

@<TRIPOS>MOLECULE
3T8G_1_CAVITY_N1_ALL.mol2
   69     0     7     0     0
SMALL
NO_CHARGES


@<TRIPOS>ATOM
      1 CA         14.0003   42.9050   -7.5049 C.3       6 GLY6        0.0000 
      2 O          12.7962   43.2924   -6.6986 O.2       2 ALA2        0.0000 
      3 O          11.9059   42.9045   -7.8417 O.2       2 ALA2        0.0000 
      4 O          10.7018   43.2919   -7.0354 O.2       2 ALA2        0.0000 
      5 O           9.8114   42.9041   -8.1785 O.2       2 ALA2        0.0000 
      6 O           8.6074   43.2915   -7.3722 O.2       2 ALA2        0.0000 
      7 NZ          5.3090   43.6785   -6.9026 N.2       4 LYS4        0.0000 
      8 N           8.7837   43.8336   -1.7887 N.2       2 ALA2        0.0000 
      9 CZ          7.5797   44.2210   -0.9823 C.ar      5 PHE5        0.0000 
     10 O          12.7095   41.8961   -6.1573 O.2       2 ALA2        0.0000 
     11 O           9.0974   43.0583   -3.7382 O.2       2 ALA2        0.0000 
     12 O           7.8933   43.4457   -2.9319 O.2       2 ALA2        0.0000 
     13 CA          6.6893   43.8331   -2.1255 C.3       6 GLY6        0.0000 
     14 CA         13.0231   41.1209   -8.1068 C.3       6 GLY6        0.0000 
     15 O          11.8191   41.5083   -7.3005 O.2       2 ALA2        0.0000 
     16 O          10.6151   41.8957   -6.4941 O.2       2 ALA2        0.0000 
     17 O           9.4110   42.2831   -5.6877 O.2       2 ALA2        0.0000 
     18 O           8.2070   42.6705   -4.8814 O.2       2 ALA2        0.0000 
     19 DU          7.0030   43.0579   -4.0750 H         7 CUB7        0.0000 
     20 CA          5.7989   43.4453   -3.2686 C.3       6 GLY6        0.0000 
     21 CA          4.5949   43.8327   -2.4623 C.3       6 GLY6        0.0000 
     22 OG         10.9287   41.1204   -8.4436 O.2       1 SER1        0.0000 
     23 O           7.3166   42.2826   -6.0245 O.2       2 ALA2        0.0000 
     24 CA          6.1126   42.6701   -5.2182 C.3       6 GLY6        0.0000 
     25 CA          4.9086   43.0575   -4.4118 C.3       6 GLY6        0.0000 
     26 CZ          8.6970   42.4373   -1.2474 C.ar      5 PHE5        0.0000 
     27 CA          7.4929   42.8247   -0.4411 C.3       6 GLY6        0.0000 
     28 N           9.0106   41.6621   -3.1969 N.2       2 ALA2        0.0000 
     29 CA          7.8066   42.0495   -2.3906 C.3       6 GLY6        0.0000 
     30 CA          6.6026   42.4369   -1.5842 C.3       6 GLY6        0.0000 
     31 N          11.7324   40.1120   -6.7592 N.2       2 ALA2        0.0000 
     32 N          10.5283   40.4994   -5.9528 N.2       2 ALA2        0.0000 
     33 N           9.3243   40.8868   -5.1465 N.2       2 ALA2        0.0000 
     34 N           8.1203   41.2742   -4.3401 N.2       2 ALA2        0.0000 
     35 CA          6.9162   41.6616   -3.5337 C.3       6 GLY6        0.0000 
     36 CA          5.7122   42.0491   -2.7274 C.3       6 GLY6        0.0000 
     37 CA          6.0258   41.2738   -4.6769 C.3       6 GLY6        0.0000 
     38 N           9.8143   40.6537   -1.5125 N.2       2 ALA2        0.0000 
     39 CA          8.6102   41.0411   -0.7061 C.3       6 GLY6        0.0000 
     40 N          11.3320   39.4910   -4.2684 N.2       2 ALA2        0.0000 
     41 N          10.1279   39.8784   -3.4620 N.2       2 ALA2        0.0000 
     42 N           8.9239   40.2658   -2.6557 N.2       2 ALA2        0.0000 
     43 OD1        11.6456   38.7158   -6.2179 O.3       3 ASP3        0.0000 
     44 N          10.4416   39.1032   -5.4115 N.2       2 ALA2        0.0000 
     45 N           9.2375   39.4906   -4.6052 N.2       2 ALA2        0.0000 
     46 O           8.0335   39.8780   -3.7988 O.2       2 ALA2        0.0000 
     47 CA          6.8295   40.2654   -2.9925 C.3       6 GLY6        0.0000 
     48 CA         10.6179   39.6453    0.1719 C.3       6 GLY6        0.0000 
     49 N          10.9316   38.8700   -1.7776 N.2       2 ALA2        0.0000 
     50 CA          9.7275   39.2574   -0.9712 C.3       6 GLY6        0.0000 
     51 NZ         10.0412   38.4822   -2.9208 N.2       4 LYS4        0.0000 
     52 CA          8.8371   38.8696   -2.1144 C.3       6 GLY6        0.0000 
     53 OD1        10.3548   37.7070   -4.8703 O.3       3 ASP3        0.0000 
     54 N           9.1508   38.0944   -4.0639 N.2       2 ALA2        0.0000 
     55 O           7.9468   38.4818   -3.2575 O.2       2 ALA2        0.0000 
     56 CA         10.5311   38.2490    0.7132 C.3       6 GLY6        0.0000 
     57 CZ          9.3271   38.6364    1.5196 C.ar      5 PHE5        0.0000 
     58 NZ         10.8448   37.4738   -1.2363 N.2       4 LYS4        0.0000 
     59 CA          9.6408   37.8612   -0.4300 C.3       6 GLY6        0.0000 
     60 CA          8.4367   38.2486    0.3764 C.3       6 GLY6        0.0000 
     61 NZ          9.9544   37.0859   -2.3795 N.2       4 LYS4        0.0000 
     62 O           8.7504   37.4734   -1.5731 O.2       2 ALA2        0.0000 
     63 CA          7.5464   37.8608   -0.7668 C.3       6 GLY6        0.0000 
     64 N           9.0640   36.6981   -3.5226 N.2       2 ALA2        0.0000 
     65 CA         10.7581   36.0775   -0.6951 C.3       6 GLY6        0.0000 
     66 CA          9.5540   36.4649    0.1113 C.3       6 GLY6        0.0000 
     67 CA          8.3500   36.8524    0.9177 C.3       6 GLY6        0.0000 
     68 CA          9.8677   35.6897   -1.8382 C.3       6 GLY6        0.0000 
     69 CA          8.6636   36.0771   -1.0318 C.3       6 GLY6        0.0000 
@<TRIPOS>BOND
@<TRIPOS>SUBSTRUCTURE
     1 SER1       22 GROUP   
     2 ALA2        2 GROUP   
     3 ASP3       43 GROUP   
     4 LYS4        7 GROUP   
     5 PHE5        9 GROUP   
     6 GLY6        1 GROUP   
     7 CUB7       19 GROUP   
@<TRIPOS>SET

