#    Name: 3t8g_UBT_1_INTS_M
#    Modification time : Mon Mar 24 19:19:53 2014

@<TRIPOS>MOLECULE
3t8g_UBT_1_INTS_M
   59     0    12     0     0
SMALL
NO_CHARGES


@<TRIPOS>ATOM
      1 CA         16.1230   40.7200   -8.5545 C.3       4 GLC5        0.0000 
      2 CA         16.1900   41.5080  -10.6450 C.3      12 GLL5        0.0000 
      3 CA         16.0560   39.9320   -6.4640 C.3       8 GLP5        0.0000 
      4 CA         12.0105   40.8065  -11.4660 C.3       4 GLC5        0.0000 
      5 CA         13.7250   41.8450  -10.9660 C.3      12 GLL5        0.0000 
      6 CA         10.2960   39.7680  -11.9660 C.3       8 GLP5        0.0000 
      7 O          10.8740   39.4860   -9.0190 O.2       1 ALC1        0.0000 
      8 O          12.1390   40.1310   -8.1510 O.2       9 ALL1        0.0000 
      9 O           9.6090   38.8410   -9.8870 O.2       5 ALP1        0.0000 
     10 CA         14.0130   40.0640   -6.5895 C.3       4 GLC5        0.0000 
     11 CA         11.9700   40.1960   -6.7150 C.3      12 GLL5        0.0000 
     12 CA          9.8725   40.4240   -7.4490 C.3       4 GLC5        0.0000 
     13 CA          7.7750   40.6520   -8.1830 C.3       8 GLP5        0.0000 
     14 Zn         10.0305   37.2000   -6.8215 Zn        3 ZIC7        0.0000 
     15 Zn         10.1550   38.1420   -6.5730 Zn       11 ZIL7        0.0000 
     16 Zn          9.9060   36.2580   -7.0700 Zn        7 ZIP7        0.0000 
     17 N           9.0050   38.8895   -6.9555 N.am      2 SEC2        0.0000 
     18 N          10.1550   38.1420   -6.5730 N.am     10 SEL2        0.0000 
     19 N           7.8550   39.6370   -7.3380 N.am      6 SEP2        0.0000 
     20 N          13.3965   36.8465   -5.5570 N.am      2 SEC2        0.0000 
     21 N          12.6330   37.6160   -6.2530 N.am     10 SEL2        0.0000 
     22 N          14.1600   36.0770   -4.8610 N.am      6 SEP2        0.0000 
     23 CA         10.3100   36.4805   -4.1800 C.3       4 GLC5        0.0000 
     24 CA         10.1200   38.4600   -3.6760 C.3      12 GLL5        0.0000 
     25 CA         10.5000   34.5010   -4.6840 C.3       8 GLP5        0.0000 
     26 N           6.3930   38.7060   -3.7880 N.am      2 SEC2        0.0000 
     27 N           7.7920   38.7910   -3.9600 N.am     10 SEL2        0.0000 
     28 N           4.9940   38.6210   -3.6160 N.am      6 SEP2        0.0000 
     29 N           6.9080   37.6785   -3.7375 N.am      2 SEC2        0.0000 
     30 N           6.0240   36.5660   -3.5150 N.am      6 SEP2        0.0000 
     31 CA          9.9060   36.0595    0.4990 C.3       4 GLC5        0.0000 
     32 CA          9.1880   36.5360   -1.3690 C.3      12 GLL5        0.0000 
     33 CA         10.6240   35.5830    2.3670 C.3       8 GLP5        0.0000 
     34 CA          9.5450   35.0625   -2.6235 C.3       4 GLC5        0.0000 
     35 CA          9.9020   33.5890   -3.8780 C.3       8 GLP5        0.0000 
     36 CA          7.4570   35.7235   -0.7455 C.3       4 GLC5        0.0000 
     37 CA          5.7260   34.9110   -0.1220 C.3       8 GLP5        0.0000 
     38 CA          9.3210   39.8075    1.7470 C.3       4 GLC5        0.0000 
     39 CA          9.6600   38.4430    0.1830 C.3      12 GLL5        0.0000 
     40 CA          8.9820   41.1720    3.3110 C.3       8 GLP5        0.0000 
     41 CA         11.0560   39.5185    0.9640 C.3       4 GLC5        0.0000 
     42 CA         12.4520   40.5940    1.7450 C.3       8 GLP5        0.0000 
     43 CA         10.1420   37.0130    1.2750 C.3       4 GLC5        0.0000 
     44 O          10.3890   41.2445   -3.5605 O.2       1 ALC1        0.0000 
     45 O           9.0870   40.6320   -4.0660 O.2       9 ALL1        0.0000 
     46 O          11.6910   41.8570   -3.0550 O.2       5 ALP1        0.0000 
     47 CA          7.0925   40.7685   -2.4125 C.3       4 GLC5        0.0000 
     48 CA          7.9930   41.5760   -4.2670 C.3      12 GLL5        0.0000 
     49 CA          6.1920   39.9610   -0.5580 C.3       8 GLP5        0.0000 
     50 CA          7.2950   40.4625   -5.5665 C.3       4 GLC5        0.0000 
     51 CA          6.5970   39.3490   -6.8660 C.3       8 GLP5        0.0000 
     52 N          10.4990   43.1985   -5.0690 N.am      2 SEC2        0.0000 
     53 N           9.4040   42.6250   -5.8970 N.am     10 SEL2        0.0000 
     54 N          11.5940   43.7720   -4.2410 N.am      6 SEP2        0.0000 
     55 CA         18.8663   39.6270  -10.8358 C.3       4 GLC5        0.0000 
     56 CA         17.4320   41.0580  -11.0770 C.3      12 GLL5        0.0000 
     57 CA         20.2430   38.5050   -9.9730 C.3       8 GLP5        0.0000 
     58 CA          7.8570   39.1022   -0.5500 C.3       4 GLC5        0.0000 
     59 CA          9.3840   38.0440   -1.2670 C.3      12 GLL5        0.0000 
@<TRIPOS>BOND
@<TRIPOS>SUBSTRUCTURE
     1 ALC1        7 GROUP        1 X    ALC  0     ROOT ALC X 1
     2 SEC2       17 GROUP        1 X    SEC  0     **** SEC X 2
     3 ZIC7       14 GROUP        1 X    ZIC  0     **** ZIC X 5
     4 GLC5        1 GROUP        1 X    GLC  0     **** GLC X 6
     5 ALP1        9 GROUP        1 Y    ALP  0     ROOT ALP Y 8
     6 SEP2       19 GROUP        1 Y    SEP  0     **** SEP Y 9
     7 ZIP7       16 GROUP        1 Y    ZIP  0     **** ZIP Y 12
     8 GLP5        3 GROUP        1 Y    GLP  0     **** GLP Y 13
     9 ALL1        8 GROUP        1 Z    ALL  0     ROOT ALL Z 15
    10 SEL2       18 GROUP        1 Z    SEL  0     **** SEL Z 16
    11 ZIL7       15 GROUP        1 Z    ZIL  0     **** ZIL Z 19
    12 GLL5        2 GROUP        1 Z    GLL  0     **** GLL Z 20
@<TRIPOS>SET

