#    Name: 3t8g_UBT_1_ligand
#    Modification time : Mon Mar 24 19:19:53 2014

@<TRIPOS>MOLECULE
3t8g_UBT_1_ligand
   51    51     1     0     0
SMALL
NO_CHARGES


@<TRIPOS>ATOM
      1 C3         15.1810   40.7390  -12.6920 C.ar      1 UBT317      0.0000 
      2 C2         16.4220   40.2820  -13.1220 C.ar      1 UBT317      0.0000 
      3 C1         17.5470   40.4400  -12.3200 C.ar      1 UBT317      0.0000 
      4 C6         17.4320   41.0580  -11.0770 C.ar      1 UBT317      0.0000 
      5 C5         16.1900   41.5080  -10.6450 C.ar      1 UBT317      0.0000 
      6 C4         15.0660   41.3470  -11.4490 C.ar      1 UBT317      0.0000 
      7 C7         13.7250   41.8450  -10.9660 C.3       1 UBT317      0.0000 
      8 O8         13.0730   40.8030  -10.2420 O.3       1 UBT317      0.0000 
      9 C9         12.9540   40.9340   -8.8090 C.2       1 UBT317      0.0000 
     10 O19        13.6320   41.7730   -8.2320 O.2       1 UBT317      0.0000 
     11 N10        12.1390   40.1310   -8.1510 N.am      1 UBT317      0.0000 
     12 C11        11.9700   40.1960   -6.7150 C.3       1 UBT317      0.0000 
     13 P12        11.4980   38.5930   -6.0310 P.3       1 UBT317      0.0000 
     14 O20        10.1550   38.1420   -6.5730 O.co2     1 UBT317      0.0000 
     15 O21        12.6330   37.6160   -6.2530 O.co2     1 UBT317      0.0000 
     16 N13        11.3010   38.9250   -4.4010 N.3       1 UBT317      0.0000 
     17 C14        10.1200   38.4600   -3.6760 C.3       1 UBT317      0.0000 
     18 C15         8.9030   39.3170   -3.9130 C.2       1 UBT317      0.0000 
     19 O23         7.7920   38.7910   -3.9600 O.2       1 UBT317      0.0000 
     20 C18        10.4920   38.5570   -2.1980 C.3       1 UBT317      0.0000 
     21 C20         9.3840   38.0440   -1.2670 C.3       1 UBT317      0.0000 
     22 C22         9.1880   36.5360   -1.3690 C.3       1 UBT317      0.0000 
     23 C24         9.6600   38.4430    0.1830 C.3       1 UBT317      0.0000 
     24 N16         9.0870   40.6320   -4.0660 N.am      1 UBT317      0.0000 
     25 C17         7.9930   41.5760   -4.2670 C.3       1 UBT317      0.0000 
     26 C27         8.2640   42.5570   -5.3840 C.2       1 UBT317      0.0000 
     27 O28         9.4040   42.6250   -5.8970 O.co2     1 UBT317      0.0000 
     28 O31         7.3010   43.2670   -5.7650 O.co2     1 UBT317      0.0000 
     29 H          14.3552   40.6271  -13.2908 H         1 UBT317      0.0000 
     30 H          16.5086   39.8231  -14.0414 H         1 UBT317      0.0000 
     31 H          18.4616   40.1019  -12.6427 H         1 UBT317      0.0000 
     32 H          18.2603   41.1797  -10.4846 H         1 UBT317      0.0000 
     33 H          16.1005   41.9632   -9.7248 H         1 UBT317      0.0000 
     34 H          13.1405   42.1565  -11.8386 H         1 UBT317      0.0000 
     35 H          13.8927   42.7277  -10.3392 H         1 UBT317      0.0000 
     36 H          11.5669   39.3979   -8.6400 H         1 UBT317      0.0000 
     37 H          11.1573   40.8201   -6.3722 H         1 UBT317      0.0000 
     38 H          12.8672   40.4104   -6.1524 H         1 UBT317      0.0000 
     39 H           9.9094   37.4416   -3.8928 H         1 UBT317      0.0000 
     40 H          10.7082   39.6033   -1.9487 H         1 UBT317      0.0000 
     41 H          11.4044   37.9753   -2.0171 H         1 UBT317      0.0000 
     42 H           8.4444   38.5275   -1.5661 H         1 UBT317      0.0000 
     43 H          10.0481   41.0564   -4.0483 H         1 UBT317      0.0000 
     44 H           7.8023   42.1489   -3.3394 H         1 UBT317      0.0000 
     45 H           7.0549   41.0360   -4.4981 H         1 UBT317      0.0000 
     46 H          10.0201   36.0362   -1.1285 H         1 UBT317      0.0000 
     47 H           8.4653   36.2132   -0.7579 H         1 UBT317      0.0000 
     48 H           8.9354   36.2561   -2.2952 H         1 UBT317      0.0000 
     49 H          10.5281   38.0711    0.5117 H         1 UBT317      0.0000 
     50 H           9.7062   39.4359    0.2926 H         1 UBT317      0.0000 
     51 H           8.9468   38.1127    0.8013 H         1 UBT317      0.0000 
@<TRIPOS>BOND
     1    2    1 ar   
     2    6    1 ar   
     3   29    1 1    
     4    3    2 ar   
     5   30    2 1    
     6    4    3 ar   
     7   31    3 1    
     8    5    4 ar   
     9   32    4 1    
    10    6    5 ar   
    11   33    5 1    
    12    7    6 1    
    13    8    7 1    
    14   34    7 1    
    15   35    7 1    
    16    9    8 1    
    17   10    9 2    
    18   11    9 am   
    19   12   11 1    
    20   36   11 1    
    21   13   12 1    
    22   37   12 1    
    23   38   12 1    
    24   14   13 ar   
    25   15   13 ar   
    26   16   13 1    
    27   17   16 1    
    28   18   17 1    
    29   20   17 1    
    30   39   17 1    
    31   19   18 2    
    32   24   18 am   
    33   21   20 1    
    34   40   20 1    
    35   41   20 1    
    36   22   21 1    
    37   23   21 1    
    38   42   21 1    
    39   46   22 1    
    40   47   22 1    
    41   48   22 1    
    42   49   23 1    
    43   50   23 1    
    44   51   23 1    
    45   25   24 1    
    46   43   24 1    
    47   26   25 1    
    48   44   25 1    
    49   45   25 1    
    50   27   26 ar   
    51   28   26 ar   
@<TRIPOS>SUBSTRUCTURE
     1 UBT317      1 GROUP   
@<TRIPOS>SET

