#    Name: 1g2v_TTP_2_INTS_M
#    Modification time : Tue Mar 25 02:25:33 2014

@<TRIPOS>MOLECULE
1g2v_TTP_2_INTS_M
   45     0     6     0     0
SMALL
NO_CHARGES


@<TRIPOS>ATOM
      1 N          18.6955  -22.7535   72.6710 N.am      1 SEC2        0.0000 
      2 N          17.4950  -22.7360   71.7780 N.am      5 SEL2        0.0000 
      3 N          19.8960  -22.7710   73.5640 N.am      3 SEP2        0.0000 
      4 N          17.4900  -23.1555   69.4470 N.am      1 SEC2        0.0000 
      5 N          16.1010  -23.4920   69.9710 N.am      5 SEL2        0.0000 
      6 N          18.8790  -22.8190   68.9230 N.am      3 SEP2        0.0000 
      7 N          15.6835  -23.6370   67.0505 N.am      1 SEC2        0.0000 
      8 N          14.6260  -23.6110   67.9440 N.am      5 SEL2        0.0000 
      9 N          16.7410  -23.6630   66.1570 N.am      3 SEP2        0.0000 
     10 N          13.8510  -22.1780   67.7235 N.am      1 SEC2        0.0000 
     11 N          13.0760  -20.7450   67.5030 N.am      3 SEP2        0.0000 
     12 CA         16.4820  -21.0325   69.4120 C.3       2 GLC5        0.0000 
     13 CA         15.0930  -20.9890   71.1760 C.3       6 GLL5        0.0000 
     14 CA         17.8710  -21.0760   67.6480 C.3       4 GLP5        0.0000 
     15 CA         13.1025  -21.3225   70.6250 C.3       2 GLC5        0.0000 
     16 CA         11.1120  -21.6560   70.0740 C.3       4 GLP5        0.0000 
     17 CA         14.6750  -20.4500   69.3340 C.3       2 GLC5        0.0000 
     18 CA         14.2570  -19.9110   67.4920 C.3       4 GLP5        0.0000 
     19 CA         17.7725  -19.7345   72.7650 C.3       2 GLC5        0.0000 
     20 CA         15.8570  -19.7450   72.9910 C.3       6 GLL5        0.0000 
     21 CA         19.6880  -19.7240   72.5390 C.3       4 GLP5        0.0000 
     22 N          17.0160  -17.6750   71.5435 N.am      1 SEC2        0.0000 
     23 N          16.4490  -18.4260   72.7900 N.am      5 SEL2        0.0000 
     24 N          17.5830  -16.9240   70.2970 N.am      3 SEP2        0.0000 
     25 CA         13.5945  -17.9835   72.7520 C.3       2 GLC5        0.0000 
     26 CA         13.9270  -19.5110   73.9810 C.3       6 GLL5        0.0000 
     27 CA         13.2620  -16.4560   71.5230 C.3       4 GLP5        0.0000 
     28 N          11.4345  -17.2345   76.1860 N.am      1 SEC2        0.0000 
     29 N          12.0740  -18.2740   75.4200 N.am      5 SEL2        0.0000 
     30 N          10.7950  -16.1950   76.9520 N.am      3 SEP2        0.0000 
     31 CA         11.8270  -21.8670   77.3235 C.3       2 GLC5        0.0000 
     32 CA         12.0580  -22.2300   75.1590 C.3       6 GLL5        0.0000 
     33 CA         11.5960  -21.5040   79.4880 C.3       4 GLP5        0.0000 
     34 CA         10.4595  -24.6485   75.9440 C.3       2 GLC5        0.0000 
     35 CA         12.0760  -23.7440   75.0490 C.3       6 GLL5        0.0000 
     36 CA          8.8430  -25.5530   76.8390 C.3       4 GLP5        0.0000 
     37 CA         14.3298  -18.1180   71.9975 C.3       2 GLC5        0.0000 
     38 CA         14.9380  -19.8150   71.9530 C.3       6 GLL5        0.0000 
     39 CA         15.3083  -20.0880   75.8742 C.3       2 GLC5        0.0000 
     40 CA         16.0620  -20.4070   77.6540 C.3       4 GLP5        0.0000 
     41 CA         14.0215  -22.4877   76.3113 C.3       2 GLC5        0.0000 
     42 CA         15.4860  -22.7570   77.7950 C.3       4 GLP5        0.0000 
     43 CA         11.5150  -22.2527   73.0737 C.3       2 GLC5        0.0000 
     44 CA         13.0470  -21.4500   74.5510 C.3       6 GLL5        0.0000 
     45 CA         10.4730  -22.2870   71.3200 C.3       4 GLP5        0.0000 
@<TRIPOS>BOND
@<TRIPOS>SUBSTRUCTURE
     1 SEC2        1 GROUP        1 X    SEC  0     ROOT SEC X 2
     2 GLC5       12 GROUP        1 X    GLC  0     **** GLC X 6
     3 SEP2        3 GROUP        1 Y    SEP  0     ROOT SEP Y 9
     4 GLP5       14 GROUP        1 Y    GLP  0     **** GLP Y 13
     5 SEL2        2 GROUP        1 Z    SEL  0     ROOT SEL Z 16
     6 GLL5       13 GROUP        1 Z    GLL  0     **** GLL Z 20
@<TRIPOS>SET

