#    Name: 1g2v_TTP_2_ligand
#    Modification time : Tue Mar 25 02:25:33 2014

@<TRIPOS>MOLECULE
1g2v_TTP_2_ligand
   42    43     1     0     0
SMALL
NO_CHARGES


@<TRIPOS>ATOM
      1 PA         16.1640  -23.3170   71.5440 P.3       1 TTP3501     0.0000 
      2 O1A        17.4950  -22.7360   71.7780 O.co2     1 TTP3501     0.0000 
      3 O2A        15.7670  -24.5480   72.1900 O.co2     1 TTP3501     0.0000 
      4 O3A        16.1010  -23.4920   69.9710 O.3       1 TTP3501     0.0000 
      5 PB         14.7920  -24.1430   69.3180 P.3       1 TTP3501     0.0000 
      6 O1B        13.6730  -24.2180   70.2860 O.co2     1 TTP3501     0.0000 
      7 O2B        14.6260  -23.6110   67.9440 O.co2     1 TTP3501     0.0000 
      8 O3B        15.4920  -25.5290   69.1670 O.3       1 TTP3501     0.0000 
      9 PG         14.7840  -26.8830   68.5480 P.3       1 TTP3501     0.0000 
     10 O1G        15.1540  -27.1190   67.1310 O.co2     1 TTP3501     0.0000 
     11 O2G        15.1960  -28.1090   69.3140 O.co2     1 TTP3501     0.0000 
     12 O3G        13.2990  -26.8460   68.6070 O.co2     1 TTP3501     0.0000 
     13 O5'        14.9810  -22.2390   71.8410 O.3       1 TTP3501     0.0000 
     14 C5'        15.0930  -20.9890   71.1760 C.3       1 TTP3501     0.0000 
     15 C4'        14.9380  -19.8150   71.9530 C.3       1 TTP3501     0.0000 
     16 O4'        13.6960  -19.5640   72.5740 O.3       1 TTP3501     0.0000 
     17 C3'        15.8570  -19.7450   72.9910 C.3       1 TTP3501     0.0000 
     18 O3'        16.4490  -18.4260   72.7900 O.3       1 TTP3501     0.0000 
     19 C2'        15.1820  -20.0270   74.2080 C.3       1 TTP3501     0.0000 
     20 C1'        13.9270  -19.5110   73.9810 C.3       1 TTP3501     0.0000 
     21 N1         12.9850  -20.1560   74.7060 N.am      1 TTP3501     0.0000 
     22 C2         12.0150  -19.4950   75.3910 C.2       1 TTP3501     0.0000 
     23 O2         12.0740  -18.2740   75.4200 O.2       1 TTP3501     0.0000 
     24 N3         11.0560  -20.2270   76.0410 N.am      1 TTP3501     0.0000 
     25 C4         11.0770  -21.6000   75.9270 C.2       1 TTP3501     0.0000 
     26 O4         10.2330  -22.2690   76.4700 O.2       1 TTP3501     0.0000 
     27 C5         12.0580  -22.2300   75.1590 C.2       1 TTP3501     0.0000 
     28 C5M        12.0760  -23.7440   75.0490 C.3       1 TTP3501     0.0000 
     29 C6         13.0470  -21.4500   74.5510 C.2       1 TTP3501     0.0000 
     30 H          14.3531  -20.9630   70.3057 H         1 TTP3501     0.0000 
     31 H          16.0953  -20.9470   70.6291 H         1 TTP3501     0.0000 
     32 H          15.1557  -18.9142   71.2884 H         1 TTP3501     0.0000 
     33 H          16.6372  -20.4995   72.7924 H         1 TTP3501     0.0000 
     34 H          15.6820  -19.5365   75.0382 H         1 TTP3501     0.0000 
     35 H          15.1579  -21.0983   74.3856 H         1 TTP3501     0.0000 
     36 H          13.9490  -18.4230   74.2620 H         1 TTP3501     0.0000 
     37 H          10.3337  -19.7642   76.6034 H         1 TTP3501     0.0000 
     38 H          13.7805  -21.9236   74.0085 H         1 TTP3501     0.0000 
     39 H          12.8246  -24.0654   74.4691 H         1 TTP3501     0.0000 
     40 H          12.1890  -24.1799   75.9419 H         1 TTP3501     0.0000 
     41 H          11.2276  -24.0979   74.6553 H         1 TTP3501     0.0000 
     42 H          15.6711  -17.8076   72.6782 H         1 TTP3501     0.0000 
@<TRIPOS>BOND
     1    2    1 ar   
     2    3    1 ar   
     3    4    1 1    
     4   13    1 1    
     5    5    4 1    
     6    6    5 ar   
     7    7    5 ar   
     8    8    5 1    
     9    9    8 1    
    10   10    9 ar   
    11   11    9 ar   
    12   12    9 ar   
    13   14   13 1    
    14   15   14 1    
    15   30   14 1    
    16   31   14 1    
    17   16   15 1    
    18   17   15 1    
    19   32   15 1    
    20   20   16 1    
    21   18   17 1    
    22   19   17 1    
    23   33   17 1    
    24   42   18 1    
    25   20   19 1    
    26   34   19 1    
    27   35   19 1    
    28   21   20 1    
    29   36   20 1    
    30   22   21 1    
    31   29   21 1    
    32   23   22 2    
    33   24   22 1    
    34   25   24 1    
    35   37   24 1    
    36   26   25 2    
    37   27   25 1    
    38   28   27 1    
    39   29   27 2    
    40   39   28 1    
    41   40   28 1    
    42   41   28 1    
    43   38   29 1    
@<TRIPOS>SUBSTRUCTURE
     1 TTP3501     1 GROUP   
@<TRIPOS>SET

