#    Name: 3ruu_37G_1_INTS_M
#    Modification time : Tue Mar 25 11:59:47 2014

@<TRIPOS>MOLECULE
3ruu_37G_1_INTS_M
   99     0     9     0     0
SMALL
NO_CHARGES


@<TRIPOS>ATOM
      1 CA         30.3300   -3.6790  -15.0220 C.3       3 GLC5        0.0000 
      2 CA         29.5540   -5.4110  -15.7770 C.3       9 GLL5        0.0000 
      3 CA         31.1060   -1.9470  -14.2670 C.3       6 GLP5        0.0000 
      4 CA         28.9520   -7.5175  -14.0340 C.3       3 GLC5        0.0000 
      5 CA         28.3770   -6.0090  -15.3340 C.3       9 GLL5        0.0000 
      6 CA         29.5270   -9.0260  -12.7340 C.3       6 GLP5        0.0000 
      7 CA         27.5065   -7.6450  -15.7920 C.3       3 GLC5        0.0000 
      8 CA         26.6360   -9.2810  -16.2500 C.3       6 GLP5        0.0000 
      9 CA         21.9505    6.5080  -22.3830 C.3       3 GLC5        0.0000 
     10 CA         22.7580    4.7030  -22.1170 C.3       9 GLL5        0.0000 
     11 CA         21.1430    8.3130  -22.6490 C.3       6 GLP5        0.0000 
     12 CA         23.8185    6.0455  -21.0410 C.3       3 GLC5        0.0000 
     13 CA         24.8790    7.3880  -19.9650 C.3       6 GLP5        0.0000 
     14 CA         24.0405    5.7910  -23.1010 C.3       3 GLC5        0.0000 
     15 CA         25.3230    6.8790  -24.0850 C.3       6 GLP5        0.0000 
     16 CA         19.1400    4.3245  -22.7545 C.3       3 GLC5        0.0000 
     17 CA         20.7500    3.2160  -22.4190 C.3       9 GLL5        0.0000 
     18 CA         17.5300    5.4330  -23.0900 C.3       6 GLP5        0.0000 
     19 CA         20.3140    3.1555  -24.3950 C.3       3 GLC5        0.0000 
     20 CA         19.8780    3.0950  -26.3710 C.3       6 GLP5        0.0000 
     21 N          24.3730    3.5530  -26.5005 N.am      1 SEC2        0.0000 
     22 N          23.5940    2.4740  -25.7580 N.am      7 SEL2        0.0000 
     23 N          25.1520    4.6320  -27.2430 N.am      4 SEP2        0.0000 
     24 CA         22.1845    0.3355  -21.6020 C.3       3 GLC5        0.0000 
     25 CA         23.9410    0.4670  -22.6450 C.3       9 GLL5        0.0000 
     26 CA         20.4280    0.2040  -20.5590 C.3       6 GLP5        0.0000 
     27 CA         24.9045    1.9345  -21.5420 C.3       3 GLC5        0.0000 
     28 CA         25.8680    3.4020  -20.4390 C.3       6 GLP5        0.0000 
     29 CA         25.8915    1.4785  -20.9535 C.3       3 GLC5        0.0000 
     30 CA         25.9150   -0.4450  -21.4680 C.3       9 GLL5        0.0000 
     31 CA         28.0180    1.3340  -22.0245 C.3       3 GLC5        0.0000 
     32 CA         27.1530   -0.1190  -20.9520 C.3       9 GLL5        0.0000 
     33 CA         28.8830    2.7870  -23.0970 C.3       6 GLP5        0.0000 
     34 CA         23.1360   -1.9330  -20.8400 C.3       3 GLC5        0.0000 
     35 CA         25.2950   -1.6310  -21.0780 C.3       9 GLL5        0.0000 
     36 CA         20.9770   -2.2350  -20.6020 C.3       6 GLP5        0.0000 
     37 CA         30.3355   -1.2390  -18.7870 C.3       3 GLC5        0.0000 
     38 CA         29.2760   -2.8840  -18.5270 C.3       9 GLL5        0.0000 
     39 CA         31.3950    0.4060  -19.0470 C.3       6 GLP5        0.0000 
     40 CA         30.5150   -2.8015  -15.9245 C.3       3 GLC5        0.0000 
     41 CA         29.9240   -3.6560  -17.5820 C.3       9 GLL5        0.0000 
     42 NZ         32.9275   -6.0930  -16.0670 N.4       2 LYC4        0.0000 
     43 NZ         31.9300   -5.1650  -15.8650 N.4       8 LYL4        0.0000 
     44 NZ         34.0620   -6.8270  -17.5730 N.4       5 LYP4        0.0000 
     45 N          32.6035   -5.5615  -17.0325 N.am      1 SEC2        0.0000 
     46 N          31.9300   -5.1650  -15.8650 N.am      7 SEL2        0.0000 
     47 N          33.2770   -5.9580  -18.2000 N.am      4 SEP2        0.0000 
     48 N          32.9275   -6.0930  -16.0670 N.am      1 SEC2        0.0000 
     49 N          33.9250   -7.0210  -16.2690 N.am      4 SEP2        0.0000 
     50 CA         21.3550   -2.7425  -25.9225 C.3       3 GLC5        0.0000 
     51 CA         22.5050   -1.1100  -25.6300 C.3       9 GLL5        0.0000 
     52 CA         20.2050   -4.3750  -26.2150 C.3       6 GLP5        0.0000 
     53 CA         20.8080   -0.8565  -26.6270 C.3       3 GLC5        0.0000 
     54 CA         19.1110   -0.6030  -27.6240 C.3       6 GLP5        0.0000 
     55 CA         22.5865   -2.5315  -27.3405 C.3       3 GLC5        0.0000 
     56 CA         22.6680   -3.9530  -29.0510 C.3       6 GLP5        0.0000 
     57 CA         21.9660    0.1405  -27.4115 C.3       3 GLC5        0.0000 
     58 CA         21.4270    1.3910  -29.1930 C.3       6 GLP5        0.0000 
     59 CA         23.7850   -2.9745  -27.7470 C.3       3 GLC5        0.0000 
     60 CA         24.9020   -1.9960  -26.4430 C.3       9 GLL5        0.0000 
     61 CA         27.9190    2.3215  -24.3125 C.3       3 GLC5        0.0000 
     62 CA         26.9550    1.8560  -25.5280 C.3       9 GLL5        0.0000 
     63 CA         27.1765    3.8165  -25.0970 C.3       3 GLC5        0.0000 
     64 CA         27.3980    5.7770  -24.6660 C.3       6 GLP5        0.0000 
     65 CA         26.1562   -0.5272  -18.8395 C.3       3 GLC5        0.0000 
     66 CA         24.8450   -0.5170  -17.1790 C.3       6 GLP5        0.0000 
     67 CA         27.0587    1.1808  -19.8720 C.3       3 GLC5        0.0000 
     68 CA         27.7820   -0.9560  -20.0480 C.3       9 GLL5        0.0000 
     69 CA         26.6500    2.8990  -19.2440 C.3       6 GLP5        0.0000 
     70 CA         28.9172    0.3292  -19.3980 C.3       3 GLC5        0.0000 
     71 CA         30.3670    1.1960  -18.2960 C.3       6 GLP5        0.0000 
     72 CA         25.6973   -1.4097  -18.5477 C.3       3 GLC5        0.0000 
     73 CA         27.1760   -2.1350  -19.6620 C.3       9 GLL5        0.0000 
     74 CA         26.1822   -1.9663  -17.7237 C.3       3 GLC5        0.0000 
     75 CA         27.8810   -2.9840  -18.6750 C.3       9 GLL5        0.0000 
     76 CA         29.1506   -7.1009  -17.0953 C.3       3 GLC5        0.0000 
     77 CA         29.4270   -8.7120  -18.3860 C.3       6 GLP5        0.0000 
     78 CA         27.7756   -4.6294  -14.6136 C.3       3 GLC5        0.0000 
     79 CA         29.1890   -4.5300  -16.7730 C.3       9 GLL5        0.0000 
     80 CA         27.2100   -4.2040  -12.8650 C.3       6 GLP5        0.0000 
     81 CA         24.1915    3.7085  -21.3537 C.3       3 GLC5        0.0000 
     82 CA         20.9695    1.7378  -21.4892 C.3       3 GLC5        0.0000 
     83 CA         22.2720    3.3270  -22.4200 C.3       9 GLL5        0.0000 
     84 CA         21.6498    3.8933  -20.5224 C.3       3 GLC5        0.0000 
     85 CA         21.6670    4.1710  -18.7010 C.3       6 GLP5        0.0000 
     86 CA         24.5703    2.7607  -22.0772 C.3       3 GLC5        0.0000 
     87 CA         22.9220    2.7240  -23.6620 C.3       9 GLL5        0.0000 
     88 CA         25.2250   -0.7775  -19.2260 C.3       3 GLC5        0.0000 
     89 CA         30.9675   -3.9380  -19.0373 C.3       3 GLC5        0.0000 
     90 CA         32.3350   -4.6060  -20.0200 C.3       6 GLP5        0.0000 
     91 CA         28.4235   -2.1113  -26.7660 C.3       3 GLC5        0.0000 
     92 CA         26.9080   -0.6590  -26.3980 C.3       9 GLL5        0.0000 
     93 CA         30.2580   -2.9660  -26.9940 C.3       6 GLP5        0.0000 
     94 CA         28.2253    0.1273  -25.0688 C.3       3 GLC5        0.0000 
     95 CA         29.9050    0.3850  -23.9980 C.3       6 GLP5        0.0000 
     96 CA         25.8740    2.5025  -27.0467 C.3       3 GLC5        0.0000 
     97 CA         25.1790    3.8780  -28.3890 C.3       6 GLP5        0.0000 
     98 CA         28.3127   -2.5994  -16.1140 C.3       3 GLC5        0.0000 
     99 CA         28.4420   -1.2160  -14.6890 C.3       6 GLP5        0.0000 
@<TRIPOS>BOND
@<TRIPOS>SUBSTRUCTURE
     1 SEC2       21 GROUP        1 X    SEC  0     ROOT SEC X 2
     2 LYC4       42 GROUP        1 X    LYC  0     **** LYC X 4
     3 GLC5        1 GROUP        1 X    GLC  0     **** GLC X 6
     4 SEP2       23 GROUP        1 Y    SEP  0     ROOT SEP Y 9
     5 LYP4       44 GROUP        1 Y    LYP  0     **** LYP Y 11
     6 GLP5        3 GROUP        1 Y    GLP  0     **** GLP Y 13
     7 SEL2       22 GROUP        1 Z    SEL  0     ROOT SEL Z 16
     8 LYL4       43 GROUP        1 Z    LYL  0     **** LYL Z 18
     9 GLL5        2 GROUP        1 Z    GLL  0     **** GLL Z 20
@<TRIPOS>SET

