#    Name: 3ruu_37G_1_ligand
#    Modification time : Tue Mar 25 11:59:47 2014

@<TRIPOS>MOLECULE
3ruu_37G_1_ligand
   57    61     1     0     0
SMALL
NO_CHARGES


@<TRIPOS>ATOM
      1 C13        27.7820   -0.9560  -20.0480 C.ar      1 37G1        0.0000 
      2 C15        25.9230   -2.4700  -20.1710 C.ar      1 37G1        0.0000 
      3 C17        27.8810   -2.9840  -18.6750 C.ar      1 37G1        0.0000 
      4 C20        29.1890   -4.5300  -16.7730 C.ar      1 37G1        0.0000 
      5 C21        29.5540   -5.4110  -15.7770 C.2       1 37G1        0.0000 
      6 C22        28.3770   -6.0090  -15.3340 C.2       1 37G1        0.0000 
      7 C24        27.8080   -4.6200  -16.9200 C.ar      1 37G1        0.0000 
      8 C26        30.9240   -5.6640  -15.2660 C.2       1 37G1        0.0000 
      9 C01        22.7580    4.7030  -22.1170 C.3       1 37G1        0.0000 
     10 C02        22.2720    3.3270  -22.4200 C.3       1 37G1        0.0000 
     11 C03        20.7500    3.2160  -22.4190 C.3       1 37G1        0.0000 
     12 C04        22.9220    2.7240  -23.6620 C.2       1 37G1        0.0000 
     13 O05        22.9110    3.2960  -24.8860 O.3       1 37G1        0.0000 
     14 N06        23.5940    2.4740  -25.7580 N.2       1 37G1        0.0000 
     15 C07        24.0340    1.3900  -25.0810 C.2       1 37G1        0.0000 
     16 C08        23.6230    1.5150  -23.7690 C.2       1 37G1        0.0000 
     17 C09        23.9410    0.4670  -22.6450 C.3       1 37G1        0.0000 
     18 O10        25.3490    0.4080  -22.3550 O.3       1 37G1        0.0000 
     19 C11        25.9150   -0.4450  -21.4680 C.ar      1 37G1        0.0000 
     20 C12        27.1530   -0.1190  -20.9520 C.ar      1 37G1        0.0000 
     21 C14        27.1760   -2.1350  -19.6620 C.ar      1 37G1        0.0000 
     22 C16        25.2950   -1.6310  -21.0780 C.ar      1 37G1        0.0000 
     23 C18        29.2760   -2.8840  -18.5270 C.ar      1 37G1        0.0000 
     24 C19        29.9240   -3.6560  -17.5820 C.ar      1 37G1        0.0000 
     25 N23        27.3510   -5.5190  -16.0380 N.pl3     1 37G1        0.0000 
     26 C25        27.1580   -3.8470  -17.8620 C.ar      1 37G1        0.0000 
     27 O27        31.9300   -5.1650  -15.8650 O.co2     1 37G1        0.0000 
     28 O28        31.0930   -6.4110  -14.1660 O.co2     1 37G1        0.0000 
     29 C29        24.8090    0.2610  -25.6370 C.ar      1 37G1        0.0000 
     30 C30        24.1770   -0.9320  -25.9210 C.ar      1 37G1        0.0000 
     31 CL31       22.5050   -1.1100  -25.6300 Cl        1 37G1        0.0000 
     32 C32        24.9020   -1.9960  -26.4430 C.ar      1 37G1        0.0000 
     33 C33        26.2700   -1.8540  -26.6780 C.ar      1 37G1        0.0000 
     34 C34        26.9080   -0.6590  -26.3980 C.ar      1 37G1        0.0000 
     35 C35        26.1830    0.3980  -25.8810 C.ar      1 37G1        0.0000 
     36 CL36       26.9550    1.8560  -25.5280 Cl        1 37G1        0.0000 
     37 H          28.7032   -0.6985  -19.6631 H         1 37G1        0.0000 
     38 H          25.4661   -3.3419  -19.8712 H         1 37G1        0.0000 
     39 H          28.3410   -6.6665  -14.6313 H         1 37G1        0.0000 
     40 H          22.6206    2.6700  -21.5512 H         1 37G1        0.0000 
     41 H          23.5528   -0.5000  -22.9948 H         1 37G1        0.0000 
     42 H          23.3521    0.7590  -21.7641 H         1 37G1        0.0000 
     43 H          27.6163    0.7600  -21.2435 H         1 37G1        0.0000 
     44 H          24.3761   -1.8790  -21.4635 H         1 37G1        0.0000 
     45 H          29.8012   -2.2361  -19.1246 H         1 37G1        0.0000 
     46 H          30.9431   -3.5944  -17.4672 H         1 37G1        0.0000 
     47 H          26.4161   -5.7751  -15.9277 H         1 37G1        0.0000 
     48 H          26.1338   -3.9084  -17.9645 H         1 37G1        0.0000 
     49 H          24.4352   -2.8848  -26.6560 H         1 37G1        0.0000 
     50 H          26.8041   -2.6481  -27.0630 H         1 37G1        0.0000 
     51 H          27.9162   -0.5582  -26.5737 H         1 37G1        0.0000 
     52 H          23.7567    4.7541  -22.1240 H         1 37G1        0.0000 
     53 H          22.4257    5.3696  -22.7843 H         1 37G1        0.0000 
     54 H          22.4549    5.0140  -21.2162 H         1 37G1        0.0000 
     55 H          20.4453    2.2856  -22.6230 H         1 37G1        0.0000 
     56 H          20.3601    3.4643  -21.5322 H         1 37G1        0.0000 
     57 H          20.3333    3.8170  -23.1010 H         1 37G1        0.0000 
@<TRIPOS>BOND
     1   20    1 ar   
     2   21    1 ar   
     3   37    1 1    
     4   21    2 ar   
     5   22    2 ar   
     6   38    2 1    
     7   21    3 1    
     8   23    3 ar   
     9   26    3 ar   
    10    5    4 1    
    11    7    4 ar   
    12   24    4 ar   
    13    6    5 2    
    14    8    5 1    
    15   25    6 1    
    16   39    6 1    
    17   25    7 1    
    18   26    7 ar   
    19   27    8 ar   
    20   28    8 ar   
    21   10    9 1    
    22   52    9 1    
    23   53    9 1    
    24   54    9 1    
    25   11   10 1    
    26   12   10 1    
    27   40   10 1    
    28   55   11 1    
    29   56   11 1    
    30   57   11 1    
    31   13   12 1    
    32   16   12 2    
    33   14   13 1    
    34   15   14 2    
    35   16   15 1    
    36   29   15 1    
    37   17   16 1    
    38   18   17 1    
    39   41   17 1    
    40   42   17 1    
    41   19   18 1    
    42   20   19 ar   
    43   22   19 ar   
    44   43   20 1    
    45   44   22 1    
    46   24   23 ar   
    47   45   23 1    
    48   46   24 1    
    49   47   25 1    
    50   48   26 1    
    51   30   29 ar   
    52   35   29 ar   
    53   31   30 1    
    54   32   30 ar   
    55   33   32 ar   
    56   49   32 1    
    57   34   33 ar   
    58   50   33 1    
    59   35   34 ar   
    60   51   34 1    
    61   36   35 1    
@<TRIPOS>SUBSTRUCTURE
     1 37G1        1 GROUP   
@<TRIPOS>SET

