#    Name: 3da9_44U_1_INTS_M
#    Modification time : Mon Mar 24 22:58:44 2014

@<TRIPOS>MOLECULE
3da9_44U_1_INTS_M
   60     0     9     0     0
SMALL
NO_CHARGES


@<TRIPOS>ATOM
      1 CA         10.7815   -8.4170   21.5065 C.3       3 GLC5        0.0000 
      2 CA         12.3680   -9.6120   20.9670 C.3       9 GLL5        0.0000 
      3 CA          9.1950   -7.2220   22.0460 C.3       6 GLP5        0.0000 
      4 CA         10.6075  -10.3215   20.3280 C.3       3 GLC5        0.0000 
      5 CA          8.8470  -11.0310   19.6890 C.3       6 GLP5        0.0000 
      6 CA         14.9900   -8.8735   19.0660 C.3       3 GLC5        0.0000 
      7 CA         14.6080  -10.5260   20.3690 C.3       9 GLL5        0.0000 
      8 CA         15.3720   -7.2210   17.7630 C.3       6 GLP5        0.0000 
      9 CA         17.7765  -11.1680   23.0470 C.3       3 GLC5        0.0000 
     10 CA         18.0940  -11.9150   21.1850 C.3       9 GLL5        0.0000 
     11 CA         17.4590  -10.4210   24.9090 C.3       6 GLP5        0.0000 
     12 CA         19.4590  -16.8850   28.2005 C.3       3 GLC5        0.0000 
     13 CA         17.9700  -18.2900   27.4660 C.3       9 GLL5        0.0000 
     14 CA         20.9480  -15.4800   28.9350 C.3       6 GLP5        0.0000 
     15 O          16.5675   -9.5485   21.5735 O.2       1 ALC1        0.0000 
     16 O          15.9920  -10.6640   20.8190 O.2       7 ALL1        0.0000 
     17 O          17.1430   -8.4330   22.3280 O.2       4 ALP1        0.0000 
     18 N          15.6060  -12.3115   24.2355 N.am      2 SEC2        0.0000 
     19 N          16.5110  -12.9810   23.3160 N.am      8 SEL2        0.0000 
     20 N          14.7010  -11.6420   25.1550 N.am      5 SEP2        0.0000 
     21 CA         17.6295  -13.3385   26.4160 C.3       3 GLC5        0.0000 
     22 CA         18.2290  -14.7630   25.0000 C.3       9 GLL5        0.0000 
     23 CA         17.0300  -11.9140   27.8320 C.3       6 GLP5        0.0000 
     24 CA         19.5450  -15.7500   27.3915 C.3       3 GLC5        0.0000 
     25 CA         18.1420  -16.0200   25.8480 C.3       9 GLL5        0.0000 
     26 CA         15.5675  -16.2015   27.4815 C.3       3 GLC5        0.0000 
     27 CA         17.6130  -15.9280   27.1250 C.3       9 GLL5        0.0000 
     28 CA         13.5220  -16.4750   27.8380 C.3       6 GLP5        0.0000 
     29 O          15.6695  -15.0115   24.3840 O.2       1 ALC1        0.0000 
     30 O          16.4940  -15.7640   23.4780 O.2       7 ALL1        0.0000 
     31 O          14.8450  -14.2590   25.2900 O.2       4 ALP1        0.0000 
     32 CA         12.8247   -7.8100   21.3362 C.3       3 GLC5        0.0000 
     33 CA         13.8190   -9.7540   21.4300 C.3       9 GLL5        0.0000 
     34 CA         12.5560   -5.9370   21.4740 C.3       6 GLP5        0.0000 
     35 CA         15.1642   -9.9880   22.6627 C.3       3 GLC5        0.0000 
     36 CA         16.1150   -9.8360   24.4260 C.3       6 GLP5        0.0000 
     37 CA         18.9485  -10.3960   19.3837 C.3       3 GLC5        0.0000 
     38 CA         19.2910   -8.8770   18.1620 C.3       6 GLP5        0.0000 
     39 CA         21.6277  -13.6420   20.4278 C.3       3 GLC5        0.0000 
     40 CA         20.2430  -12.8380   20.5760 C.3       9 GLL5        0.0000 
     41 CA         23.4320  -13.9100   19.9110 C.3       6 GLP5        0.0000 
     42 CA         20.0252  -11.0152   21.7424 C.3       3 GLC5        0.0000 
     43 CA         20.6260   -9.6540   22.8940 C.3       6 GLP5        0.0000 
     44 CA         18.9881  -13.9451   19.1910 C.3       3 GLC5        0.0000 
     45 CA         19.1180  -11.9150   20.0260 C.3       9 GLL5        0.0000 
     46 CA         18.4340  -14.7470   17.5750 C.3       6 GLP5        0.0000 
     47 CA         15.8670  -17.8113   27.7535 C.3       3 GLC5        0.0000 
     48 CA         17.5220  -17.0590   27.9360 C.3       9 GLL5        0.0000 
     49 CA         13.9880  -17.9480   27.8060 C.3       6 GLP5        0.0000 
     50 CA         18.6958  -15.6122   28.6167 C.3       3 GLC5        0.0000 
     51 CA         19.8240  -14.7310   29.7030 C.3       6 GLP5        0.0000 
     52 CA         23.0070  -12.0613   26.6583 C.3       3 GLC5        0.0000 
     53 CA         21.2100  -12.5910   25.9820 C.3       9 GLL5        0.0000 
     54 CA         24.2880  -11.2560   27.7130 C.3       6 GLP5        0.0000 
     55 CA         21.8975  -11.3217   24.5348 C.3       3 GLC5        0.0000 
     56 CA         22.2420  -13.1420   25.2250 C.3       9 GLL5        0.0000 
     57 CA         22.0690   -9.7770   23.4660 C.3       6 GLP5        0.0000 
     58 CA         20.7223  -14.3021   27.3366 C.3       3 GLC5        0.0000 
     59 CA         18.9778  -11.7726   25.3236 C.3       3 GLC5        0.0000 
     60 CA         19.9220  -13.1170   25.9120 C.3       9 GLL5        0.0000 
@<TRIPOS>BOND
@<TRIPOS>SUBSTRUCTURE
     1 ALC1       15 GROUP        1 X    ALC  0     ROOT ALC X 1
     2 SEC2       18 GROUP        1 X    SEC  0     **** SEC X 2
     3 GLC5        1 GROUP        1 X    GLC  0     **** GLC X 6
     4 ALP1       17 GROUP        1 Y    ALP  0     ROOT ALP Y 8
     5 SEP2       20 GROUP        1 Y    SEP  0     **** SEP Y 9
     6 GLP5        3 GROUP        1 Y    GLP  0     **** GLP Y 13
     7 ALL1       16 GROUP        1 Z    ALL  0     ROOT ALL Z 15
     8 SEL2       19 GROUP        1 Z    SEL  0     **** SEL Z 16
     9 GLL5        2 GROUP        1 Z    GLL  0     **** GLL Z 20
@<TRIPOS>SET

