#    Name: 3da9_44U_1_ligand
#    Modification time : Mon Mar 24 22:58:44 2014

@<TRIPOS>MOLECULE
3da9_44U_1_ligand
   58    60     1     0     0
SMALL
NO_CHARGES


@<TRIPOS>ATOM
      1 C1         12.3680   -9.6120   20.9670 C.3       1 44U1        0.0000 
      2 C2         13.8190   -9.7540   21.4300 C.3       1 44U1        0.0000 
      3 C3         14.6080  -10.5260   20.3690 C.3       1 44U1        0.0000 
      4 C7         18.0940  -11.9150   21.1850 C.3       1 44U1        0.0000 
      5 C9         19.1180  -11.9150   20.0260 C.3       1 44U1        0.0000 
      6 C10        20.2430  -12.8380   20.5760 C.3       1 44U1        0.0000 
      7 C11        19.4040  -13.9100   21.3130 C.3       1 44U1        0.0000 
      8 C13        17.4560  -13.6380   22.9020 C.2       1 44U1        0.0000 
      9 C15        17.7290  -14.9700   23.5520 C.3       1 44U1        0.0000 
     10 C19        18.6010  -17.2540   25.3790 C.ar      1 44U1        0.0000 
     11 C20        18.5180  -18.3870   26.1880 C.ar      1 44U1        0.0000 
     12 C21        17.9700  -18.2900   27.4660 C.ar      1 44U1        0.0000 
     13 C22        17.5220  -17.0590   27.9360 C.ar      1 44U1        0.0000 
     14 C24        19.6440  -14.1980   25.0770 C.ar      1 44U1        0.0000 
     15 C27        22.2420  -13.1420   25.2250 C.ar      1 44U1        0.0000 
     16 N4         15.9920  -10.6640   20.8190 N.am      1 44U1        0.0000 
     17 C5         16.6700  -11.8280   20.6760 C.2       1 44U1        0.0000 
     18 O6         16.1580  -12.8160   20.1620 O.2       1 44U1        0.0000 
     19 N12        18.2500  -13.1920   21.9080 N.am      1 44U1        0.0000 
     20 O14        16.5110  -12.9810   23.3160 O.2       1 44U1        0.0000 
     21 C17        18.2290  -14.7630   25.0000 C.3       1 44U1        0.0000 
     22 C18        18.1420  -16.0200   25.8480 C.ar      1 44U1        0.0000 
     23 C23        17.6130  -15.9280   27.1250 C.ar      1 44U1        0.0000 
     24 C25        20.6890  -14.7470   24.3330 C.ar      1 44U1        0.0000 
     25 C26        21.9760  -14.2260   24.4040 C.ar      1 44U1        0.0000 
     26 C28        21.2100  -12.5910   25.9820 C.ar      1 44U1        0.0000 
     27 C29        19.9220  -13.1170   25.9120 C.ar      1 44U1        0.0000 
     28 N30        16.4940  -15.7640   23.4780 N.4       1 44U1        0.0000 
     29 H          13.8471  -10.2973   22.3637 H         1 44U1        0.0000 
     30 H          14.2537   -8.7729   21.5569 H         1 44U1        0.0000 
     31 H          14.5534   -9.9740   19.4335 H         1 44U1        0.0000 
     32 H          14.1404  -11.4989   20.2359 H         1 44U1        0.0000 
     33 H          18.3044  -11.0988   21.8308 H         1 44U1        0.0000 
     34 H          19.4976  -10.9465   19.8864 H         1 44U1        0.0000 
     35 H          18.6910  -12.3542   19.1738 H         1 44U1        0.0000 
     36 H          20.8237  -12.3088   21.2629 H         1 44U1        0.0000 
     37 H          20.7558  -13.2756   19.7794 H         1 44U1        0.0000 
     38 H          20.0147  -14.3557   22.0735 H         1 44U1        0.0000 
     39 H          19.0776  -14.6378   20.5963 H         1 44U1        0.0000 
     40 H          18.5168  -15.4605   22.9894 H         1 44U1        0.0000 
     41 H          19.0007  -17.3253   24.4348 H         1 44U1        0.0000 
     42 H          18.8601  -19.2910   25.8425 H         1 44U1        0.0000 
     43 H          17.8975  -19.1251   28.0584 H         1 44U1        0.0000 
     44 H          17.1241  -16.9820   28.8800 H         1 44U1        0.0000 
     45 H          23.1851  -12.7476   25.2774 H         1 44U1        0.0000 
     46 H          16.4222   -9.8282   21.2501 H         1 44U1        0.0000 
     47 H          17.5584  -14.0091   25.4728 H         1 44U1        0.0000 
     48 H          17.2828  -15.0182   27.4825 H         1 44U1        0.0000 
     49 H          20.5000  -15.5583   23.7166 H         1 44U1        0.0000 
     50 H          22.7310  -14.6477   23.8450 H         1 44U1        0.0000 
     51 H          21.4015  -11.7873   26.5990 H         1 44U1        0.0000 
     52 H          19.1688  -12.7041   26.4817 H         1 44U1        0.0000 
     53 H          12.3012   -9.1150   20.1018 H         1 44U1        0.0000 
     54 H          11.9337  -10.5020   20.8281 H         1 44U1        0.0000 
     55 H          11.8123   -9.1155   21.6338 H         1 44U1        0.0000 
     56 H          16.6852  -16.7441   23.4240 H         1 44U1        0.0000 
     57 H          15.9130  -15.6225   24.2795 H         1 44U1        0.0000 
     58 H          15.9478  -15.5272   22.6745 H         1 44U1        0.0000 
@<TRIPOS>BOND
     1    2    1 1    
     2   53    1 1    
     3   54    1 1    
     4   55    1 1    
     5    3    2 1    
     6   29    2 1    
     7   30    2 1    
     8   16    3 1    
     9   31    3 1    
    10   32    3 1    
    11    5    4 1    
    12   17    4 1    
    13   19    4 1    
    14   33    4 1    
    15    6    5 1    
    16   34    5 1    
    17   35    5 1    
    18    7    6 1    
    19   36    6 1    
    20   37    6 1    
    21   19    7 1    
    22   38    7 1    
    23   39    7 1    
    24    9    8 1    
    25   19    8 am   
    26   20    8 2    
    27   21    9 1    
    28   28    9 1    
    29   40    9 1    
    30   11   10 ar   
    31   22   10 ar   
    32   41   10 1    
    33   12   11 ar   
    34   42   11 1    
    35   13   12 ar   
    36   43   12 1    
    37   23   13 ar   
    38   44   13 1    
    39   21   14 1    
    40   24   14 ar   
    41   27   14 ar   
    42   25   15 ar   
    43   26   15 ar   
    44   45   15 1    
    45   17   16 am   
    46   46   16 1    
    47   18   17 2    
    48   22   21 1    
    49   47   21 1    
    50   23   22 ar   
    51   48   23 1    
    52   25   24 ar   
    53   49   24 1    
    54   50   25 1    
    55   27   26 ar   
    56   51   26 1    
    57   52   27 1    
    58   56   28 1    
    59   57   28 1    
    60   58   28 1    
@<TRIPOS>SUBSTRUCTURE
     1 44U1        1 GROUP   
@<TRIPOS>SET

