#    Name: 3hsc_ADP_1_INTS_M
#    Modification time : Tue Mar 25 14:56:01 2014

@<TRIPOS>MOLECULE
3hsc_ADP_1_INTS_M
   64     0    12     0     0
SMALL
NO_CHARGES


@<TRIPOS>ATOM
      1 N          18.7040   30.5440   18.5825 N.am      2 SEC2        0.0000 
      2 N          18.5640   29.2890   17.7400 N.am     10 SEL2        0.0000 
      3 N          18.8440   31.7990   19.4250 N.am      6 SEP2        0.0000 
      4 Zn         19.2870   27.5495   15.5730 Zn        3 ZIC7        0.0000 
      5 Zn         18.4870   28.3450   15.3810 Zn       11 ZIL7        0.0000 
      6 Zn         20.0870   26.7540   15.7650 Zn        7 ZIP7        0.0000 
      7 N          15.2395   29.4290   16.6365 N.am      2 SEC2        0.0000 
      8 N          16.5680   29.4750   16.3680 N.am     10 SEL2        0.0000 
      9 N          13.9110   29.3830   16.9050 N.am      6 SEP2        0.0000 
     10 N          16.1510   30.5525   16.8595 N.am      2 SEC2        0.0000 
     11 N          15.7340   31.6300   17.3510 N.am      6 SEP2        0.0000 
     12 N          15.6745   30.0755   15.4575 N.am      2 SEC2        0.0000 
     13 N          14.7810   30.6760   14.5470 N.am      6 SEP2        0.0000 
     14 N          22.0395   31.6330   15.7380 N.am      2 SEC2        0.0000 
     15 N          20.9350   30.7050   15.5570 N.am     10 SEL2        0.0000 
     16 N          23.1440   32.5610   15.9190 N.am      6 SEP2        0.0000 
     17 N          21.4955   32.6340   16.1060 N.am      2 SEC2        0.0000 
     18 N          19.8470   32.7070   16.2930 N.am     10 SEL2        0.0000 
     19 CA         17.4445   33.8110   15.5230 C.3       4 GLC5        0.0000 
     20 CA         18.9270   33.8050   16.3600 C.3      12 GLL5        0.0000 
     21 CA         15.9620   33.8170   14.6860 C.3       8 GLP5        0.0000 
     22 CA         17.0700   35.5125   16.4185 C.3       4 GLC5        0.0000 
     23 CA         18.5260   35.9250   17.7860 C.3      12 GLL5        0.0000 
     24 CA         15.6140   35.1000   15.0510 C.3       8 GLP5        0.0000 
     25 CA         19.7685   38.7225   18.4065 C.3       4 GLC5        0.0000 
     26 CA         19.1630   37.1310   17.0140 C.3      12 GLL5        0.0000 
     27 CA         20.3740   40.3140   19.7990 C.3       8 GLP5        0.0000 
     28 N          19.2810   38.7570   18.9640 N.am      2 SEC2        0.0000 
     29 N          19.0250   38.3590   17.7510 N.am     10 SEL2        0.0000 
     30 N          19.5370   39.1550   20.1770 N.am      6 SEP2        0.0000 
     31 O          18.1950   39.0610   17.1040 O.2       1 ALC1        0.0000 
     32 O          19.0250   38.3590   17.7510 O.2       9 ALL1        0.0000 
     33 O          17.3650   39.7630   16.4570 O.2       5 ALP1        0.0000 
     34 CA         21.9460   35.3560   16.4010 C.3       4 GLC5        0.0000 
     35 CA         20.6350   36.7170   17.0830 C.3      12 GLL5        0.0000 
     36 CA         23.2570   33.9950   15.7190 C.3       8 GLP5        0.0000 
     37 N          23.3965   37.2520   13.2830 N.am      2 SEC2        0.0000 
     38 N          22.4510   38.2540   14.2620 N.am     10 SEL2        0.0000 
     39 N          24.3420   36.2500   12.3040 N.am      6 SEP2        0.0000 
     40 CA         23.4815   41.4480   15.8310 C.3       4 GLC5        0.0000 
     41 CA         24.1490   39.6500   15.6070 C.3      12 GLL5        0.0000 
     42 CA         22.8140   43.2460   16.0550 C.3       8 GLP5        0.0000 
     43 CA         25.8380   40.8360   16.0585 C.3       4 GLC5        0.0000 
     44 CA         27.5270   42.0220   16.5100 C.3       8 GLP5        0.0000 
     45 N          25.6035   40.6750   17.1730 N.am      2 SEC2        0.0000 
     46 N          24.5320   39.9250   16.8660 N.am     10 SEL2        0.0000 
     47 N          26.6750   41.4250   17.4800 N.am      6 SEP2        0.0000 
     48 CA         22.1200   39.8275   18.8205 C.3       4 GLC5        0.0000 
     49 CA         23.8660   39.3410   17.8420 C.3      12 GLL5        0.0000 
     50 CA         23.3400   41.2935   16.9485 C.3       4 GLC5        0.0000 
     51 CA         25.1490   39.1650   19.1920 C.3       4 GLC5        0.0000 
     52 CA         26.4320   38.9890   20.5420 C.3       8 GLP5        0.0000 
     53 CA         21.4330   39.2825   18.1630 C.3       4 GLC5        0.0000 
     54 CA         22.4920   38.2510   16.5270 C.3      12 GLL5        0.0000 
     55 CA         22.8745   36.1230   16.1230 C.3       4 GLC5        0.0000 
     56 CA         21.2308   34.1407   16.3012 C.3       4 GLC5        0.0000 
     57 CA         19.4820   34.7680   17.4070 C.3      12 GLL5        0.0000 
     58 CA         18.3501   33.9184   18.6214 C.3       4 GLC5        0.0000 
     59 CA         17.8350   32.7310   19.9080 C.3       8 GLP5        0.0000 
     60 CA         21.8027   40.1740   15.6040 C.3       4 GLC5        0.0000 
     61 CA         20.8230   41.8440   15.2400 C.3       8 GLP5        0.0000 
     62 CA         25.0365   38.5433   14.3420 C.3       4 GLC5        0.0000 
     63 CA         23.0730   38.7570   15.4090 C.3      12 GLL5        0.0000 
     64 CA         26.4620   37.8830   13.1760 C.3       8 GLP5        0.0000 
@<TRIPOS>BOND
@<TRIPOS>SUBSTRUCTURE
     1 ALC1       31 GROUP        1 X    ALC  0     ROOT ALC X 1
     2 SEC2        1 GROUP        1 X    SEC  0     **** SEC X 2
     3 ZIC7        4 GROUP        1 X    ZIC  0     **** ZIC X 5
     4 GLC5       19 GROUP        1 X    GLC  0     **** GLC X 6
     5 ALP1       33 GROUP        1 Y    ALP  0     ROOT ALP Y 8
     6 SEP2        3 GROUP        1 Y    SEP  0     **** SEP Y 9
     7 ZIP7        6 GROUP        1 Y    ZIP  0     **** ZIP Y 12
     8 GLP5       21 GROUP        1 Y    GLP  0     **** GLP Y 13
     9 ALL1       32 GROUP        1 Z    ALL  0     ROOT ALL Z 15
    10 SEL2        2 GROUP        1 Z    SEL  0     **** SEL Z 16
    11 ZIL7        5 GROUP        1 Z    ZIL  0     **** ZIL Z 19
    12 GLL5       20 GROUP        1 Z    GLL  0     **** GLL Z 20
@<TRIPOS>SET

