#    Name: 3hsc_ADP_1_ligand
#    Modification time : Tue Mar 25 14:56:01 2014

@<TRIPOS>MOLECULE
3hsc_ADP_1_ligand
   39    41     1     0     0
SMALL
NO_CHARGES


@<TRIPOS>ATOM
      1 PB         18.0340   29.3590   16.3850 P.3       1 ADP486      0.0000 
      2 O1B        18.5640   29.2890   17.7400 O.co2     1 ADP486      0.0000 
      3 O2B        18.4870   28.3450   15.3810 O.co2     1 ADP486      0.0000 
      4 O3B        16.5680   29.4750   16.3680 O.co2     1 ADP486      0.0000 
      5 PA         19.7420   31.5360   15.2930 P.3       1 ADP486      0.0000 
      6 O1A        20.9350   30.7050   15.5570 O.co2     1 ADP486      0.0000 
      7 O2A        19.5190   32.0300   13.9670 O.co2     1 ADP486      0.0000 
      8 O3A        18.4600   30.7470   15.8250 O.3       1 ADP486      0.0000 
      9 O5'        19.8470   32.7070   16.2930 O.3       1 ADP486      0.0000 
     10 C5'        18.9270   33.8050   16.3600 C.3       1 ADP486      0.0000 
     11 C4'        19.4820   34.7680   17.4070 C.3       1 ADP486      0.0000 
     12 O4'        20.6890   35.3230   16.8370 O.3       1 ADP486      0.0000 
     13 C3'        18.5260   35.9250   17.7860 C.3       1 ADP486      0.0000 
     14 O3'        18.6140   35.9300   19.2420 O.3       1 ADP486      0.0000 
     15 C2'        19.1630   37.1310   17.0140 C.3       1 ADP486      0.0000 
     16 O2'        19.0250   38.3590   17.7510 O.3       1 ADP486      0.0000 
     17 C1'        20.6350   36.7170   17.0830 C.3       1 ADP486      0.0000 
     18 N9         21.4980   37.4310   16.1180 N.pl3     1 ADP486      0.0000 
     19 C8         21.5250   37.4710   14.7440 C.2       1 ADP486      0.0000 
     20 N7         22.4510   38.2540   14.2620 N.2       1 ADP486      0.0000 
     21 C5         23.0730   38.7570   15.4090 C.ar      1 ADP486      0.0000 
     22 C6         24.1490   39.6500   15.6070 C.ar      1 ADP486      0.0000 
     23 N6         24.7560   40.2610   14.6130 N.pl3     1 ADP486      0.0000 
     24 N1         24.5320   39.9250   16.8660 N.ar      1 ADP486      0.0000 
     25 C2         23.8660   39.3410   17.8420 C.ar      1 ADP486      0.0000 
     26 N3         22.8400   38.5010   17.8050 N.ar      1 ADP486      0.0000 
     27 C4         22.4920   38.2510   16.5270 C.ar      1 ADP486      0.0000 
     28 H          17.9428   33.4895   16.6796 H         1 ADP486      0.0000 
     29 H          18.8580   34.3333   15.4185 H         1 ADP486      0.0000 
     30 H          19.7230   34.2102   18.2961 H         1 ADP486      0.0000 
     31 H          17.5966   35.6924   17.4040 H         1 ADP486      0.0000 
     32 H          18.8476   37.1274   16.0508 H         1 ADP486      0.0000 
     33 H          20.9788   36.9231   18.0990 H         1 ADP486      0.0000 
     34 H          20.8777   36.9349   14.1961 H         1 ADP486      0.0000 
     35 H          25.5021   40.8772   14.8652 H         1 ADP486      0.0000 
     36 H          24.4161   40.0536   13.6957 H         1 ADP486      0.0000 
     37 H          24.2238   39.5944   18.8764 H         1 ADP486      0.0000 
     38 H          18.7151   36.8930   19.4917 H         1 ADP486      0.0000 
     39 H          18.0785   38.6452   17.6020 H         1 ADP486      0.0000 
@<TRIPOS>BOND
     1    2    1 ar   
     2    3    1 ar   
     3    4    1 ar   
     4    8    1 1    
     5    6    5 ar   
     6    7    5 ar   
     7    8    5 1    
     8    9    5 1    
     9   10    9 1    
    10   11   10 1    
    11   28   10 1    
    12   29   10 1    
    13   12   11 1    
    14   13   11 1    
    15   30   11 1    
    16   17   12 1    
    17   14   13 1    
    18   15   13 1    
    19   31   13 1    
    20   38   14 1    
    21   16   15 1    
    22   17   15 1    
    23   32   15 1    
    24   39   16 1    
    25   18   17 1    
    26   33   17 1    
    27   19   18 1    
    28   27   18 1    
    29   20   19 2    
    30   34   19 1    
    31   21   20 1    
    32   22   21 ar   
    33   27   21 ar   
    34   23   22 1    
    35   24   22 ar   
    36   35   23 1    
    37   36   23 1    
    38   25   24 ar   
    39   26   25 ar   
    40   37   25 1    
    41   27   26 ar   
@<TRIPOS>SUBSTRUCTURE
     1 ADP486      1 GROUP   
@<TRIPOS>SET

