#    Name: 3VGJ_1_CAVITY_N1_6.mol2
#    Modification time : Tue Mar 11 11:11:55 2014

@<TRIPOS>MOLECULE
3VGJ_1_CAVITY_N1_6.mol2
  127     0     6     0     0
SMALL
NO_CHARGES


@<TRIPOS>ATOM
      1 CA         11.3920   -2.0435   57.6062 C.3       5 GLY6        0.0000 
      2 CA         11.0045   -3.2113   58.4642 C.3       5 GLY6        0.0000 
      3 CA         10.6171   -4.3791   59.3221 C.3       5 GLY6        0.0000 
      4 OD1        10.2297   -5.5470   60.1800 O.3       3 ASP3        0.0000 
      5 NZ         12.4720   -1.8050   55.7961 N.2       4 LYS4        0.0000 
      6 NZ         12.0846   -2.9728   56.6540 N.2       4 LYS4        0.0000 
      7 N          11.6971   -4.1406   57.5119 N.2       2 ALA2        0.0000 
      8 CA         11.3097   -5.3085   58.3699 C.3       5 GLY6        0.0000 
      9 CA         10.9223   -6.4763   59.2278 C.3       5 GLY6        0.0000 
     10 O          12.7771   -3.9021   55.7018 O.2       2 ALA2        0.0000 
     11 N          12.3897   -5.0699   56.5597 N.2       2 ALA2        0.0000 
     12 NZ         12.0023   -6.2378   57.4177 N.2       4 LYS4        0.0000 
     13 CA         12.6649   -1.8933   58.3855 C.3       5 GLY6        0.0000 
     14 CA         12.2774   -3.0611   59.2434 C.3       5 GLY6        0.0000 
     15 CA         11.8900   -4.2290   60.1013 C.3       5 GLY6        0.0000 
     16 CA         11.5026   -5.3968   60.9593 C.3       5 GLY6        0.0000 
     17 NZ         13.3574   -2.8226   57.4332 N.2       4 LYS4        0.0000 
     18 N          12.9700   -3.9905   58.2912 N.2       2 ALA2        0.0000 
     19 N          12.5826   -5.1583   59.1491 N.2       2 ALA2        0.0000 
     20 CA         12.1951   -6.3261   60.0071 C.3       5 GLY6        0.0000 
     21 N           9.5388   -3.2731   55.0955 N.2       2 ALA2        0.0000 
     22 NZ          9.1514   -4.4410   55.9535 N.2       4 LYS4        0.0000 
     23 NZ          8.7639   -5.6088   56.8114 N.2       4 LYS4        0.0000 
     24 CA         10.2314   -4.2025   54.1433 C.3       5 GLY6        0.0000 
     25 NZ          9.8439   -5.3703   55.0012 N.2       4 LYS4        0.0000 
     26 O           8.6517   -3.6000   59.4951 O.2       2 ALA2        0.0000 
     27 O          10.1191   -2.1937   56.8270 O.2       2 ALA2        0.0000 
     28 O           9.7317   -3.3615   57.6849 O.2       2 ALA2        0.0000 
     29 OD1         9.3442   -4.5293   58.5429 O.3       3 ASP3        0.0000 
     30 N          11.1991   -1.9551   55.0168 N.2       2 ALA2        0.0000 
     31 DU         10.8117   -3.1230   55.8748 H         6 CUB7        0.0000 
     32 DU         10.4242   -4.2908   56.7327 H         6 CUB7        0.0000 
     33 NZ         10.0368   -5.4586   57.5906 N.2       4 LYS4        0.0000 
     34 CA          9.6494   -6.6265   58.4486 C.3       5 GLY6        0.0000 
     35 O          11.5043   -4.0523   54.9225 O.2       2 ALA2        0.0000 
     36 NZ         11.1168   -5.2201   55.7805 N.2       4 LYS4        0.0000 
     37 CA          3.4479   -2.1919   59.0618 C.3       5 GLY6        0.0000 
     38 CA          3.0604   -3.3598   59.9197 C.3       5 GLY6        0.0000 
     39 CA          4.9153   -0.7856   56.3937 C.3       5 GLY6        0.0000 
     40 OG          4.5279   -1.9534   57.2516 O.2       1 SER1        0.0000 
     41 OD1         4.1404   -3.1212   58.1096 O.3       3 ASP3        0.0000 
     42 DU          3.7530   -4.2891   58.9675 H         6 CUB7        0.0000 
     43 OG          3.3656   -5.4569   59.8254 O.2       1 SER1        0.0000 
     44 CA          5.6079   -1.7149   55.4415 C.3       5 GLY6        0.0000 
     45 DU          5.2204   -2.8827   56.2994 H         6 CUB7        0.0000 
     46 DU          4.8330   -4.0505   57.1573 H         6 CUB7        0.0000 
     47 OD1         4.4456   -5.2184   58.0153 O.3       3 ASP3        0.0000 
     48 OD1         4.0581   -6.3862   58.8732 O.3       3 ASP3        0.0000 
     49 O           7.4628    0.8593   51.9154 O.2       2 ALA2        0.0000 
     50 O           7.0753   -0.3085   52.7734 O.2       2 ALA2        0.0000 
     51 O           6.6879   -1.4764   53.6313 O.2       2 ALA2        0.0000 
     52 DU          6.3005   -2.6442   54.4892 H         6 CUB7        0.0000 
     53 DU          5.9130   -3.8120   55.3472 H         6 CUB7        0.0000 
     54 DU          5.5256   -4.9798   56.2051 H         6 CUB7        0.0000 
     55 OD1         5.1381   -6.1477   57.0631 O.3       3 ASP3        0.0000 
     56 OD1         4.7507   -7.3155   57.9210 O.3       3 ASP3        0.0000 
     57 CA          8.5428    1.0978   50.1053 C.3       5 GLY6        0.0000 
     58 N           8.1553   -0.0700   50.9632 N.2       2 ALA2        0.0000 
     59 N           7.7679   -1.2378   51.8212 N.2       2 ALA2        0.0000 
     60 N           7.3805   -2.4057   52.6791 N.2       2 ALA2        0.0000 
     61 O           6.9930   -3.5735   53.5370 O.2       2 ALA2        0.0000 
     62 O           6.6056   -4.7413   54.3950 O.2       2 ALA2        0.0000 
     63 NZ          6.2182   -5.9092   55.2529 N.2       4 LYS4        0.0000 
     64 NZ          5.8307   -7.0770   56.1108 N.2       4 LYS4        0.0000 
     65 CA          5.4433   -8.2448   56.9688 C.3       5 GLY6        0.0000 
     66 CA          9.2354    0.1685   49.1531 C.3       5 GLY6        0.0000 
     67 O           8.8479   -0.9993   50.0110 O.2       2 ALA2        0.0000 
     68 N           8.4605   -2.1671   50.8689 N.2       2 ALA2        0.0000 
     69 NZ          6.1359   -9.1741   56.0166 N.2       4 LYS4        0.0000 
     70 N           6.1882   -0.6354   57.1729 N.2       2 ALA2        0.0000 
     71 O           5.8007   -1.8032   58.0309 O.2       2 ALA2        0.0000 
     72 CA          5.4133   -2.9711   58.8888 C.3       5 GLY6        0.0000 
     73 OD1         5.0259   -4.1389   59.7467 O.3       3 ASP3        0.0000 
     74 O           6.8808   -1.5647   56.2207 O.2       2 ALA2        0.0000 
     75 O           6.4933   -2.7325   57.0787 O.2       2 ALA2        0.0000 
     76 OD1         6.1059   -3.9004   57.9366 O.3       3 ASP3        0.0000 
     77 N           7.9608   -1.3262   54.4106 N.2       2 ALA2        0.0000 
     78 DU          7.5733   -2.4940   55.2685 H         6 CUB7        0.0000 
     79 DU          7.1859   -3.6618   56.1264 H         6 CUB7        0.0000 
     80 OD1         6.7985   -4.8297   56.9844 O.3       3 ASP3        0.0000 
     81 N           8.6534   -2.2555   53.4583 N.2       2 ALA2        0.0000 
     82 O           8.2659   -3.4233   54.3163 O.2       2 ALA2        0.0000 
     83 O           7.8785   -4.5912   55.1742 O.2       2 ALA2        0.0000 
     84 N           9.3459   -3.1848   52.5061 N.2       2 ALA2        0.0000 
     85 O           6.6862   -2.8209   59.6681 O.2       2 ALA2        0.0000 
     86 O           8.1536   -1.4145   57.0000 O.2       2 ALA2        0.0000 
     87 O           7.7662   -2.5824   57.8579 O.2       2 ALA2        0.0000 
     88 OD1         7.3788   -3.7502   58.7158 O.3       3 ASP3        0.0000 
     89 O           8.8462   -2.3438   56.0477 O.2       2 ALA2        0.0000 
     90 O           8.4588   -3.5117   56.9057 O.2       2 ALA2        0.0000 
     91 OD1         8.0713   -4.6795   57.7636 O.3       3 ASP3        0.0000 
     92 OD1         1.4824   -1.4128   59.2348 O.3       3 ASP3        0.0000 
     93 OD1         1.7875   -3.5099   59.1405 O.3       3 ASP3        0.0000 
     94 OD1         3.2550   -2.1036   56.4724 O.3       3 ASP3        0.0000 
     95 OD1         2.8675   -3.2714   57.3303 O.3       3 ASP3        0.0000 
     96 OD1         2.4801   -4.4392   58.1883 O.3       3 ASP3        0.0000 
     97 OG          2.0927   -5.6071   59.0462 O.2       1 SER1        0.0000 
     98 NZ          4.3350   -1.8651   54.6622 N.2       4 LYS4        0.0000 
     99 NZ          3.9476   -3.0329   55.5202 N.2       4 LYS4        0.0000 
    100 OD1         3.5601   -4.2007   56.3781 O.3       3 ASP3        0.0000 
    101 CA          3.1727   -5.3685   57.2360 C.3       5 GLY6        0.0000 
    102 OG          2.7852   -6.5364   58.0940 O.2       1 SER1        0.0000 
    103 CA          6.1899    0.7091   51.1362 C.3       5 GLY6        0.0000 
    104 OG          5.8025   -0.4587   51.9941 O.2       1 SER1        0.0000 
    105 NZ          5.0276   -2.7944   53.7100 N.2       4 LYS4        0.0000 
    106 N           4.6401   -3.9622   54.5679 N.2       2 ALA2        0.0000 
    107 O           4.2527   -5.1300   55.4259 O.2       2 ALA2        0.0000 
    108 CA          3.8653   -6.2979   56.2838 C.3       5 GLY6        0.0000 
    109 CA          3.4778   -7.4657   57.1418 C.3       5 GLY6        0.0000 
    110 CA          7.2699    0.9477   49.3260 C.3       5 GLY6        0.0000 
    111 OG          6.8825   -0.2202   50.1840 O.2       1 SER1        0.0000 
    112 OG          6.4950   -1.3880   51.0419 O.2       1 SER1        0.0000 
    113 OG          6.1076   -2.5558   51.8998 O.2       1 SER1        0.0000 
    114 N           4.9453   -6.0593   54.4737 N.2       2 ALA2        0.0000 
    115 O           4.5578   -7.2272   55.3316 O.2       2 ALA2        0.0000 
    116 CA          4.1704   -8.3950   56.1895 C.3       5 GLY6        0.0000 
    117 N           7.9625    0.0184   48.3738 N.2       2 ALA2        0.0000 
    118 N           7.5750   -1.1495   49.2318 N.2       2 ALA2        0.0000 
    119 N          13.5503   -2.9110   60.0226 N.2       2 ALA2        0.0000 
    120 N          14.2429   -3.8403   59.0704 N.2       2 ALA2        0.0000 
    121 N          13.8555   -5.0081   59.9284 N.2       2 ALA2        0.0000 
    122 CA         13.4680   -6.1759   60.7863 C.3       5 GLY6        0.0000 
    123 OD1         1.2072   -4.5894   57.4090 O.3       3 ASP3        0.0000 
    124 NZ          2.6747   -3.1831   54.7409 N.2       4 LYS4        0.0000 
    125 N           2.2872   -4.3509   55.5989 N.2       2 ALA2        0.0000 
    126 N           1.8998   -5.5187   56.4568 N.2       2 ALA2        0.0000 
    127 CA          3.3673   -4.1124   53.7887 C.3       5 GLY6        0.0000 
@<TRIPOS>BOND
@<TRIPOS>SUBSTRUCTURE
     1 SER1       40 GROUP   
     2 ALA2        7 GROUP   
     3 ASP3        4 GROUP   
     4 LYS4        5 GROUP   
     5 GLY6        1 GROUP   
     6 CUB7       31 GROUP   
@<TRIPOS>SET

