#    Name: 3vgj_YAP_1_INTS_M
#    Modification time : Tue Mar 25 00:47:44 2014

@<TRIPOS>MOLECULE
3vgj_YAP_1_INTS_M
   98     0     9     0     0
SMALL
NO_CHARGES


@<TRIPOS>ATOM
      1 O           5.6840   -4.3590   51.2870 O.2       1 ALC1        0.0000 
      2 O           6.2670   -3.0420   50.7450 O.2       7 ALL1        0.0000 
      3 O           5.1010   -5.6760   51.8290 O.2       4 ALP1        0.0000 
      4 O           5.0700   -2.3380   50.7135 O.2       1 ALC1        0.0000 
      5 O           3.8730   -1.6340   50.6820 O.2       4 ALP1        0.0000 
      6 O           6.5675   -3.1640   49.4105 O.2       1 ALC1        0.0000 
      7 O           6.8680   -3.2860   48.0760 O.2       4 ALP1        0.0000 
      8 N          13.2765   -8.4540   61.8950 N.am      2 SEC2        0.0000 
      9 N          12.8150   -7.4550   61.2440 N.am      8 SEL2        0.0000 
     10 N          13.7380   -9.4530   62.5460 N.am      5 SEP2        0.0000 
     11 CA         13.5030   -5.6180   61.5760 C.3       3 GLC5        0.0000 
     12 CA         13.7250   -6.9590   60.1980 C.3       9 GLL5        0.0000 
     13 CA         13.2810   -4.2770   62.9540 C.3       6 GLP5        0.0000 
     14 CA         15.5690   -6.3080   60.8455 C.3       3 GLC5        0.0000 
     15 CA         17.4130   -5.6570   61.4930 C.3       6 GLP5        0.0000 
     16 CA         14.9715   -6.8355   58.9145 C.3       3 GLC5        0.0000 
     17 CA         16.2180   -6.7120   57.6310 C.3       6 GLP5        0.0000 
     18 CA         13.6660   -8.7635   60.3010 C.3       3 GLC5        0.0000 
     19 CA         13.6070  -10.5680   60.4040 C.3       6 GLP5        0.0000 
     20 CA         13.9305   -7.4300   62.2945 C.3       3 GLC5        0.0000 
     21 CA         14.1360   -7.9010   64.3910 C.3       6 GLP5        0.0000 
     22 N          14.2805   -5.8620   58.2015 N.am      2 SEC2        0.0000 
     23 N          13.1940   -6.0200   59.1530 N.am      8 SEL2        0.0000 
     24 N          15.3670   -5.7040   57.2500 N.am      5 SEP2        0.0000 
     25 CA          9.2530   -7.1575   59.5870 C.3       3 GLC5        0.0000 
     26 CA         10.8730   -6.1140   60.2310 C.3       9 GLL5        0.0000 
     27 CA          7.6330   -8.2010   58.9430 C.3       6 GLP5        0.0000 
     28 CA         12.7725   -7.4725   62.8330 C.3       3 GLC5        0.0000 
     29 CA         11.4090   -7.0440   61.2750 C.3       9 GLL5        0.0000 
     30 CA          9.8000   -8.2775   61.1360 C.3       3 GLC5        0.0000 
     31 CA          8.1910   -9.5110   60.9970 C.3       6 GLP5        0.0000 
     32 O          11.0455   -8.4600   63.2605 O.2       1 ALC1        0.0000 
     33 O          10.5440   -7.5220   62.3170 O.2       7 ALL1        0.0000 
     34 O          11.5470   -9.3980   64.2040 O.2       4 ALP1        0.0000 
     35 O           9.3210   -7.1260   62.6195 O.2       1 ALC1        0.0000 
     36 O           8.0980   -6.7300   62.9220 O.2       4 ALP1        0.0000 
     37 N           8.3210   -6.2350   59.7105 N.am      2 SEC2        0.0000 
     38 N           9.5500   -5.5390   59.9790 N.am      8 SEL2        0.0000 
     39 N           7.0920   -6.9310   59.4420 N.am      5 SEP2        0.0000 
     40 CA          7.9760    0.5185   53.0945 C.3       3 GLC5        0.0000 
     41 CA          7.1290   -0.9480   51.7360 C.3       9 GLL5        0.0000 
     42 CA          8.8230    1.9850   54.4530 C.3       6 GLP5        0.0000 
     43 CA          5.4350   -0.2100   52.5930 C.3       3 GLC5        0.0000 
     44 CA          3.7410    0.5280   53.4500 C.3       6 GLP5        0.0000 
     45 N          10.8875   -0.3980   46.2925 N.am      2 SEC2        0.0000 
     46 N           9.7150    0.2520   46.4770 N.am      8 SEL2        0.0000 
     47 N          12.0600   -1.0480   46.1080 N.am      5 SEP2        0.0000 
     48 O           8.9350    0.9670   45.6910 O.2       1 ALC1        0.0000 
     49 O           9.7150    0.2520   46.4770 O.2       7 ALL1        0.0000 
     50 O           8.1550    1.6820   44.9050 O.2       4 ALP1        0.0000 
     51 CA         12.3840   -6.0620   55.3935 C.3       3 GLC5        0.0000 
     52 CA         10.8920   -4.5790   55.9450 C.3       9 GLL5        0.0000 
     53 CA         13.8760   -7.5450   54.8420 C.3       6 GLP5        0.0000 
     54 N          12.7155   -6.0665   54.7630 N.am      2 SEC2        0.0000 
     55 N          11.3910   -5.8060   55.4590 N.am      8 SEL2        0.0000 
     56 N          14.0400   -6.3270   54.0670 N.am      5 SEP2        0.0000 
     57 O          10.9805   -7.0205   55.3770 O.2       1 ALC1        0.0000 
     58 O          11.3910   -5.8060   55.4590 O.2       7 ALL1        0.0000 
     59 O          10.5700   -8.2350   55.2950 O.2       4 ALP1        0.0000 
     60 N           6.5800    0.5125   55.2830 N.am      2 SEC2        0.0000 
     61 N           6.7350   -0.7320   55.9760 N.am      8 SEL2        0.0000 
     62 N           6.4250    1.7570   54.5900 N.am      5 SEP2        0.0000 
     63 N          13.2080   -4.9850   54.2520 N.am      2 SEC2        0.0000 
     64 N          12.3760   -3.6430   54.4370 N.am      8 SEL2        0.0000 
     65 O          12.9375   -2.5890   53.8570 O.2       1 ALC1        0.0000 
     66 O          12.3760   -3.6430   54.4370 O.2       7 ALL1        0.0000 
     67 O          13.4990   -1.5350   53.2770 O.2       4 ALP1        0.0000 
     68 CA         11.8040   -0.6440   56.5065 C.3       3 GLC5        0.0000 
     69 CA         11.1330   -2.2190   55.9500 C.3       9 GLL5        0.0000 
     70 CA         12.4750    0.9310   57.0630 C.3       6 GLP5        0.0000 
     71 CA         10.4780   -0.0685   56.4490 C.3       3 GLC5        0.0000 
     72 CA          9.7660   -1.5240   56.0610 C.3       9 GLL5        0.0000 
     73 CA         11.1900    1.3870   56.8370 C.3       6 GLP5        0.0000 
     74 N           8.8725   -1.7250   57.9830 N.am      2 SEC2        0.0000 
     75 N           8.7710   -2.4510   56.4200 N.am      8 SEL2        0.0000 
     76 N           8.9740   -0.9990   59.5460 N.am      5 SEP2        0.0000 
     77 CA          5.1625    0.9140   49.2560 C.3       3 GLC5        0.0000 
     78 CA          7.0350   -0.0830   49.2660 C.3       9 GLL5        0.0000 
     79 CA          3.2900    1.9110   49.2460 C.3       6 GLP5        0.0000 
     80 CA         12.3256   -5.3682   61.7229 C.3       3 GLC5        0.0000 
     81 CA         11.7900   -5.6360   59.1860 C.3       9 GLL5        0.0000 
     82 CA         10.9376   -7.7258   59.5084 C.3       3 GLC5        0.0000 
     83 CA         10.5050   -8.9920   58.5250 C.3       6 GLP5        0.0000 
     84 CA          6.9268    1.2405   50.8662 C.3       3 GLC5        0.0000 
     85 CA          6.3910    3.2500   50.7080 C.3       6 GLP5        0.0000 
     86 CA          8.8332   -1.6057   47.2408 C.3       3 GLC5        0.0000 
     87 CA          9.8630   -0.5630   48.9080 C.3       9 GLL5        0.0000 
     88 CA          8.2140   -2.9250   46.1370 C.3       6 GLP5        0.0000 
     89 CA         10.5955   -5.0960   53.7328 C.3       3 GLC5        0.0000 
     90 CA         11.1120   -3.4450   55.0060 C.3       9 GLL5        0.0000 
     91 CA         10.1890   -6.1800   51.9900 C.3       6 GLP5        0.0000 
     92 CA         11.0098   -1.8455   50.0978 C.3       3 GLC5        0.0000 
     93 CA          9.2600   -0.8490   50.1270 C.3       9 GLL5        0.0000 
     94 CA         12.4580   -2.9850   50.6780 C.3       6 GLP5        0.0000 
     95 CA          6.8748    1.6603   49.6577 C.3       3 GLC5        0.0000 
     96 CA          7.7863   -1.4272   47.3722 C.3       3 GLC5        0.0000 
     97 CA         10.2278    0.3534   50.6190 C.3       3 GLC5        0.0000 
     98 CA         11.2600    1.3480   51.6740 C.3       6 GLP5        0.0000 
@<TRIPOS>BOND
@<TRIPOS>SUBSTRUCTURE
     1 ALC1        1 GROUP        1 X    ALC  0     ROOT ALC X 1
     2 SEC2        8 GROUP        1 X    SEC  0     **** SEC X 2
     3 GLC5       11 GROUP        1 X    GLC  0     **** GLC X 6
     4 ALP1        3 GROUP        1 Y    ALP  0     ROOT ALP Y 8
     5 SEP2       10 GROUP        1 Y    SEP  0     **** SEP Y 9
     6 GLP5       13 GROUP        1 Y    GLP  0     **** GLP Y 13
     7 ALL1        2 GROUP        1 Z    ALL  0     ROOT ALL Z 15
     8 SEL2        9 GROUP        1 Z    SEL  0     **** SEL Z 16
     9 GLL5       12 GROUP        1 Z    GLL  0     **** GLL Z 20
@<TRIPOS>SET

