#    Name: 3vgj_YAP_1_ligand
#    Modification time : Tue Mar 25 00:47:45 2014

@<TRIPOS>MOLECULE
3vgj_YAP_1_ligand
   58    61     1     0     0
SMALL
NO_CHARGES


@<TRIPOS>ATOM
      1 C           6.6390   -2.9830   53.2070 C.2       1 YAP374      0.0000 
      2 N           6.2670   -3.0420   50.7450 N.4       1 YAP374      0.0000 
      3 O           5.3430   -2.5460   53.5210 O.2       1 YAP374      0.0000 
      4 P           7.2720   -2.2620   55.7350 P.3       1 YAP374      0.0000 
      5 N1         12.8150   -7.4550   61.2440 N.ar      1 YAP374      0.0000 
      6 C2         13.7250   -6.9590   60.1980 C.ar      1 YAP374      0.0000 
      7 N3         13.1940   -6.0200   59.1530 N.ar      1 YAP374      0.0000 
      8 C4         11.7900   -5.6360   59.1860 C.ar      1 YAP374      0.0000 
      9 C5         10.8730   -6.1140   60.2310 C.ar      1 YAP374      0.0000 
     10 C6         11.4090   -7.0440   61.2750 C.ar      1 YAP374      0.0000 
     11 N6         10.5440   -7.5220   62.3170 N.pl3     1 YAP374      0.0000 
     12 N7          9.5500   -5.5390   59.9790 N.2       1 YAP374      0.0000 
     13 C8          9.6310   -4.6950   58.7950 C.2       1 YAP374      0.0000 
     14 N9         11.0400   -4.7750   58.3240 N.pl3     1 YAP374      0.0000 
     15 CA          7.0830   -2.4870   51.8160 C.3       1 YAP374      0.0000 
     16 CB          7.1290   -0.9480   51.7360 C.3       1 YAP374      0.0000 
     17 CG          7.7960   -0.5900   50.3130 C.ar      1 YAP374      0.0000 
     18 OH          9.7150    0.2520   46.4770 O.3       1 YAP374      0.0000 
     19 CZ          9.0420   -0.0100   47.7810 C.ar      1 YAP374      0.0000 
     20 C1'        11.6350   -4.1260   57.1890 C.3       1 YAP374      0.0000 
     21 O1P         6.2990   -3.2240   56.2110 O.co2     1 YAP374      0.0000 
     22 C2'        10.8920   -4.5790   55.9450 C.3       1 YAP374      0.0000 
     23 O2'        11.3910   -5.8060   55.4590 O.3       1 YAP374      0.0000 
     24 O2P         6.7350   -0.7320   55.9760 O.co2     1 YAP374      0.0000 
     25 C3'        11.1120   -3.4450   55.0060 C.3       1 YAP374      0.0000 
     26 O3'        12.3760   -3.6430   54.4370 O.3       1 YAP374      0.0000 
     27 O3P         7.5720   -2.4680   54.1120 O.3       1 YAP374      0.0000 
     28 C4'        11.1330   -2.2190   55.9500 C.3       1 YAP374      0.0000 
     29 O4'        11.4790   -2.6970   57.2940 O.3       1 YAP374      0.0000 
     30 C5'         9.7660   -1.5240   56.0610 C.3       1 YAP374      0.0000 
     31 O5'         8.7710   -2.4510   56.4200 O.3       1 YAP374      0.0000 
     32 CD1         9.2600   -0.8490   50.1270 C.ar      1 YAP374      0.0000 
     33 CD2         7.0350   -0.0830   49.2660 C.ar      1 YAP374      0.0000 
     34 CE1         9.8630   -0.5630   48.9080 C.ar      1 YAP374      0.0000 
     35 CE2         7.6820    0.2240   47.9490 C.ar      1 YAP374      0.0000 
     36 H          14.6755   -7.2328   60.1726 H         1 YAP374      0.0000 
     37 H           9.8029   -6.9085   62.5896 H         1 YAP374      0.0000 
     38 H          10.7551   -8.4284   62.6829 H         1 YAP374      0.0000 
     39 H           8.9712   -4.2137   58.4105 H         1 YAP374      0.0000 
     40 H           8.1334   -2.8344   51.6792 H         1 YAP374      0.0000 
     41 H           7.7546   -0.5538   52.4947 H         1 YAP374      0.0000 
     42 H           6.1493   -0.5448   51.7445 H         1 YAP374      0.0000 
     43 H          12.6605   -4.3948   57.0786 H         1 YAP374      0.0000 
     44 H           9.8471   -4.6100   56.1969 H         1 YAP374      0.0000 
     45 H          10.3254   -3.3619   54.3488 H         1 YAP374      0.0000 
     46 H          11.8587   -1.5228   55.6088 H         1 YAP374      0.0000 
     47 H           9.5646   -1.0488   55.0885 H         1 YAP374      0.0000 
     48 H           9.8728   -0.7162   56.8015 H         1 YAP374      0.0000 
     49 H           9.7652   -1.2310   50.9141 H         1 YAP374      0.0000 
     50 H           6.0425    0.0953   49.3446 H         1 YAP374      0.0000 
     51 H          10.8469   -0.7098   48.7329 H         1 YAP374      0.0000 
     52 H           7.0930    0.5965   47.2200 H         1 YAP374      0.0000 
     53 H           5.4757   -2.4647   50.5437 H         1 YAP374      0.0000 
     54 H           6.7846   -3.1367   49.8946 H         1 YAP374      0.0000 
     55 H           5.9164   -3.9492   50.9773 H         1 YAP374      0.0000 
     56 H           8.9704    0.3493   45.8165 H         1 YAP374      0.0000 
     57 H          10.6547   -6.4645   55.6146 H         1 YAP374      0.0000 
     58 H          12.4387   -2.9657   53.7039 H         1 YAP374      0.0000 
@<TRIPOS>BOND
     1    3    1 2    
     2   15    1 1    
     3   27    1 1    
     4   15    2 1    
     5   53    2 1    
     6   54    2 1    
     7   55    2 1    
     8   21    4 ar   
     9   24    4 ar   
    10   27    4 1    
    11   31    4 1    
    12    6    5 ar   
    13   10    5 ar   
    14    7    6 ar   
    15   36    6 1    
    16    8    7 ar   
    17    9    8 ar   
    18   14    8 1    
    19   10    9 ar   
    20   12    9 1    
    21   11   10 1    
    22   37   11 1    
    23   38   11 1    
    24   13   12 2    
    25   14   13 1    
    26   39   13 1    
    27   20   14 1    
    28   16   15 1    
    29   40   15 1    
    30   17   16 1    
    31   41   16 1    
    32   42   16 1    
    33   32   17 ar   
    34   33   17 ar   
    35   19   18 1    
    36   56   18 1    
    37   34   19 ar   
    38   35   19 ar   
    39   22   20 1    
    40   29   20 1    
    41   43   20 1    
    42   23   22 1    
    43   25   22 1    
    44   44   22 1    
    45   57   23 1    
    46   26   25 1    
    47   28   25 1    
    48   45   25 1    
    49   58   26 1    
    50   29   28 1    
    51   30   28 1    
    52   46   28 1    
    53   31   30 1    
    54   47   30 1    
    55   48   30 1    
    56   34   32 ar   
    57   49   32 1    
    58   35   33 ar   
    59   50   33 1    
    60   51   34 1    
    61   52   35 1    
@<TRIPOS>SUBSTRUCTURE
     1 YAP374      1 GROUP   
@<TRIPOS>SET

