#    Name: 2ye7_2GA_1_INTS_M
#    Modification time : Tue Mar 25 08:44:57 2014

@<TRIPOS>MOLECULE
2ye7_2GA_1_INTS_M
   42     0     6     0     0
SMALL
NO_CHARGES


@<TRIPOS>ATOM
      1 CA         32.3350   11.0975   21.4020 C.3       2 GLC5        0.0000 
      2 CA         31.6830   12.4740   22.2590 C.3       6 GLL5        0.0000 
      3 CA         32.9870    9.7210   20.5450 C.3       4 GLP5        0.0000 
      4 CA         30.1575   10.9345   22.0670 C.3       2 GLC5        0.0000 
      5 CA         28.6320    9.3950   21.8750 C.3       4 GLP5        0.0000 
      6 CA         31.8255   14.4800   22.3445 C.3       2 GLC5        0.0000 
      7 CA         31.9680   16.4860   22.4300 C.3       4 GLP5        0.0000 
      8 N          29.5685   11.8990   24.3880 N.am      1 SEC2        0.0000 
      9 N          31.0680   11.7470   24.6310 N.am      5 SEL2        0.0000 
     10 N          28.0690   12.0510   24.1450 N.am      3 SEP2        0.0000 
     11 CA         31.2705    9.3575   25.6730 C.3       2 GLC5        0.0000 
     12 CA         32.8340   10.7960   25.3050 C.3       6 GLL5        0.0000 
     13 CA         29.7070    7.9190   26.0410 C.3       4 GLP5        0.0000 
     14 CA         36.0980   11.7215   21.7000 C.3       2 GLC5        0.0000 
     15 CA         34.5850   11.0140   23.1110 C.3       6 GLL5        0.0000 
     16 CA         37.6110   12.4290   20.2890 C.3       4 GLP5        0.0000 
     17 CA         34.6550   13.8870   26.2430 C.3       2 GLC5        0.0000 
     18 CA         35.0820   13.6740   24.5070 C.3       6 GLL5        0.0000 
     19 CA         34.2280   14.1000   27.9790 C.3       4 GLP5        0.0000 
     20 CA         34.3375   15.5900   25.3465 C.3       2 GLC5        0.0000 
     21 CA         33.5930   17.5060   26.1860 C.3       4 GLP5        0.0000 
     22 CA         33.0980   14.3315   25.2330 C.3       2 GLC5        0.0000 
     23 CA         31.1140   14.9890   25.9590 C.3       4 GLP5        0.0000 
     24 CA         35.6585   14.8120   26.9175 C.3       2 GLC5        0.0000 
     25 CA         37.0890   15.5240   25.8560 C.3       6 GLL5        0.0000 
     26 CA         37.3895   15.9725   23.9275 C.3       2 GLC5        0.0000 
     27 CA         37.6900   16.4210   21.9990 C.3       4 GLP5        0.0000 
     28 CA         35.3410   16.5150   26.0210 C.3       2 GLC5        0.0000 
     29 CA         38.0320   17.3820   26.0590 C.3       2 GLC5        0.0000 
     30 CA         38.9750   19.2400   26.2620 C.3       4 GLP5        0.0000 
     31 CA         38.8635   15.6310   23.8955 C.3       2 GLC5        0.0000 
     32 CA         38.8650   15.5160   25.9740 C.3       6 GLL5        0.0000 
     33 CA         38.8620   15.7460   21.8170 C.3       4 GLP5        0.0000 
     34 CA         39.5460   17.0675   25.9705 C.3       2 GLC5        0.0000 
     35 CA         40.2270   18.6190   25.9670 C.3       4 GLP5        0.0000 
     36 CA         34.3322   11.5415   26.9438 C.3       2 GLC5        0.0000 
     37 CA         33.7970   10.0500   26.2320 C.3       6 GLL5        0.0000 
     38 CA         35.3490   12.6600   28.1190 C.3       4 GLP5        0.0000 
     39 CA         33.4158   10.4172   22.0555 C.3       2 GLC5        0.0000 
     40 CA         33.1040   11.2130   24.0210 C.3       6 GLL5        0.0000 
     41 CA         37.6600   15.6165   27.7165 C.3       2 GLC5        0.0000 
     42 CA         37.3430   15.7130   29.5180 C.3       4 GLP5        0.0000 
@<TRIPOS>BOND
@<TRIPOS>SUBSTRUCTURE
     1 SEC2        8 GROUP        1 X    SEC  0     ROOT SEC X 2
     2 GLC5        1 GROUP        1 X    GLC  0     **** GLC X 6
     3 SEP2       10 GROUP        1 Y    SEP  0     ROOT SEP Y 9
     4 GLP5        3 GROUP        1 Y    GLP  0     **** GLP Y 13
     5 SEL2        9 GROUP        1 Z    SEL  0     ROOT SEL Z 16
     6 GLL5        2 GROUP        1 Z    GLL  0     **** GLL Z 20
@<TRIPOS>SET

