#    Name: 2ye7_2GA_1_ligand
#    Modification time : Tue Mar 25 08:44:57 2014

@<TRIPOS>MOLECULE
2ye7_2GA_1_ligand
   25    26     1     0     0
SMALL
NO_CHARGES


@<TRIPOS>ATOM
      1 C14        31.6830   12.4740   22.2590 C.3       1 2GA1224     0.0000 
      2 C10        31.9380   11.8240   23.6200 C.2       1 2GA1224     0.0000 
      3 N4         31.0680   11.7470   24.6310 N.2       1 2GA1224     0.0000 
      4 N8         31.5820   11.1580   25.5970 N.pl3     1 2GA1224     0.0000 
      5 C9         32.8340   10.7960   25.3050 C.2       1 2GA1224     0.0000 
      6 C13        33.7970   10.0500   26.2320 C.3       1 2GA1224     0.0000 
      7 C1         33.1040   11.2130   24.0210 C.2       1 2GA1224     0.0000 
      8 S11        34.5850   11.0140   23.1110 S.3       1 2GA1224     0.0000 
      9 C2         35.5960   12.1970   23.9120 C.2       1 2GA1224     0.0000 
     10 S3         35.0820   13.6740   24.5070 S.3       1 2GA1224     0.0000 
     11 N5         36.9100   12.0690   24.1490 N.2       1 2GA1224     0.0000 
     12 N7         37.4450   13.0320   24.7350 N.2       1 2GA1224     0.0000 
     13 C6         36.6240   14.0480   25.0380 C.2       1 2GA1224     0.0000 
     14 S12        37.0890   15.5240   25.8560 S.3       1 2GA1224     0.0000 
     15 C15        38.8650   15.5160   25.9740 C.3       1 2GA1224     0.0000 
     16 H          31.1644   10.9581   26.4850 H         1 2GA1224     0.0000 
     17 H          32.4813   12.4078   21.6604 H         1 2GA1224     0.0000 
     18 H          30.9197   12.0423   21.7784 H         1 2GA1224     0.0000 
     19 H          31.4622   13.4454   22.3469 H         1 2GA1224     0.0000 
     20 H          34.6834    9.8916   25.7970 H         1 2GA1224     0.0000 
     21 H          33.9709   10.5596   27.0747 H         1 2GA1224     0.0000 
     22 H          33.4376    9.1559   26.4991 H         1 2GA1224     0.0000 
     23 H          39.2970   15.4835   25.0727 H         1 2GA1224     0.0000 
     24 H          39.2103   16.3334   26.4352 H         1 2GA1224     0.0000 
     25 H          39.1995   14.7261   26.4880 H         1 2GA1224     0.0000 
@<TRIPOS>BOND
     1    2    1 1    
     2   17    1 1    
     3   18    1 1    
     4   19    1 1    
     5    3    2 2    
     6    7    2 1    
     7    4    3 1    
     8    5    4 1    
     9   16    4 1    
    10    6    5 1    
    11    7    5 2    
    12   20    6 1    
    13   21    6 1    
    14   22    6 1    
    15    8    7 1    
    16    9    8 1    
    17   10    9 1    
    18   11    9 2    
    19   13   10 1    
    20   12   11 1    
    21   13   12 2    
    22   14   13 1    
    23   15   14 1    
    24   23   15 1    
    25   24   15 1    
    26   25   15 1    
@<TRIPOS>SUBSTRUCTURE
     1 2GA1224     1 GROUP   
@<TRIPOS>SET

