#    Name: 1JDV_4_CAVITY_N1_6.mol2
#    Modification time : Tue Mar 11 10:23:25 2014

@<TRIPOS>MOLECULE
1JDV_4_CAVITY_N1_6.mol2
  106     0     6     0     0
SMALL
NO_CHARGES


@<TRIPOS>ATOM
      1 CA         24.0985    0.3787   89.3119 C.3       5 GLY6        0.0000 
      2 NZ         24.7275    0.1985   87.9622 N.2       3 LYS4        0.0000 
      3 NZ         22.4539   -2.6373   90.6154 N.2       3 LYS4        0.0000 
      4 N          21.5088   -1.6247   90.0397 N.2       2 ALA2        0.0000 
      5 NZ         23.0829   -2.8176   89.2656 N.2       3 LYS4        0.0000 
      6 DU         22.1378   -1.8050   88.6899 H         6 CUB7        0.0000 
      7 DU         21.1927   -0.7924   88.1142 H         6 CUB7        0.0000 
      8 NZ         24.6571   -4.0104   88.4915 N.2       3 LYS4        0.0000 
      9 NZ         23.7119   -2.9979   87.9159 N.2       3 LYS4        0.0000 
     10 NZ         22.7668   -1.9853   87.3402 N.2       3 LYS4        0.0000 
     11 DU         21.8217   -0.9727   86.7645 H         6 CUB7        0.0000 
     12 NZ         23.3958   -2.1656   85.9904 N.2       3 LYS4        0.0000 
     13 DU         22.4507   -1.1530   85.4147 H         6 CUB7        0.0000 
     14 NZ         24.0248   -2.3459   84.6406 N.2       3 LYS4        0.0000 
     15 NZ         24.6538   -2.5261   83.2909 N.2       3 LYS4        0.0000 
     16 OG         25.2828   -2.7064   81.9411 O.2       1 SER1        0.0000 
     17 N          20.5285   -2.7166   89.7287 N.2       2 ALA2        0.0000 
     18 NZ         22.1026   -3.9095   88.9546 N.2       3 LYS4        0.0000 
     19 CZ         21.1575   -2.8969   88.3789 C.ar      4 PHE5        0.0000 
     20 NZ         23.6767   -5.1023   88.1805 N.2       3 LYS4        0.0000 
     21 CZ         22.7316   -4.0897   87.6048 C.ar      4 PHE5        0.0000 
     22 N          25.2509   -6.2952   87.4065 N.2       2 ALA2        0.0000 
     23 CZ         24.3058   -5.2826   86.8308 C.ar      4 PHE5        0.0000 
     24 CZ         23.3606   -4.2700   86.2551 C.ar      4 PHE5        0.0000 
     25 O          25.8799   -6.4755   86.0567 O.2       2 ALA2        0.0000 
     26 NZ         24.9348   -5.4629   85.4810 N.2       3 LYS4        0.0000 
     27 NZ         23.9896   -4.4503   84.9053 N.2       3 LYS4        0.0000 
     28 CZ         23.0445   -3.4377   84.3296 C.ar      4 PHE5        0.0000 
     29 CA         22.0993   -2.4252   83.7539 C.3       5 GLY6        0.0000 
     30 OG         25.5638   -5.6432   84.1313 O.2       1 SER1        0.0000 
     31 NZ         24.6186   -4.6306   83.5556 N.2       3 LYS4        0.0000 
     32 NZ         23.6735   -3.6180   82.9799 N.2       3 LYS4        0.0000 
     33 CA         22.7284   -2.6055   82.4042 C.3       5 GLY6        0.0000 
     34 CA         21.6072  -12.1151   83.1519 C.3       5 GLY6        0.0000 
     35 NZ         23.1813  -13.3080   82.3778 N.2       3 LYS4        0.0000 
     36 O          22.2362  -12.2954   81.8021 O.2       2 ALA2        0.0000 
     37 CA         24.2353   -9.4915   87.3601 C.3       5 GLY6        0.0000 
     38 CZ         23.2902   -8.4789   86.7844 C.ar      4 PHE5        0.0000 
     39 CA         24.8643   -9.6718   86.0104 C.3       5 GLY6        0.0000 
     40 DU         23.9192   -8.6592   85.4347 H         6 CUB7        0.0000 
     41 CZ         22.9741   -7.6466   84.8590 C.ar      4 PHE5        0.0000 
     42 N          25.4934   -9.8521   84.6606 N.2       2 ALA2        0.0000 
     43 OG         24.5482   -8.8395   84.0849 O.2       1 SER1        0.0000 
     44 OG         23.6031   -7.8269   83.5092 O.2       1 SER1        0.0000 
     45 N          22.6579   -6.8144   82.9335 N.2       2 ALA2        0.0000 
     46 N          21.7128   -5.8018   82.3578 N.2       2 ALA2        0.0000 
     47 OG         24.2321   -8.0072   82.1595 O.2       1 SER1        0.0000 
     48 O          23.2870   -6.9946   81.5838 O.2       2 ALA2        0.0000 
     49 N          22.3418   -5.9821   81.0081 N.2       2 ALA2        0.0000 
     50 O          23.9160   -7.1749   80.2340 O.2       2 ALA2        0.0000 
     51 O          22.9708   -6.1624   79.6583 O.2       2 ALA2        0.0000 
     52 N          22.0257   -5.1498   79.0826 N.2       2 ALA2        0.0000 
     53 O          23.5998   -6.3426   78.3086 O.2       2 ALA2        0.0000 
     54 N          22.6547   -5.3301   77.7329 N.2       2 ALA2        0.0000 
     55 CA         22.3099   -9.5708   86.4734 C.3       5 GLY6        0.0000 
     56 O          23.8840  -10.7637   85.6994 O.2       2 ALA2        0.0000 
     57 CA         22.9389   -9.7511   85.1237 C.3       5 GLY6        0.0000 
     58 CZ         21.9937   -8.7385   84.5480 C.ar      4 PHE5        0.0000 
     59 N          21.0486   -7.7260   83.9723 N.2       2 ALA2        0.0000 
     60 N          24.5130  -10.9439   84.3496 N.2       2 ALA2        0.0000 
     61 DU         23.5679   -9.9314   83.7739 H         6 CUB7        0.0000 
     62 N          22.6227   -8.9188   83.1982 N.2       2 ALA2        0.0000 
     63 N          21.6776   -7.9062   82.6225 N.2       2 ALA2        0.0000 
     64 OG         25.1420  -11.1242   82.9998 O.2       1 SER1        0.0000 
     65 OG         24.1969  -10.1117   82.4242 O.2       1 SER1        0.0000 
     66 O          23.2517   -9.0991   81.8485 O.2       2 ALA2        0.0000 
     67 O          22.3066   -8.0865   81.2728 O.2       2 ALA2        0.0000 
     68 N          21.3615   -7.0740   80.6971 N.2       2 ALA2        0.0000 
     69 O          21.6744   -6.4219   77.4219 O.2       2 ALA2        0.0000 
     70 CA         22.9037  -11.8555   85.3884 C.3       5 GLY6        0.0000 
     71 CA         21.9585  -10.8430   84.8127 C.3       5 GLY6        0.0000 
     72 CA         21.0134   -9.8304   84.2370 C.3       5 GLY6        0.0000 
     73 NZ         23.5327  -12.0358   84.0386 N.2       3 LYS4        0.0000 
     74 DU         22.5875  -11.0233   83.4629 H         6 CUB7        0.0000 
     75 N          21.6424  -10.0107   82.8872 N.2       2 ALA2        0.0000 
     76 NZ         24.1617  -12.2161   82.6888 N.2       3 LYS4        0.0000 
     77 O          23.2165  -11.2035   82.1131 O.2       2 ALA2        0.0000 
     78 O          24.7907  -12.3964   81.3391 O.2       2 ALA2        0.0000 
     79 CA         23.4343   -1.5454   90.9264 C.3       5 GLY6        0.0000 
     80 N          22.4891   -0.5328   90.3507 N.2       2 ALA2        0.0000 
     81 CA         24.0633   -1.7257   89.5766 C.3       5 GLY6        0.0000 
     82 CA         23.1181   -0.7131   89.0009 C.3       5 GLY6        0.0000 
     83 NZ         23.7472   -0.8934   87.6512 N.2       3 LYS4        0.0000 
     84 OG         25.2476   -4.8109   82.2058 O.2       1 SER1        0.0000 
     85 OG         24.3025   -3.7983   81.6301 O.2       1 SER1        0.0000 
     86 CA         23.3574   -2.7857   81.0544 C.3       5 GLY6        0.0000 
     87 OG         25.8766   -4.9912   80.8560 O.2       1 SER1        0.0000 
     88 OG         24.9315   -3.9786   80.2804 O.2       1 SER1        0.0000 
     89 NZ         23.6415   -7.2068   88.4452 N.2       3 LYS4        0.0000 
     90 CZ         24.2705   -7.3870   87.0955 C.ar      4 PHE5        0.0000 
     91 N          25.8447   -8.5799   86.3214 N.2       2 ALA2        0.0000 
     92 DU         24.8996   -7.5673   85.7457 H         6 CUB7        0.0000 
     93 CZ         23.9544   -6.5548   85.1700 C.ar      4 PHE5        0.0000 
     94 CZ         23.0093   -5.5422   84.5943 C.ar      4 PHE5        0.0000 
     95 OG         25.5286   -7.7476   84.3959 O.2       1 SER1        0.0000 
     96 OG         24.5834   -6.7350   83.8202 O.2       1 SER1        0.0000 
     97 DU         23.6383   -5.7225   83.2446 H         6 CUB7        0.0000 
     98 CA         22.6932   -4.7099   82.6689 C.3       5 GLY6        0.0000 
     99 OG         24.2673   -5.9028   81.8948 O.2       1 SER1        0.0000 
    100 DU         23.3222   -4.8902   81.3191 H         6 CUB7        0.0000 
    101 CA         22.3770   -3.8776   80.7434 C.3       5 GLY6        0.0000 
    102 OG         24.8963   -6.0830   80.5450 O.2       1 SER1        0.0000 
    103 DU         23.9512   -5.0705   79.9693 H         6 CUB7        0.0000 
    104 N          23.0060   -4.0579   79.3937 N.2       2 ALA2        0.0000 
    105 CA         25.5253   -6.2633   79.1953 C.3       5 GLY6        0.0000 
    106 DU         24.5802   -5.2508   78.6196 H         6 CUB7        0.0000 
@<TRIPOS>BOND
@<TRIPOS>SUBSTRUCTURE
     1 SER1       16 GROUP   
     2 ALA2        4 GROUP   
     3 LYS4        2 GROUP   
     4 PHE5       19 GROUP   
     5 GLY6        1 GROUP   
     6 CUB7        6 GROUP   
@<TRIPOS>SET

