#    Name: 1jdv_ADN_4_INTS_M
#    Modification time : Tue Mar 25 08:47:30 2014

@<TRIPOS>MOLECULE
1jdv_ADN_4_INTS_M
   48     0     9     0     0
SMALL
NO_CHARGES


@<TRIPOS>ATOM
      1 N          20.5640   -7.7490   82.5000 N.am      2 SEC2        0.0000 
      2 N          21.9230   -7.7860   82.8190 N.am      8 SEL2        0.0000 
      3 N          19.2050   -7.7120   82.1810 N.am      5 SEP2        0.0000 
      4 CA         21.3995   -7.4095   84.9835 C.3       3 GLC5        0.0000 
      5 CA         21.7660   -8.9000   83.6850 C.3       9 GLL5        0.0000 
      6 CA         21.0330   -5.9190   86.2820 C.3       6 GLP5        0.0000 
      7 CA         21.0885   -9.9805   85.5090 C.3       3 GLC5        0.0000 
      8 CA         20.4110  -11.0610   87.3330 C.3       6 GLP5        0.0000 
      9 CA         20.1905   -8.4315   82.3255 C.3       3 GLC5        0.0000 
     10 CA         18.6150   -7.9630   80.9660 C.3       6 GLP5        0.0000 
     11 CA         20.6975  -12.1020   84.1290 C.3       3 GLC5        0.0000 
     12 CA         22.6550  -11.2420   84.1170 C.3       9 GLL5        0.0000 
     13 CA         18.7400  -12.9620   84.1410 C.3       6 GLP5        0.0000 
     14 CA         21.5330  -11.1515   85.7250 C.3       3 GLC5        0.0000 
     15 O          23.6290  -13.6915   84.0305 O.2       1 ALC1        0.0000 
     16 O          22.8190  -12.4820   83.3150 O.2       7 ALL1        0.0000 
     17 O          24.4390  -14.9010   84.7460 O.2       4 ALP1        0.0000 
     18 O          22.5325  -13.6695   84.0890 O.2       1 ALC1        0.0000 
     19 O          22.2460  -14.8570   84.8630 O.2       4 ALP1        0.0000 
     20 CA         25.0470  -10.9810   86.8245 C.3       3 GLC5        0.0000 
     21 CA         23.9060  -10.9660   85.0500 C.3       9 GLL5        0.0000 
     22 CA         26.1880  -10.9960   88.5990 C.3       6 GLP5        0.0000 
     23 CA         22.8860  -11.3385   86.6370 C.3       3 GLC5        0.0000 
     24 CA         21.8660  -11.7110   88.2240 C.3       6 GLP5        0.0000 
     25 N          24.6475  -12.5110   86.7285 N.am      2 SEC2        0.0000 
     26 N          24.6850  -12.1780   85.2720 N.am      8 SEL2        0.0000 
     27 N          24.6100  -12.8440   88.1850 N.am      5 SEP2        0.0000 
     28 O          24.5620  -13.5395   85.0090 O.2       1 ALC1        0.0000 
     29 O          24.6850  -12.1780   85.2720 O.2       7 ALL1        0.0000 
     30 CA         26.9585   -7.2205   86.1605 C.3       3 GLC5        0.0000 
     31 CA         24.8540   -6.7320   86.5480 C.3       9 GLL5        0.0000 
     32 CA         29.0630   -7.7090   85.7730 C.3       6 GLP5        0.0000 
     33 CA         25.4860   -6.3155   89.3970 C.3       3 GLC5        0.0000 
     34 CA         24.4440   -6.0790   87.7500 C.3       9 GLL5        0.0000 
     35 CA         26.5280   -6.5520   91.0440 C.3       6 GLP5        0.0000 
     36 O          25.5185   -3.6195   87.4945 O.2       1 ALC1        0.0000 
     37 O          24.8020   -4.8240   88.0180 O.2       7 ALL1        0.0000 
     38 O          26.2350   -2.4150   86.9710 O.2       4 ALP1        0.0000 
     39 N          23.1105   -6.2110   89.8785 N.am      2 SEC2        0.0000 
     40 N          23.6530   -6.8060   88.6370 N.am      8 SEL2        0.0000 
     41 N          22.5680   -5.6160   91.1200 N.am      5 SEP2        0.0000 
     42 CA         24.3035   -8.3200   90.1325 C.3       3 GLC5        0.0000 
     43 CA         23.2930   -8.0830   88.3520 C.3       9 GLL5        0.0000 
     44 CA         25.3140   -8.5570   91.9130 C.3       6 GLP5        0.0000 
     45 CA         24.7405   -9.5395   88.4755 C.3       3 GLC5        0.0000 
     46 CA         22.5795   -9.8970   88.2880 C.3       3 GLC5        0.0000 
     47 CA         25.2970   -9.5245   87.4895 C.3       3 GLC5        0.0000 
     48 CA         24.4060   -8.0530   86.3800 C.3       9 GLL5        0.0000 
@<TRIPOS>BOND
@<TRIPOS>SUBSTRUCTURE
     1 ALC1       15 GROUP        1 X    ALC  0     ROOT ALC X 1
     2 SEC2        1 GROUP        1 X    SEC  0     **** SEC X 2
     3 GLC5        4 GROUP        1 X    GLC  0     **** GLC X 6
     4 ALP1       17 GROUP        1 Y    ALP  0     ROOT ALP Y 8
     5 SEP2        3 GROUP        1 Y    SEP  0     **** SEP Y 9
     6 GLP5        6 GROUP        1 Y    GLP  0     **** GLP Y 13
     7 ALL1       16 GROUP        1 Z    ALL  0     ROOT ALL Z 15
     8 SEL2        2 GROUP        1 Z    SEL  0     **** SEL Z 16
     9 GLL5        5 GROUP        1 Z    GLL  0     **** GLL Z 20
@<TRIPOS>SET

