#    Name: 1jdv_ADN_4_ligand
#    Modification time : Tue Mar 25 08:47:30 2014

@<TRIPOS>MOLECULE
1jdv_ADN_4_ligand
   32    34     1     0     0
SMALL
NO_CHARGES


@<TRIPOS>ATOM
      1 O5'        21.9230   -7.7860   82.8190 O.3       1 ADN4260     0.0000 
      2 C5'        21.7660   -8.9000   83.6850 C.3       1 ADN4260     0.0000 
      3 C4'        22.6710  -10.0320   83.2110 C.3       1 ADN4260     0.0000 
      4 O4'        24.0450   -9.5380   83.1640 O.3       1 ADN4260     0.0000 
      5 C3'        22.6550  -11.2420   84.1170 C.3       1 ADN4260     0.0000 
      6 O3'        22.8190  -12.4820   83.3150 O.3       1 ADN4260     0.0000 
      7 C2'        23.9060  -10.9660   85.0500 C.3       1 ADN4260     0.0000 
      8 O2'        24.6850  -12.1780   85.2720 O.3       1 ADN4260     0.0000 
      9 C1'        24.7710   -9.8380   84.3800 C.3       1 ADN4260     0.0000 
     10 N9         24.9090   -8.4740   85.1620 N.pl3     1 ADN4260     0.0000 
     11 C8         25.6240   -7.3860   84.6820 C.2       1 ADN4260     0.0000 
     12 N7         25.6160   -6.3340   85.4730 N.2       1 ADN4260     0.0000 
     13 C5         24.8540   -6.7320   86.5480 C.ar      1 ADN4260     0.0000 
     14 C6         24.4440   -6.0790   87.7500 C.ar      1 ADN4260     0.0000 
     15 N6         24.8020   -4.8240   88.0180 N.pl3     1 ADN4260     0.0000 
     16 N1         23.6530   -6.8060   88.6370 N.ar      1 ADN4260     0.0000 
     17 C2         23.2930   -8.0830   88.3520 C.ar      1 ADN4260     0.0000 
     18 N3         23.6230   -8.7920   87.2440 N.ar      1 ADN4260     0.0000 
     19 C4         24.4060   -8.0530   86.3800 C.ar      1 ADN4260     0.0000 
     20 H          20.7372   -9.2746   83.6893 H         1 ADN4260     0.0000 
     21 H          22.0438   -8.6601   84.7165 H         1 ADN4260     0.0000 
     22 H          22.3669  -10.3307   82.2192 H         1 ADN4260     0.0000 
     23 H          21.7999  -11.2299   84.7098 H         1 ADN4260     0.0000 
     24 H          23.5200  -10.5629   85.9754 H         1 ADN4260     0.0000 
     25 H          25.7273  -10.2203   84.1489 H         1 ADN4260     0.0000 
     26 H          26.0977   -7.4337   83.7967 H         1 ADN4260     0.0000 
     27 H          25.3599   -4.3680   87.3246 H         1 ADN4260     0.0000 
     28 H          24.4806   -4.4511   88.8884 H         1 ADN4260     0.0000 
     29 H          22.6758   -8.5903   89.0888 H         1 ADN4260     0.0000 
     30 H          22.6366   -8.0586   82.1736 H         1 ADN4260     0.0000 
     31 H          22.6022  -13.2279   83.9447 H         1 ADN4260     0.0000 
     32 H          24.1437  -12.9121   84.8621 H         1 ADN4260     0.0000 
@<TRIPOS>BOND
     1    2    1 1    
     2   30    1 1    
     3    3    2 1    
     4   20    2 1    
     5   21    2 1    
     6    4    3 1    
     7    5    3 1    
     8   22    3 1    
     9    9    4 1    
    10    6    5 1    
    11    7    5 1    
    12   23    5 1    
    13   31    6 1    
    14    8    7 1    
    15    9    7 1    
    16   24    7 1    
    17   32    8 1    
    18   10    9 1    
    19   25    9 1    
    20   11   10 1    
    21   19   10 1    
    22   12   11 2    
    23   26   11 1    
    24   13   12 1    
    25   14   13 ar   
    26   19   13 ar   
    27   15   14 1    
    28   16   14 ar   
    29   27   15 1    
    30   28   15 1    
    31   17   16 ar   
    32   18   17 ar   
    33   29   17 1    
    34   19   18 ar   
@<TRIPOS>SUBSTRUCTURE
     1 ADN4260     1 GROUP   
@<TRIPOS>SET

