#    Name: 1qhs_CLM_1_INTS_M
#    Modification time : Mon Mar 24 23:28:29 2014

@<TRIPOS>MOLECULE
1qhs_CLM_1_INTS_M
   48     0     9     0     0
SMALL
NO_CHARGES


@<TRIPOS>ATOM
      1 CA         11.2840   56.1335   33.1500 C.3       3 GLC5        0.0000 
      2 CA         10.1740   54.9360   32.6830 C.3       9 GLL5        0.0000 
      3 CA         12.3940   57.3310   33.6170 C.3       6 GLP5        0.0000 
      4 O          11.0720   51.4650   34.2665 O.2       1 ALC1        0.0000 
      5 O          12.0600   51.9580   33.4100 O.2       7 ALL1        0.0000 
      6 O          10.0840   50.9720   35.1230 O.2       4 ALP1        0.0000 
      7 CA         14.3020   51.6055   31.6350 C.3       3 GLC5        0.0000 
      8 CA         13.3850   51.2900   33.3220 C.3       9 GLL5        0.0000 
      9 CA         15.2190   51.9210   29.9480 C.3       6 GLP5        0.0000 
     10 CA         14.9730   49.1705   33.0860 C.3       3 GLC5        0.0000 
     11 CA         13.3950   50.0410   34.2590 C.3       9 GLL5        0.0000 
     12 CA         16.5510   48.3000   31.9130 C.3       6 GLP5        0.0000 
     13 CA         14.1320   49.1075   35.9700 C.3       3 GLC5        0.0000 
     14 CA         14.8690   48.1740   37.6810 C.3       6 GLP5        0.0000 
     15 O          11.1770   50.0620   34.5290 O.2       1 ALC1        0.0000 
     16 O          12.2700   49.1520   33.9350 O.2       7 ALL1        0.0000 
     17 O          11.0065   49.1045   34.0145 O.2       1 ALC1        0.0000 
     18 O           9.7430   49.0570   34.0940 O.2       4 ALP1        0.0000 
     19 CA         15.3260   52.8305   32.0270 C.3       3 GLC5        0.0000 
     20 CA         14.5710   52.3000   33.6290 C.3       9 GLL5        0.0000 
     21 CA         16.0810   53.3610   30.4250 C.3       6 GLP5        0.0000 
     22 N          17.2000   51.4585   33.5335 N.am      2 SEC2        0.0000 
     23 N          15.7750   51.5780   33.3630 N.am      8 SEL2        0.0000 
     24 N          18.6250   51.3390   33.7040 N.am      5 SEP2        0.0000 
     25 CA         15.7310   50.6005   38.0240 C.3       3 GLC5        0.0000 
     26 CA         15.5980   52.4230   37.4030 C.3       9 GLL5        0.0000 
     27 CA         15.8640   48.7780   38.6450 C.3       6 GLP5        0.0000 
     28 CA         16.4195   50.5080   37.0105 C.3       3 GLC5        0.0000 
     29 CA         15.6070   52.0810   36.0390 C.3       9 GLL5        0.0000 
     30 CA         17.2320   48.9350   37.9820 C.3       6 GLP5        0.0000 
     31 CA         10.1445   54.5823   34.6430 C.3       3 GLC5        0.0000 
     32 CA         10.0680   53.2370   32.6350 C.3       9 GLL5        0.0000 
     33 CA         10.1680   55.0780   36.6270 C.3       6 GLP5        0.0000 
     34 CA         11.9005   54.4240   36.4988 C.3       3 GLC5        0.0000 
     35 CA         13.6300   53.6030   35.6820 C.3       9 GLL5        0.0000 
     36 CA         13.2090   55.6320   36.6453 C.3       3 GLC5        0.0000 
     37 CA         13.6360   53.9370   37.0590 C.3       9 GLL5        0.0000 
     38 CA         12.7850   57.4940   36.9200 C.3       6 GLP5        0.0000 
     39 CA         15.1585   55.1270   36.3402 C.3       3 GLC5        0.0000 
     40 CA         16.6840   56.4840   36.3100 C.3       6 GLP5        0.0000 
     41 CA         12.8295   52.9255   38.5297 C.3       3 GLC5        0.0000 
     42 CA         11.5480   52.2020   39.5900 C.3       6 GLP5        0.0000 
     43 CA         15.8880   54.6880   36.9757 C.3       3 GLC5        0.0000 
     44 CA         14.5860   53.3610   37.8800 C.3       9 GLL5        0.0000 
     45 CA         16.6195   53.5105   38.4363 C.3       3 GLC5        0.0000 
     46 CA         18.1470   54.1290   39.2310 C.3       6 GLP5        0.0000 
     47 CA         16.3205   53.8651   34.6968 C.3       3 GLC5        0.0000 
     48 CA         17.5350   55.4540   34.1830 C.3       6 GLP5        0.0000 
@<TRIPOS>BOND
@<TRIPOS>SUBSTRUCTURE
     1 ALC1        4 GROUP        1 X    ALC  0     ROOT ALC X 1
     2 SEC2       22 GROUP        1 X    SEC  0     **** SEC X 2
     3 GLC5        1 GROUP        1 X    GLC  0     **** GLC X 6
     4 ALP1        6 GROUP        1 Y    ALP  0     ROOT ALP Y 8
     5 SEP2       24 GROUP        1 Y    SEP  0     **** SEP Y 9
     6 GLP5        3 GROUP        1 Y    GLP  0     **** GLP Y 13
     7 ALL1        5 GROUP        1 Z    ALL  0     ROOT ALL Z 15
     8 SEL2       23 GROUP        1 Z    SEL  0     **** SEL Z 16
     9 GLL5        2 GROUP        1 Z    GLL  0     **** GLL Z 20
@<TRIPOS>SET

