#    Name: 1qhs_CLM_1_ligand
#    Modification time : Mon Mar 24 23:28:29 2014

@<TRIPOS>MOLECULE
1qhs_CLM_1_ligand
   32    32     1     0     0
SMALL
NO_CHARGES


@<TRIPOS>ATOM
      1 C1         10.0680   53.2370   32.6350 C.3       1 CLM999      0.0000 
      2 CL1        10.1740   54.9360   32.6830 Cl        1 CLM999      0.0000 
      3 CL2         9.0900   52.8380   31.2120 Cl        1 CLM999      0.0000 
      4 C2         11.5170   52.6220   32.3400 C.2       1 CLM999      0.0000 
      5 O2         12.0020   52.7710   31.2270 O.2       1 CLM999      0.0000 
      6 N2         12.0600   51.9580   33.4100 N.am      1 CLM999      0.0000 
      7 C3         13.3850   51.2900   33.3220 C.3       1 CLM999      0.0000 
      8 C4         13.3950   50.0410   34.2590 C.3       1 CLM999      0.0000 
      9 O4         12.2700   49.1520   33.9350 O.3       1 CLM999      0.0000 
     10 C5         14.5710   52.3000   33.6290 C.3       1 CLM999      0.0000 
     11 O5         15.7750   51.5780   33.3630 O.3       1 CLM999      0.0000 
     12 C6         14.6390   52.6430   35.1350 C.ar      1 CLM999      0.0000 
     13 C7         13.6300   53.6030   35.6820 C.ar      1 CLM999      0.0000 
     14 C8         13.6360   53.9370   37.0590 C.ar      1 CLM999      0.0000 
     15 C9         14.5860   53.3610   37.8800 C.ar      1 CLM999      0.0000 
     16 N9         14.6860   53.6250   39.3570 N.pl3     1 CLM999      0.0000 
     17 O9A        14.0970   54.5760   39.8160 O.2       1 CLM999      0.0000 
     18 O9B        15.3690   52.8270   40.0330 O.2       1 CLM999      0.0000 
     19 C10        15.5980   52.4230   37.4030 C.ar      1 CLM999      0.0000 
     20 C11        15.6070   52.0810   36.0390 C.ar      1 CLM999      0.0000 
     21 H           9.6163   52.8785   33.4243 H         1 CLM999      0.0000 
     22 H          11.5777   51.8928   34.3160 H         1 CLM999      0.0000 
     23 H          13.5328   50.9260   32.2995 H         1 CLM999      0.0000 
     24 H          13.3317   50.3996   35.2861 H         1 CLM999      0.0000 
     25 H          14.3503   49.5347   34.1224 H         1 CLM999      0.0000 
     26 H          14.4655   53.1491   33.0594 H         1 CLM999      0.0000 
     27 H          12.9578   53.9949   35.0402 H         1 CLM999      0.0000 
     28 H          12.9461   54.5911   37.4209 H         1 CLM999      0.0000 
     29 H          16.2618   52.0441   38.0537 H         1 CLM999      0.0000 
     30 H          16.3028   51.4276   35.6721 H         1 CLM999      0.0000 
     31 H          11.4570   49.6341   34.2615 H         1 CLM999      0.0000 
     32 H          15.6486   50.6914   33.8078 H         1 CLM999      0.0000 
@<TRIPOS>BOND
     1    2    1 1    
     2    3    1 1    
     3    4    1 1    
     4   21    1 1    
     5    5    4 2    
     6    6    4 am   
     7    7    6 1    
     8   22    6 1    
     9    8    7 1    
    10   10    7 1    
    11   23    7 1    
    12    9    8 1    
    13   24    8 1    
    14   25    8 1    
    15   31    9 1    
    16   11   10 1    
    17   12   10 1    
    18   26   10 1    
    19   32   11 1    
    20   13   12 ar   
    21   20   12 ar   
    22   14   13 ar   
    23   27   13 1    
    24   15   14 ar   
    25   28   14 1    
    26   16   15 1    
    27   19   15 ar   
    28   17   16 2    
    29   18   16 2    
    30   20   19 ar   
    31   29   19 1    
    32   30   20 1    
@<TRIPOS>SUBSTRUCTURE
     1 CLM999      1 GROUP   
@<TRIPOS>SET

