#    Name: 1maq_PGU_1_INTS_M
#    Modification time : Mon Apr  7 14:34:10 2014

@<TRIPOS>MOLECULE
1maq_PGU_1_INTS_M
   89     0    12     0     0
SMALL
NO_CHARGES


@<TRIPOS>ATOM
      1 N          42.9535   16.9940   45.8350 N.am      2 SEC2        0.0000 
      2 N          43.5090   15.9100   45.0340 N.am     10 SEL2        0.0000 
      3 N          42.3980   18.0780   46.6360 N.am      6 SEP2        0.0000 
      4 CA         45.2080   17.3665   45.1165 C.3       4 GLC5        0.0000 
      5 CA         45.0760   16.2390   46.9050 C.3      12 GLL5        0.0000 
      6 CA         45.3400   18.4940   43.3280 C.3       8 GLP5        0.0000 
      7 CA         47.0975   16.0895   47.6145 C.3       4 GLC5        0.0000 
      8 CA         49.1190   15.9400   48.3240 C.3       8 GLP5        0.0000 
      9 CA         45.8345   14.3595   47.7045 C.3       4 GLC5        0.0000 
     10 CA         46.5930   12.4800   48.5040 C.3       8 GLP5        0.0000 
     11 N          47.9940   14.8625   45.7320 N.am      2 SEC2        0.0000 
     12 N          46.7740   14.4870   45.4580 N.am     10 SEL2        0.0000 
     13 N          49.2140   15.2380   46.0060 N.am      6 SEP2        0.0000 
     14 O          47.2710   13.2730   45.9555 O.2       1 ALC1        0.0000 
     15 O          46.7740   14.4870   45.4580 O.2       9 ALL1        0.0000 
     16 O          47.7680   12.0590   46.4530 O.2       5 ALP1        0.0000 
     17 CA         46.0270   15.0080   42.1185 C.3       4 GLC5        0.0000 
     18 CA         46.1400   13.3350   42.9700 C.3      12 GLL5        0.0000 
     19 CA         45.9140   16.6810   41.2670 C.3       8 GLP5        0.0000 
     20 CA         41.9155   17.0255   43.6890 C.3       4 GLC5        0.0000 
     21 CA         43.1090   15.4280   43.8490 C.3      12 GLL5        0.0000 
     22 CA         40.7220   18.6230   43.5290 C.3       8 GLP5        0.0000 
     23 CA         41.3005   14.0095   42.0320 C.3       4 GLC5        0.0000 
     24 CA         43.5040   14.0840   41.7880 C.3      12 GLL5        0.0000 
     25 CA         39.0970   13.9350   42.2760 C.3       8 GLP5        0.0000 
     26 CA         44.0705   15.6365   41.6155 C.3       4 GLC5        0.0000 
     27 CA         44.6370   17.1890   41.4430 C.3       8 GLP5        0.0000 
     28 NZ         41.7310   12.7230   38.3800 N.4       3 LYC4        0.0000 
     29 NZ         42.0810   13.2690   39.7360 N.4      11 LYL4        0.0000 
     30 NZ         41.2020   10.8760   36.7560 N.4       7 LYP4        0.0000 
     31 N          40.9820   14.3270   40.0915 N.am      2 SEC2        0.0000 
     32 N          42.0810   13.2690   39.7360 N.am     10 SEL2        0.0000 
     33 N          39.8830   15.3850   40.4470 N.am      6 SEP2        0.0000 
     34 N          42.1430   14.5650   39.3735 N.am      2 SEC2        0.0000 
     35 N          42.2050   15.8610   39.0110 N.am      6 SEP2        0.0000 
     36 N          41.7310   12.7230   38.3800 N.am      2 SEC2        0.0000 
     37 N          41.3810   12.1770   37.0240 N.am      6 SEP2        0.0000 
     38 N          40.3555   10.6905   40.5195 N.am      2 SEC2        0.0000 
     39 N          41.1950   11.3720   41.0940 N.am     10 SEL2        0.0000 
     40 N          39.5160   10.0090   39.9450 N.am      6 SEP2        0.0000 
     41 N          40.0145   12.0910   41.2410 N.am      2 SEC2        0.0000 
     42 N          38.8340   12.8100   41.3880 N.am      6 SEP2        0.0000 
     43 N          40.9775   10.6590   42.3415 N.am      2 SEC2        0.0000 
     44 N          40.7600    9.9460   43.5890 N.am      6 SEP2        0.0000 
     45 NZ         42.4705   10.6015   38.7810 N.4       3 LYC4        0.0000 
     46 NZ         43.3960   11.2100   39.8690 N.4      11 LYL4        0.0000 
     47 N          42.4705   10.6015   38.7810 N.am      2 SEC2        0.0000 
     48 N          43.3960   11.2100   39.8690 N.am     10 SEL2        0.0000 
     49 N          41.5450    9.9930   37.6930 N.am      6 SEP2        0.0000 
     50 CA         47.6550   15.0110   42.3540 C.3       4 GLC5        0.0000 
     51 CA         48.3910   12.9240   42.5610 C.3      12 GLL5        0.0000 
     52 CA         46.9190   17.0980   42.1470 C.3       8 GLP5        0.0000 
     53 CA         50.7055   13.6850   39.8880 C.3       4 GLC5        0.0000 
     54 CA         48.8850   12.8040   40.1030 C.3      12 GLL5        0.0000 
     55 CA         52.5260   14.5660   39.6730 C.3       8 GLP5        0.0000 
     56 CA         49.3420   13.1325   38.3020 C.3       4 GLC5        0.0000 
     57 CA         49.7990   13.4610   36.5010 C.3       8 GLP5        0.0000 
     58 N          48.4895   15.9725   41.1295 N.am      2 SEC2        0.0000 
     59 N          48.7270   15.1600   40.0290 N.am     10 SEL2        0.0000 
     60 N          48.2520   16.7850   42.2300 N.am      6 SEP2        0.0000 
     61 NZ         51.2315   14.5140   44.2455 N.4       3 LYC4        0.0000 
     62 NZ         50.1830   14.0910   43.6580 N.4      11 LYL4        0.0000 
     63 NZ         53.3760   14.4480   44.2470 N.4       7 LYP4        0.0000 
     64 N          49.6985   14.6645   44.8320 N.am      2 SEC2        0.0000 
     65 N          50.1830   14.0910   43.6580 N.am     10 SEL2        0.0000 
     66 N          51.2315   14.5140   44.2455 N.am      2 SEC2        0.0000 
     67 N          52.2800   14.9370   44.8330 N.am      6 SEP2        0.0000 
     68 N          51.7385   14.0220   43.3320 N.am      2 SEC2        0.0000 
     69 N          53.2940   13.9530   43.0060 N.am      6 SEP2        0.0000 
     70 NZ         51.7385   14.0220   43.3320 N.4       3 LYC4        0.0000 
     71 NZ         50.7340   12.4930   42.2050 N.4      11 LYL4        0.0000 
     72 N          51.2250   11.0645   42.2780 N.am      2 SEC2        0.0000 
     73 N          50.7340   12.4930   42.2050 N.am     10 SEL2        0.0000 
     74 N          51.7160    9.6360   42.3510 N.am      6 SEP2        0.0000 
     75 N          52.0140   13.2230   42.6055 N.am      2 SEC2        0.0000 
     76 CA         43.8197   14.2413   46.5998 C.3       4 GLC5        0.0000 
     77 CA         44.7090   15.6220   45.5840 C.3      12 GLL5        0.0000 
     78 CA         42.7470   12.5520   46.9550 C.3       8 GLP5        0.0000 
     79 CA         44.0737   13.5205   45.6110 C.3       4 GLC5        0.0000 
     80 CA         45.5790   14.7580   44.8730 C.3      12 GLL5        0.0000 
     81 CA         45.7160   11.7728   43.6618 C.3       4 GLC5        0.0000 
     82 CA         45.2220   14.2200   43.6610 C.3      12 GLL5        0.0000 
     83 CA         45.7510    9.7680   44.0080 C.3       8 GLP5        0.0000 
     84 CA         43.1337   13.7765   45.2338 C.3       4 GLC5        0.0000 
     85 CA         43.9320   14.5740   43.1760 C.3      12 GLL5        0.0000 
     86 CA         47.0362   11.1330   42.9677 C.3       4 GLC5        0.0000 
     87 CA         49.7058   10.8595   40.1403 C.3       4 GLC5        0.0000 
     88 CA         48.2520   12.0720   41.2940 C.3      12 GLL5        0.0000 
     89 CA         50.8430    9.2810   39.5820 C.3       8 GLP5        0.0000 
@<TRIPOS>BOND
@<TRIPOS>SUBSTRUCTURE
     1 ALC1       14 GROUP        1 X    ALC  0     ROOT ALC X 1
     2 SEC2        1 GROUP        1 X    SEC  0     **** SEC X 2
     3 LYC4       28 GROUP        1 X    LYC  0     **** LYC X 4
     4 GLC5        4 GROUP        1 X    GLC  0     **** GLC X 6
     5 ALP1       16 GROUP        1 Y    ALP  0     ROOT ALP Y 8
     6 SEP2        3 GROUP        1 Y    SEP  0     **** SEP Y 9
     7 LYP4       30 GROUP        1 Y    LYP  0     **** LYP Y 11
     8 GLP5        6 GROUP        1 Y    GLP  0     **** GLP Y 13
     9 ALL1       15 GROUP        1 Z    ALL  0     ROOT ALL Z 15
    10 SEL2        2 GROUP        1 Z    SEL  0     **** SEL Z 16
    11 LYL4       29 GROUP        1 Z    LYL  0     **** LYL Z 18
    12 GLL5        5 GROUP        1 Z    GLL  0     **** GLL Z 20
@<TRIPOS>SET

