#    Name: 1maq_PGU_1_ligand
#    Modification time : Mon Apr  7 14:34:10 2014

@<TRIPOS>MOLECULE
1maq_PGU_1_ligand
   39    39     1     0     0
SMALL
NO_CHARGES


@<TRIPOS>ATOM
      1 N1         43.5090   15.9100   45.0340 N.ar      1 PGU412      0.0000 
      2 C2         44.7090   15.6220   45.5840 C.ar      1 PGU412      0.0000 
      3 C2A        45.0760   16.2390   46.9050 C.3       1 PGU412      0.0000 
      4 C3         45.5790   14.7580   44.8730 C.ar      1 PGU412      0.0000 
      5 O3         46.7740   14.4870   45.4580 O.3       1 PGU412      0.0000 
      6 C4         45.2220   14.2200   43.6610 C.ar      1 PGU412      0.0000 
      7 C4A        46.1400   13.3350   42.9700 C.3       1 PGU412      0.0000 
      8 C5         43.9320   14.5740   43.1760 C.ar      1 PGU412      0.0000 
      9 C6         43.1090   15.4280   43.8490 C.ar      1 PGU412      0.0000 
     10 C5A        43.5040   14.0840   41.7880 C.3       1 PGU412      0.0000 
     11 O4P        43.1100   12.7290   41.8390 O.3       1 PGU412      0.0000 
     12 P          42.3670   12.1240   40.5870 P.3       1 PGU412      0.0000 
     13 O1P        42.0810   13.2690   39.7360 O.co2     1 PGU412      0.0000 
     14 O2P        41.1950   11.3720   41.0940 O.co2     1 PGU412      0.0000 
     15 O3P        43.3960   11.2100   39.8690 O.co2     1 PGU412      0.0000 
     16 N          47.3900   13.4730   43.2410 N.4       1 PGU412      0.0000 
     17 CA         48.3910   12.9240   42.5610 C.3       1 PGU412      0.0000 
     18 CB         48.2520   12.0720   41.2940 C.3       1 PGU412      0.0000 
     19 CG         48.8850   12.8040   40.1030 C.3       1 PGU412      0.0000 
     20 CD         48.1010   14.0300   39.7660 C.2       1 PGU412      0.0000 
     21 OE1        46.9780   13.9610   39.3150 O.co2     1 PGU412      0.0000 
     22 OE2        48.7270   15.1600   40.0290 O.co2     1 PGU412      0.0000 
     23 C          49.8660   13.1990   42.8970 C.2       1 PGU412      0.0000 
     24 O          50.1830   14.0910   43.6580 O.co2     1 PGU412      0.0000 
     25 OXT        50.7340   12.4930   42.2050 O.co2     1 PGU412      0.0000 
     26 H          45.9130   13.4472   41.8467 H         1 PGU412      0.0000 
     27 H          45.7594   12.2645   43.1574 H         1 PGU412      0.0000 
     28 H          42.1963   15.6919   43.4438 H         1 PGU412      0.0000 
     29 H          44.3554   14.2433   41.1079 H         1 PGU412      0.0000 
     30 H          42.6887   14.7407   41.4462 H         1 PGU412      0.0000 
     31 H          48.4439   11.7471   43.3482 H         1 PGU412      0.0000 
     32 H          47.2021   11.8997   41.0910 H         1 PGU412      0.0000 
     33 H          48.7569   11.1252   41.4412 H         1 PGU412      0.0000 
     34 H          48.9080   12.1250   39.2500 H         1 PGU412      0.0000 
     35 H          49.9094   13.0716   40.3641 H         1 PGU412      0.0000 
     36 H          45.9848   15.9530   47.2088 H         1 PGU412      0.0000 
     37 H          45.0832   17.2379   46.8591 H         1 PGU412      0.0000 
     38 H          44.4320   15.9834   47.6260 H         1 PGU412      0.0000 
     39 H          46.8355   13.4890   45.4706 H         1 PGU412      0.0000 
@<TRIPOS>BOND
     1    2    1 ar   
     2    9    1 ar   
     3    3    2 1    
     4    4    2 ar   
     5   36    3 1    
     6   37    3 1    
     7   38    3 1    
     8    5    4 1    
     9    6    4 ar   
    10   39    5 1    
    11    7    6 1    
    12    8    6 ar   
    13   16    7 1    
    14   26    7 1    
    15   27    7 1    
    16    9    8 ar   
    17   10    8 1    
    18   28    9 1    
    19   11   10 1    
    20   29   10 1    
    21   30   10 1    
    22   12   11 1    
    23   13   12 ar   
    24   14   12 ar   
    25   15   12 ar   
    26   17   16 1    
    27   18   17 1    
    28   23   17 1    
    29   31   17 1    
    30   19   18 1    
    31   32   18 1    
    32   33   18 1    
    33   20   19 1    
    34   34   19 1    
    35   35   19 1    
    36   21   20 ar   
    37   22   20 ar   
    38   24   23 ar   
    39   25   23 ar   
@<TRIPOS>SUBSTRUCTURE
     1 PGU412      1 GROUP   
@<TRIPOS>SET

