#    Name: 3g1r_FIT_1_INTS_M
#    Modification time : Tue Mar 25 06:59:48 2014

@<TRIPOS>MOLECULE
3g1r_FIT_1_INTS_M
   61     0     6     0     0
SMALL
NO_CHARGES


@<TRIPOS>ATOM
      1 CA         -0.7645   19.0510  -29.7895 C.3       2 GLC5        0.0000 
      2 CA          0.9120   19.3910  -30.8930 C.3       6 GLL5        0.0000 
      3 CA         -2.4410   18.7110  -28.6860 C.3       4 GLP5        0.0000 
      4 CA          3.3405   20.3850  -28.9450 C.3       2 GLC5        0.0000 
      5 CA          3.5120   20.3940  -31.0630 C.3       6 GLL5        0.0000 
      6 CA          3.1690   20.3760  -26.8270 C.3       4 GLP5        0.0000 
      7 CA          6.3385   21.9455  -30.2270 C.3       2 GLC5        0.0000 
      8 CA          4.7650   21.2840  -31.3100 C.3       6 GLL5        0.0000 
      9 CA          7.9120   22.6070  -29.1440 C.3       4 GLP5        0.0000 
     10 CA          5.4835   22.6580  -32.9395 C.3       2 GLC5        0.0000 
     11 CA          6.2020   24.0320  -34.5690 C.3       4 GLP5        0.0000 
     12 CA          7.1105   20.3795  -30.8645 C.3       2 GLC5        0.0000 
     13 CA          5.8080   20.4390  -32.0340 C.3       6 GLL5        0.0000 
     14 CA          8.4130   20.3200  -29.6950 C.3       4 GLP5        0.0000 
     15 CA          6.6445   22.0980  -33.0985 C.3       2 GLC5        0.0000 
     16 CA          7.4810   23.7570  -34.1630 C.3       4 GLP5        0.0000 
     17 N           1.2015   21.6160  -27.9575 N.am      1 SEC2        0.0000 
     18 N           0.6340   20.9280  -29.0260 N.am      5 SEL2        0.0000 
     19 N           1.7690   22.3040  -26.8890 N.am      3 SEP2        0.0000 
     20 N           0.2050   19.8045  -28.4060 N.am      1 SEC2        0.0000 
     21 N          -0.2240   18.6810  -27.7860 N.am      3 SEP2        0.0000 
     22 CA          5.5050   21.6650  -34.5505 C.3       2 GLC5        0.0000 
     23 CA          5.3200   19.8050  -33.3290 C.3       6 GLL5        0.0000 
     24 CA          5.6900   23.5250  -35.7720 C.3       4 GLP5        0.0000 
     25 CA          2.3790   19.4140  -35.7955 C.3       2 GLC5        0.0000 
     26 CA          3.5740   18.3190  -34.3580 C.3       6 GLL5        0.0000 
     27 CA          1.1840   20.5090  -37.2330 C.3       4 GLP5        0.0000 
     28 CA          3.8260   17.4370  -36.8625 C.3       2 GLC5        0.0000 
     29 CA          4.5970   17.4300  -34.8940 C.3       6 GLL5        0.0000 
     30 CA          3.0550   17.4440  -38.8310 C.3       4 GLP5        0.0000 
     31 CA          6.5675   15.5050  -34.1125 C.3       2 GLC5        0.0000 
     32 CA          7.1580   17.2060  -35.4220 C.3       6 GLL5        0.0000 
     33 CA          5.9770   13.8040  -32.8030 C.3       4 GLP5        0.0000 
     34 CA          6.0875   20.9150  -36.4495 C.3       2 GLC5        0.0000 
     35 CA          5.7150   19.1140  -36.3020 C.3       6 GLL5        0.0000 
     36 CA          6.4600   22.7160  -36.5970 C.3       4 GLP5        0.0000 
     37 CA          4.3850   18.2790  -37.5665 C.3       2 GLC5        0.0000 
     38 CA          1.8030   20.7175  -35.2830 C.3       2 GLC5        0.0000 
     39 CA          2.4220   20.9260  -33.3330 C.3       6 GLL5        0.0000 
     40 CA          1.7930   22.6605  -32.3015 C.3       2 GLC5        0.0000 
     41 CA          1.1640   24.3950  -31.2700 C.3       4 GLP5        0.0000 
     42 CA          4.4220   15.1140  -39.9340 C.3       2 GLC5        0.0000 
     43 CA          6.0070   14.6460  -38.9680 C.3       6 GLL5        0.0000 
     44 CA          2.8370   15.5820  -40.9000 C.3       4 GLP5        0.0000 
     45 CA          5.6105   11.8870  -36.0355 C.3       2 GLC5        0.0000 
     46 CA          6.6830   12.8730  -37.2750 C.3       6 GLL5        0.0000 
     47 CA          4.5380   10.9010  -34.7960 C.3       4 GLP5        0.0000 
     48 CA          1.5770   17.7222  -30.0555 C.3       2 GLC5        0.0000 
     49 CA          1.6640   19.0500  -31.9930 C.3       6 GLL5        0.0000 
     50 CA          1.8660   16.2240  -28.6680 C.3       4 GLP5        0.0000 
     51 CA          0.1145   17.7843  -31.5145 C.3       2 GLC5        0.0000 
     52 CA         -1.0590   16.3480  -31.5860 C.3       4 GLP5        0.0000 
     53 CA          4.4648   16.2072  -33.5820 C.3       2 GLC5        0.0000 
     54 CA          4.8440   14.5400  -32.5380 C.3       4 GLP5        0.0000 
     55 CA          2.6787   16.8158  -35.3560 C.3       2 GLC5        0.0000 
     56 CA          1.2720   15.7570  -36.0860 C.3       4 GLP5        0.0000 
     57 CA          8.4500   20.1737  -35.7313 C.3       2 GLC5        0.0000 
     58 CA          7.7920   19.2910  -34.2310 C.3       6 GLL5        0.0000 
     59 CA          8.8290   21.6370  -36.7890 C.3       4 GLP5        0.0000 
     60 CA          5.3021   12.7281  -38.3330 C.3       2 GLC5        0.0000 
     61 CA          4.0040   11.8040  -38.8090 C.3       4 GLP5        0.0000 
@<TRIPOS>BOND
@<TRIPOS>SUBSTRUCTURE
     1 SEC2       17 GROUP        1 X    SEC  0     ROOT SEC X 2
     2 GLC5        1 GROUP        1 X    GLC  0     **** GLC X 6
     3 SEP2       19 GROUP        1 Y    SEP  0     ROOT SEP Y 9
     4 GLP5        3 GROUP        1 Y    GLP  0     **** GLP Y 13
     5 SEL2       18 GROUP        1 Z    SEL  0     ROOT SEL Z 16
     6 GLL5        2 GROUP        1 Z    GLL  0     **** GLL Z 20
@<TRIPOS>SET

