#    Name: 3g1r_FIT_1_ligand
#    Modification time : Tue Mar 25 06:59:48 2014

@<TRIPOS>MOLECULE
3g1r_FIT_1_ligand
   63    66     1     0     0
SMALL
NO_CHARGES


@<TRIPOS>ATOM
      1 N1          2.4900   21.1370  -30.3640 N.am      1 FIT327      0.0000 
      2 C2          0.9120   19.3910  -30.8930 C.2       1 FIT327      0.0000 
      3 N2          7.0460   15.1790  -36.7650 N.am      1 FIT327      0.0000 
      4 C4          3.5120   20.3940  -31.0630 C.3       1 FIT327      0.0000 
      5 C5          4.7650   21.2840  -31.3100 C.3       1 FIT327      0.0000 
      6 C6          5.8080   20.4390  -32.0340 C.3       1 FIT327      0.0000 
      7 O1          0.6340   20.9280  -29.0260 O.2       1 FIT327      0.0000 
      8 O2          7.4810   17.1590  -37.8360 O.2       1 FIT327      0.0000 
      9 C1          1.6640   19.0500  -31.9930 C.2       1 FIT327      0.0000 
     10 C3          1.3010   20.5510  -30.0240 C.2       1 FIT327      0.0000 
     11 C7          5.3200   19.8050  -33.3290 C.3       1 FIT327      0.0000 
     12 C8          4.0250   18.9730  -33.0440 C.3       1 FIT327      0.0000 
     13 C9          2.9380   19.8310  -32.3810 C.3       1 FIT327      0.0000 
     14 C10         3.5740   18.3190  -34.3580 C.3       1 FIT327      0.0000 
     15 C11         4.5970   17.4300  -34.8940 C.3       1 FIT327      0.0000 
     16 C12         5.9460   18.1110  -35.1600 C.3       1 FIT327      0.0000 
     17 C13         6.3510   18.8160  -33.8700 C.3       1 FIT327      0.0000 
     18 C14         7.7920   19.2910  -34.2310 C.3       1 FIT327      0.0000 
     19 C15         8.3500   18.1300  -35.1160 C.3       1 FIT327      0.0000 
     20 C16         7.1580   17.2060  -35.4220 C.3       1 FIT327      0.0000 
     21 C17         5.7150   19.1140  -36.3020 C.3       1 FIT327      0.0000 
     22 C18         2.4220   20.9260  -33.3330 C.3       1 FIT327      0.0000 
     23 C19         7.2050   16.5440  -36.8090 C.2       1 FIT327      0.0000 
     24 C20         7.0280   14.2170  -37.9100 C.3       1 FIT327      0.0000 
     25 C21         6.0070   14.6460  -38.9680 C.3       1 FIT327      0.0000 
     26 C22         6.6830   12.8730  -37.2750 C.3       1 FIT327      0.0000 
     27 C23         8.4290   14.1090  -38.5450 C.3       1 FIT327      0.0000 
     28 H           2.6905   22.1211  -30.1325 H         1 FIT327      0.0000 
     29 H           0.0705   18.8833  -30.6190 H         1 FIT327      0.0000 
     30 H           6.9156   14.7033  -35.8116 H         1 FIT327      0.0000 
     31 H           3.8352   19.5426  -30.4591 H         1 FIT327      0.0000 
     32 H           5.1495   21.6104  -30.3616 H         1 FIT327      0.0000 
     33 H           4.4800   22.1201  -31.9211 H         1 FIT327      0.0000 
     34 H           6.1559   19.6406  -31.3525 H         1 FIT327      0.0000 
     35 H           6.6889   21.0704  -32.2533 H         1 FIT327      0.0000 
     36 H           1.4334   18.2726  -32.6135 H         1 FIT327      0.0000 
     37 H           5.0992   20.5322  -34.0525 H         1 FIT327      0.0000 
     38 H           4.3146   18.1756  -32.3542 H         1 FIT327      0.0000 
     39 H           3.3378   19.1222  -35.0707 H         1 FIT327      0.0000 
     40 H           2.6415   17.7714  -34.1594 H         1 FIT327      0.0000 
     41 H           4.2577   16.9733  -35.8481 H         1 FIT327      0.0000 
     42 H           4.7803   16.5815  -34.2009 H         1 FIT327      0.0000 
     43 H           6.4985   17.9849  -33.1333 H         1 FIT327      0.0000 
     44 H           8.3670   19.3691  -33.3536 H         1 FIT327      0.0000 
     45 H           7.7391   20.1723  -34.8030 H         1 FIT327      0.0000 
     46 H           9.0889   17.5979  -34.5629 H         1 FIT327      0.0000 
     47 H           8.7337   18.5392  -36.0217 H         1 FIT327      0.0000 
     48 H           7.1539   16.4389  -34.6415 H         1 FIT327      0.0000 
     49 H           6.5528   19.6055  -36.5398 H         1 FIT327      0.0000 
     50 H           5.3942   18.6618  -37.1342 H         1 FIT327      0.0000 
     51 H           5.0305   19.8016  -36.0596 H         1 FIT327      0.0000 
     52 H           3.1471   21.5634  -33.5937 H         1 FIT327      0.0000 
     53 H           2.0534   20.5396  -34.1785 H         1 FIT327      0.0000 
     54 H           1.6921   21.4673  -32.9156 H         1 FIT327      0.0000 
     55 H           6.2158   15.5503  -39.3405 H         1 FIT327      0.0000 
     56 H           5.9819   14.0100  -39.7393 H         1 FIT327      0.0000 
     57 H           5.0806   14.6898  -38.5939 H         1 FIT327      0.0000 
     58 H           6.6442   12.1403  -37.9544 H         1 FIT327      0.0000 
     59 H           7.3587   12.6017  -36.5896 H         1 FIT327      0.0000 
     60 H           5.7941   12.8957  -36.8174 H         1 FIT327      0.0000 
     61 H           9.1106   13.7865  -37.8882 H         1 FIT327      0.0000 
     62 H           8.4395   13.4714  -39.3153 H         1 FIT327      0.0000 
     63 H           8.7492   14.9911  -38.8904 H         1 FIT327      0.0000 
@<TRIPOS>BOND
     1    4    1 1    
     2   10    1 am   
     3   28    1 1    
     4    9    2 2    
     5   10    2 1    
     6   29    2 1    
     7   23    3 am   
     8   24    3 1    
     9   30    3 1    
    10    5    4 1    
    11   13    4 1    
    12   31    4 1    
    13    6    5 1    
    14   32    5 1    
    15   33    5 1    
    16   11    6 1    
    17   34    6 1    
    18   35    6 1    
    19   10    7 2    
    20   23    8 2    
    21   13    9 1    
    22   36    9 1    
    23   12   11 1    
    24   17   11 1    
    25   37   11 1    
    26   13   12 1    
    27   14   12 1    
    28   38   12 1    
    29   22   13 1    
    30   15   14 1    
    31   39   14 1    
    32   40   14 1    
    33   16   15 1    
    34   41   15 1    
    35   42   15 1    
    36   17   16 1    
    37   20   16 1    
    38   21   16 1    
    39   18   17 1    
    40   43   17 1    
    41   19   18 1    
    42   44   18 1    
    43   45   18 1    
    44   20   19 1    
    45   46   19 1    
    46   47   19 1    
    47   23   20 1    
    48   48   20 1    
    49   49   21 1    
    50   50   21 1    
    51   51   21 1    
    52   52   22 1    
    53   53   22 1    
    54   54   22 1    
    55   25   24 1    
    56   26   24 1    
    57   27   24 1    
    58   55   25 1    
    59   56   25 1    
    60   57   25 1    
    61   58   26 1    
    62   59   26 1    
    63   60   26 1    
    64   61   27 1    
    65   62   27 1    
    66   63   27 1    
@<TRIPOS>SUBSTRUCTURE
     1 FIT327      1 GROUP   
@<TRIPOS>SET

