#    Name: 1qju_W01_1_INTS_M
#    Modification time : Mon Mar 24 23:35:08 2014

@<TRIPOS>MOLECULE
1qju_W01_1_INTS_M
   65     0     3     0     0
SMALL
NO_CHARGES


@<TRIPOS>ATOM
      1 CA        128.8890 -123.3560   14.7625 C.3       1 GLC5        0.0000 
      2 CA        126.9950 -123.6470   13.7660 C.3       3 GLL5        0.0000 
      3 CA        130.7830 -123.0650   15.7590 C.3       2 GLP5        0.0000 
      4 CA        125.9110 -122.2600   13.3380 C.3       1 GLC5        0.0000 
      5 CA        124.8270 -120.8730   12.9100 C.3       2 GLP5        0.0000 
      6 CA        125.8565 -123.0530   15.4660 C.3       1 GLC5        0.0000 
      7 CA        124.7180 -122.4590   17.1660 C.3       2 GLP5        0.0000 
      8 CA        130.5900 -121.7925    8.9760 C.3       1 GLC5        0.0000 
      9 CA        131.0120 -122.7550   10.7680 C.3       3 GLL5        0.0000 
     10 CA        130.1680 -120.8300    7.1840 C.3       2 GLP5        0.0000 
     11 CA        129.7910 -122.9195    9.7195 C.3       1 GLC5        0.0000 
     12 CA        128.5700 -123.0840    8.6710 C.3       2 GLP5        0.0000 
     13 CA        132.7545 -123.4205   13.3225 C.3       1 GLC5        0.0000 
     14 CA        132.4290 -122.8860   11.2850 C.3       3 GLL5        0.0000 
     15 CA        133.0800 -123.9550   15.3600 C.3       2 GLP5        0.0000 
     16 CA        135.0015 -121.0115   10.5330 C.3       1 GLC5        0.0000 
     17 CA        133.4120 -122.3870   10.2520 C.3       3 GLL5        0.0000 
     18 CA        136.5910 -119.6360   10.8140 C.3       2 GLP5        0.0000 
     19 CA        134.1450 -121.0200    8.9340 C.3       1 GLC5        0.0000 
     20 CA        134.8780 -119.6530    7.6160 C.3       2 GLP5        0.0000 
     21 CA        136.5490 -124.2995   12.3525 C.3       1 GLC5        0.0000 
     22 CA        136.5270 -124.0070   10.4750 C.3       3 GLL5        0.0000 
     23 CA        136.5710 -124.5920   14.2300 C.3       2 GLP5        0.0000 
     24 CA        136.6960 -126.0790   10.8385 C.3       1 GLC5        0.0000 
     25 CA        136.8650 -128.1510   11.2020 C.3       2 GLP5        0.0000 
     26 CA        138.3525 -123.9995   11.3730 C.3       1 GLC5        0.0000 
     27 CA        140.1780 -123.9920   12.2710 C.3       2 GLP5        0.0000 
     28 CA        135.9930 -123.5225    4.2990 C.3       1 GLC5        0.0000 
     29 CA        135.5720 -123.0130    6.3780 C.3       3 GLL5        0.0000 
     30 CA        136.4140 -124.0320    2.2200 C.3       2 GLP5        0.0000 
     31 CA        133.1490 -124.1010    5.3385 C.3       1 GLC5        0.0000 
     32 CA        133.1220 -122.9780    6.8290 C.3       3 GLL5        0.0000 
     33 CA        133.1760 -125.2240    3.8480 C.3       2 GLP5        0.0000 
     34 CA        131.6450 -121.9040    7.0065 C.3       1 GLC5        0.0000 
     35 CA        137.9260 -122.9565    2.5480 C.3       1 GLC5        0.0000 
     36 CA        139.4380 -121.8810    2.8760 C.3       3 GLL5        0.0000 
     37 CA        138.5055 -120.9895    1.2165 C.3       1 GLC5        0.0000 
     38 CA        137.5730 -120.0980   -0.4430 C.3       2 GLP5        0.0000 
     39 CA        140.5925 -122.0470    1.0525 C.3       1 GLC5        0.0000 
     40 CA        141.7470 -122.2130   -0.7710 C.3       2 GLP5        0.0000 
     41 CA        141.0575 -120.8425    3.0005 C.3       1 GLC5        0.0000 
     42 CA        142.6770 -119.8040    3.1250 C.3       2 GLP5        0.0000 
     43 CA        139.6350 -121.0480    4.8115 C.3       1 GLC5        0.0000 
     44 CA        139.8320 -120.2150    6.7470 C.3       2 GLP5        0.0000 
     45 CA        130.1307 -123.0007   13.9015 C.3       1 GLC5        0.0000 
     46 CA        130.0280 -123.2130   11.7660 C.3       3 GLL5        0.0000 
     47 CA        129.0242 -123.0102   10.3575 C.3       1 GLC5        0.0000 
     48 CA        128.9290 -122.6600   12.3220 C.3       3 GLL5        0.0000 
     49 CA        133.1718 -124.6538   10.2817 C.3       1 GLC5        0.0000 
     50 CA        133.4230 -126.6710    9.7950 C.3       2 GLP5        0.0000 
     51 CA        133.6832 -121.4727   12.4112 C.3       1 GLC5        0.0000 
     52 CA        134.4460 -120.3090   14.0540 C.3       2 GLP5        0.0000 
     53 CA        135.1830 -121.6093    8.2508 C.3       1 GLC5        0.0000 
     54 CA        134.8020 -123.4680    8.6980 C.3       3 GLL5        0.0000 
     55 CA        134.7152 -125.2286    9.7376 C.3       1 GLC5        0.0000 
     56 CA        137.3154 -122.0517    9.8463 C.3       1 GLC5        0.0000 
     57 CA        136.1740 -123.6630    9.0730 C.3       3 GLL5        0.0000 
     58 CA        137.8390 -120.4170   10.7430 C.3       2 GLP5        0.0000 
     59 CA        135.3582 -125.0055    6.7165 C.3       1 GLC5        0.0000 
     60 CA        136.9230 -123.2050    6.7760 C.3       3 GLL5        0.0000 
     61 CA        134.4690 -126.9020    6.8560 C.3       2 GLP5        0.0000 
     62 CA        135.5627 -121.3810    7.0965 C.3       1 GLC5        0.0000 
     63 CA        134.1470 -124.9822    6.9667 C.3       1 GLC5        0.0000 
     64 CA        134.5280 -123.1470    7.3260 C.3       3 GLL5        0.0000 
     65 CA        134.3515 -121.3578    7.3468 C.3       1 GLC5        0.0000 
@<TRIPOS>BOND
@<TRIPOS>SUBSTRUCTURE
     1 GLC5        1 GROUP        1 X    GLC  0     ROOT GLC X 6
     2 GLP5        3 GROUP        1 Y    GLP  0     ROOT GLP Y 13
     3 GLL5        2 GROUP        1 Z    GLL  0     ROOT GLL Z 20
@<TRIPOS>SET

