#    Name: 1qju_W01_1_ligand
#    Modification time : Mon Mar 24 23:35:08 2014

@<TRIPOS>MOLECULE
1qju_W01_1_ligand
   45    47     1     0     0
SMALL
NO_CHARGES


@<TRIPOS>ATOM
      1 O1        130.0670 -124.5310   12.0490 O.3       1 W017001     0.0000 
      2 N2        128.9070 -124.8190   12.8390 N.2       1 W017001     0.0000 
      3 C3        128.2560 -123.6960   12.9850 C.2       1 W017001     0.0000 
      4 CM3       126.9950 -123.6470   13.7660 C.3       1 W017001     0.0000 
      5 C4        128.9290 -122.6600   12.3220 C.2       1 W017001     0.0000 
      6 C5        130.0280 -123.2130   11.7660 C.2       1 W017001     0.0000 
      7 C1C       131.0120 -122.7550   10.7680 C.3       1 W017001     0.0000 
      8 C2C       132.4290 -122.8860   11.2850 C.3       1 W017001     0.0000 
      9 C3C       133.4120 -122.3870   10.2520 C.3       1 W017001     0.0000 
     10 O1B       133.8300 -123.5460    9.6100 O.3       1 W017001     0.0000 
     11 C1B       134.8020 -123.4680    8.6980 C.ar      1 W017001     0.0000 
     12 C2B       136.1740 -123.6630    9.0730 C.ar      1 W017001     0.0000 
     13 CM2       136.5270 -124.0070   10.4750 C.3       1 W017001     0.0000 
     14 C3B       137.2330 -123.5380    8.1250 C.ar      1 W017001     0.0000 
     15 C4B       136.9230 -123.2050    6.7760 C.ar      1 W017001     0.0000 
     16 C5B       135.5720 -123.0130    6.3780 C.ar      1 W017001     0.0000 
     17 C6B       134.5280 -123.1470    7.3260 C.ar      1 W017001     0.0000 
     18 CM6       133.1220 -122.9780    6.8290 C.3       1 W017001     0.0000 
     19 C2A       137.9910 -123.0220    5.8540 C.2       1 W017001     0.0000 
     20 N1A       139.2830 -123.3720    6.1120 N.2       1 W017001     0.0000 
     21 N3A       137.8350 -122.4580    4.6540 N.2       1 W017001     0.0000 
     22 N4A       139.0760 -122.4540    4.1810 N.pl3     1 W017001     0.0000 
     23 CM4       139.4380 -121.8810    2.8760 C.3       1 W017001     0.0000 
     24 N5A       139.9370 -122.9940    5.0200 N.2       1 W017001     0.0000 
     25 H         128.6439 -121.7619   12.2892 H         1 W017001     0.0000 
     26 H         130.8284 -121.7029   10.5080 H         1 W017001     0.0000 
     27 H         130.9189 -123.3435    9.8443 H         1 W017001     0.0000 
     28 H         132.6367 -123.9321   11.5095 H         1 W017001     0.0000 
     29 H         132.5354 -122.3033   12.1999 H         1 W017001     0.0000 
     30 H         134.2108 -121.8777   10.7685 H         1 W017001     0.0000 
     31 H         132.8923 -121.7046    9.5974 H         1 W017001     0.0000 
     32 H         138.1923 -123.6845    8.4095 H         1 W017001     0.0000 
     33 H         135.3567 -122.7790    5.4099 H         1 W017001     0.0000 
     34 H         127.1339 -123.9333   14.7140 H         1 W017001     0.0000 
     35 H         126.6098 -122.7245   13.7918 H         1 W017001     0.0000 
     36 H         126.2946 -124.2464   13.3785 H         1 W017001     0.0000 
     37 H         137.5142 -124.1134   10.5940 H         1 W017001     0.0000 
     38 H         136.2288 -123.3007   11.1171 H         1 W017001     0.0000 
     39 H         136.1027 -124.8648   10.7650 H         1 W017001     0.0000 
     40 H         133.0969 -122.7536    5.8548 H         1 W017001     0.0000 
     41 H         132.5820 -123.8106    6.9520 H         1 W017001     0.0000 
     42 H         132.6433 -122.2443    7.3112 H         1 W017001     0.0000 
     43 H         140.4165 -121.9700    2.6898 H         1 W017001     0.0000 
     44 H         138.9547 -122.3317    2.1255 H         1 W017001     0.0000 
     45 H         139.2171 -120.9071    2.8239 H         1 W017001     0.0000 
@<TRIPOS>BOND
     1    2    1 1    
     2    6    1 1    
     3    3    2 2    
     4    4    3 1    
     5    5    3 1    
     6   34    4 1    
     7   35    4 1    
     8   36    4 1    
     9    6    5 2    
    10   25    5 1    
    11    7    6 1    
    12    8    7 1    
    13   26    7 1    
    14   27    7 1    
    15    9    8 1    
    16   28    8 1    
    17   29    8 1    
    18   10    9 1    
    19   30    9 1    
    20   31    9 1    
    21   11   10 1    
    22   12   11 ar   
    23   17   11 ar   
    24   13   12 1    
    25   14   12 ar   
    26   37   13 1    
    27   38   13 1    
    28   39   13 1    
    29   15   14 ar   
    30   32   14 1    
    31   16   15 ar   
    32   19   15 1    
    33   17   16 ar   
    34   33   16 1    
    35   18   17 1    
    36   40   18 1    
    37   41   18 1    
    38   42   18 1    
    39   20   19 1    
    40   21   19 2    
    41   24   20 2    
    42   22   21 1    
    43   23   22 1    
    44   24   22 1    
    45   43   23 1    
    46   44   23 1    
    47   45   23 1    
@<TRIPOS>SUBSTRUCTURE
     1 W017001     1 GROUP   
@<TRIPOS>SET

