#    Name: 2Z9D_2_CAVITY_N1_ALL.mol2
#    Modification time : Tue Mar 11 05:13:19 2014

@<TRIPOS>MOLECULE
2Z9D_2_CAVITY_N1_ALL.mol2
  136     0     5     0     0
SMALL
NO_CHARGES


@<TRIPOS>ATOM
      1 N           9.3679   47.0837   32.6030 N.2       2 ALA2        0.0000 
      2 N          10.3576   46.7741   31.5192 N.2       2 ALA2        0.0000 
      3 CZ         11.3473   46.4646   30.4353 C.ar      3 PHE5        0.0000 
      4 CA         12.3370   46.1550   29.3515 C.3       4 GLY6        0.0000 
      5 N           9.2333   46.6064   30.5404 N.2       2 ALA2        0.0000 
      6 CA         10.2230   46.2969   29.4566 C.3       4 GLY6        0.0000 
      7 OG         14.8009   48.4258   33.0289 O.2       1 SER1        0.0000 
      8 OG         12.6869   48.5676   33.1340 O.2       1 SER1        0.0000 
      9 OG         13.6766   48.2581   32.0501 O.2       1 SER1        0.0000 
     10 CZ         14.6663   47.9486   30.9663 C.ar      3 PHE5        0.0000 
     11 CZ         10.5730   48.7095   33.2391 C.ar      3 PHE5        0.0000 
     12 CZ         11.5627   48.3999   32.1552 C.ar      3 PHE5        0.0000 
     13 CZ         12.5524   48.0904   31.0714 C.ar      3 PHE5        0.0000 
     14 CA          9.4487   48.5418   32.2603 C.3       4 GLY6        0.0000 
     15 DU         10.4384   48.2322   31.1765 H         5 CUB7        0.0000 
     16 CZ         11.4281   47.9227   30.0927 C.ar      3 PHE5        0.0000 
     17 CA          9.3141   48.0645   30.1978 C.3       4 GLY6        0.0000 
     18 CZ         10.3038   47.7550   29.1140 C.ar      3 PHE5        0.0000 
     19 CZ          9.1796   47.5873   28.1352 C.ar      3 PHE5        0.0000 
     20 DU          4.3389   53.0320   30.4638 H         5 CUB7        0.0000 
     21 O           5.3286   52.7225   29.3800 O.2       2 ALA2        0.0000 
     22 O           6.3183   52.4129   28.2962 O.2       2 ALA2        0.0000 
     23 O           7.3080   52.1034   27.2123 O.2       2 ALA2        0.0000 
     24 CZ          8.2977   51.7938   26.1285 C.ar      3 PHE5        0.0000 
     25 N          15.2586   54.7355   33.7207 N.2       2 ALA2        0.0000 
     26 DU         16.2483   54.4259   32.6369 H         5 CUB7        0.0000 
     27 O          14.1344   54.5678   32.7420 O.2       2 ALA2        0.0000 
     28 DU         15.1241   54.2582   31.6582 H         5 CUB7        0.0000 
     29 CA         16.1138   53.9487   30.5744 C.3       4 GLY6        0.0000 
     30 CA         17.1035   53.6391   29.4905 C.3       4 GLY6        0.0000 
     31 DU         13.9998   54.0905   30.6795 H         5 CUB7        0.0000 
     32 CA         14.9895   53.7809   29.5956 C.3       4 GLY6        0.0000 
     33 OG         11.8858   54.2323   30.7846 O.2       1 SER1        0.0000 
     34 OG         12.8755   53.9228   29.7007 O.2       1 SER1        0.0000 
     35 CA         13.8652   53.6132   28.6169 C.3       4 GLY6        0.0000 
     36 N           8.7822   54.6837   31.9735 N.2       2 ALA2        0.0000 
     37 OG          9.7719   54.3742   30.8897 O.2       1 SER1        0.0000 
     38 O           6.6682   54.8256   32.0786 O.2       2 ALA2        0.0000 
     39 O           7.6579   54.5160   30.9948 O.2       2 ALA2        0.0000 
     40 OG          8.6476   54.2065   29.9109 O.2       1 SER1        0.0000 
     41 N           5.5440   54.6578   31.0999 N.2       2 ALA2        0.0000 
     42 DU          6.5337   54.3483   30.0160 H         5 CUB7        0.0000 
     43 OG          7.5234   54.0387   28.9322 O.2       1 SER1        0.0000 
     44 OG          8.5131   53.7292   27.8484 O.2       1 SER1        0.0000 
     45 N           4.4197   54.4901   30.1211 N.2       2 ALA2        0.0000 
     46 O           5.4094   54.1806   29.0373 O.2       2 ALA2        0.0000 
     47 O           6.3991   53.8710   27.9535 O.2       2 ALA2        0.0000 
     48 O           7.3888   53.5615   26.8697 O.2       2 ALA2        0.0000 
     49 CZ          8.3785   53.2519   25.7858 C.ar      3 PHE5        0.0000 
     50 CA         16.3291   55.8840   32.2943 C.3       4 GLY6        0.0000 
     51 CA         15.2049   55.7163   31.3155 C.3       4 GLY6        0.0000 
     52 CA         16.1946   55.4068   30.2317 C.3       4 GLY6        0.0000 
     53 CA         17.1843   55.0972   29.1479 C.3       4 GLY6        0.0000 
     54 CZ         14.0806   55.5486   30.3368 C.ar      3 PHE5        0.0000 
     55 CA         15.0703   55.2390   29.2530 C.3       4 GLY6        0.0000 
     56 CA         16.0600   54.9295   28.1692 C.3       4 GLY6        0.0000 
     57 CZ         11.9666   55.6904   30.4419 C.ar      3 PHE5        0.0000 
     58 CZ         12.9563   55.3809   29.3581 C.ar      3 PHE5        0.0000 
     59 CZ         13.9460   55.0713   28.2743 C.ar      3 PHE5        0.0000 
     60 N           8.8630   56.1418   31.6308 N.2       2 ALA2        0.0000 
     61 N           9.8527   55.8323   30.5470 N.2       2 ALA2        0.0000 
     62 CZ         10.8424   55.5227   29.4632 C.ar      3 PHE5        0.0000 
     63 CZ         11.8321   55.2132   28.3794 C.ar      3 PHE5        0.0000 
     64 N           6.7490   56.2837   31.7359 N.2       2 ALA2        0.0000 
     65 CA          7.7387   55.9741   30.6521 C.3       4 GLY6        0.0000 
     66 OG          8.7284   55.6646   29.5683 O.2       1 SER1        0.0000 
     67 OG          9.7181   55.3550   28.4845 O.2       1 SER1        0.0000 
     68 N           6.6145   55.8064   29.6734 N.2       2 ALA2        0.0000 
     69 O           7.6042   55.4968   28.5896 O.2       2 ALA2        0.0000 
     70 OG          8.5939   55.1873   27.5057 O.2       1 SER1        0.0000 
     71 O           5.4902   55.6387   28.6947 O.2       2 ALA2        0.0000 
     72 N           6.4799   55.3291   27.6108 N.2       2 ALA2        0.0000 
     73 N           7.4696   55.0196   26.5270 N.2       2 ALA2        0.0000 
     74 CZ          8.4593   54.7100   25.4432 C.ar      3 PHE5        0.0000 
     75 O           5.3556   55.1614   26.6321 O.2       2 ALA2        0.0000 
     76 N           6.3453   54.8519   25.5483 N.2       2 ALA2        0.0000 
     77 OG         14.8817   49.8839   32.6862 O.2       1 SER1        0.0000 
     78 OG         12.7677   50.0257   32.7913 O.2       1 SER1        0.0000 
     79 CZ         13.7574   49.7162   31.7075 C.ar      3 PHE5        0.0000 
     80 CA         10.6538   50.1676   32.8964 C.3       4 GLY6        0.0000 
     81 CZ         11.6435   49.8580   31.8126 C.ar      3 PHE5        0.0000 
     82 O           9.5295   49.9999   31.9177 O.2       2 ALA2        0.0000 
     83 CZ         10.5192   49.6903   30.8338 C.ar      3 PHE5        0.0000 
     84 CA          8.4052   49.8322   30.9389 C.3       4 GLY6        0.0000 
     85 CZ          9.3949   49.5226   29.8551 C.ar      3 PHE5        0.0000 
     86 CA          7.2810   49.6644   29.9602 C.3       4 GLY6        0.0000 
     87 CZ          8.2707   49.3549   28.8764 C.ar      3 PHE5        0.0000 
     88 CZ          8.1361   48.8776   26.8138 C.ar      3 PHE5        0.0000 
     89 O          13.9728   51.6516   33.4273 O.2       2 ALA2        0.0000 
     90 DU         14.9625   51.3420   32.3435 H         5 CUB7        0.0000 
     91 CA         12.8485   51.4838   32.4486 C.3       4 GLY6        0.0000 
     92 CZ         13.8382   51.1743   31.3648 C.ar      3 PHE5        0.0000 
     93 CZ         11.7243   51.3161   31.4699 C.ar      3 PHE5        0.0000 
     94 O           9.6103   51.4580   31.5750 O.2       2 ALA2        0.0000 
     95 OG          8.4860   51.2903   30.5963 O.2       1 SER1        0.0000 
     96 CA          6.3721   51.4321   30.7014 C.3       4 GLY6        0.0000 
     97 OG          7.3618   51.1225   29.6175 O.2       1 SER1        0.0000 
     98 CZ          8.3515   50.8130   28.5337 C.ar      3 PHE5        0.0000 
     99 O           6.2375   50.9548   28.6388 O.2       2 ALA2        0.0000 
    100 CZ          7.2272   50.6453   27.5550 C.ar      3 PHE5        0.0000 
    101 O           6.1029   50.4776   26.5763 O.2       2 ALA2        0.0000 
    102 N          15.1778   53.2774   34.0634 N.2       2 ALA2        0.0000 
    103 DU         16.1675   52.9678   32.9796 H         5 CUB7        0.0000 
    104 N          14.0536   53.1097   33.0847 N.2       2 ALA2        0.0000 
    105 DU         15.0433   52.8001   32.0009 H         5 CUB7        0.0000 
    106 CA         16.0330   52.4906   30.9170 C.3       4 GLY6        0.0000 
    107 N          12.9293   52.9419   32.1060 N.2       2 ALA2        0.0000 
    108 CZ         13.9190   52.6324   31.0221 C.ar      3 PHE5        0.0000 
    109 CA         14.9087   52.3228   29.9383 C.3       4 GLY6        0.0000 
    110 CA         10.8154   53.0838   32.2111 C.3       4 GLY6        0.0000 
    111 OG         11.8051   52.7742   31.1272 O.2       1 SER1        0.0000 
    112 OG          9.6911   52.9161   31.2323 O.2       1 SER1        0.0000 
    113 CA          7.5771   53.0579   31.3374 C.3       4 GLY6        0.0000 
    114 OG          8.5668   52.7484   30.2536 O.2       1 SER1        0.0000 
    115 O           5.4632   53.1997   31.4425 O.2       2 ALA2        0.0000 
    116 CA          6.4529   52.8902   30.3587 C.3       4 GLY6        0.0000 
    117 OG          7.4426   52.5806   29.2749 O.2       1 SER1        0.0000 
    118 OG          8.4323   52.2711   28.1911 O.2       1 SER1        0.0000 
    119 CZ         11.4011   45.4837   32.8406 C.ar      3 PHE5        0.0000 
    120 CZ         12.3908   45.1742   31.7567 C.ar      3 PHE5        0.0000 
    121 CZ         13.5958   46.8000   32.3928 C.ar      3 PHE5        0.0000 
    122 N          14.5855   46.4905   31.3090 N.2       2 ALA2        0.0000 
    123 CZ         10.4922   47.2514   33.5817 C.ar      3 PHE5        0.0000 
    124 CZ         11.4819   46.9418   32.4979 C.ar      3 PHE5        0.0000 
    125 DU         12.4716   46.6323   31.4141 H         5 CUB7        0.0000 
    126 N          13.4613   46.3227   30.3302 N.2       2 ALA2        0.0000 
    127 CA         16.2754   56.8649   29.8890 C.3       4 GLY6        0.0000 
    128 CA         17.2651   56.5553   28.8052 C.3       4 GLY6        0.0000 
    129 CZ         15.1511   56.6971   28.9103 C.ar      3 PHE5        0.0000 
    130 CZ         16.1408   56.3876   27.8265 C.ar      3 PHE5        0.0000 
    131 CZ          9.9335   57.2904   30.2043 C.ar      3 PHE5        0.0000 
    132 CA          7.8195   57.4322   30.3094 C.3       4 GLY6        0.0000 
    133 O           8.8092   57.1227   29.2256 O.2       2 ALA2        0.0000 
    134 CZ          9.7989   56.8131   28.1418 C.ar      3 PHE5        0.0000 
    135 O           7.6849   56.9549   28.2469 O.2       2 ALA2        0.0000 
    136 CA          8.6746   56.6454   27.1631 C.3       4 GLY6        0.0000 
@<TRIPOS>BOND
@<TRIPOS>SUBSTRUCTURE
     1 SER1        7 GROUP   
     2 ALA2        1 GROUP   
     3 PHE5        3 GROUP   
     4 GLY6        4 GROUP   
     5 CUB7       15 GROUP   
@<TRIPOS>SET

