#    Name: 2Z9D_2_CAVITY_N1_6.mol2
#    Modification time : Tue Mar 11 05:13:19 2014

@<TRIPOS>MOLECULE
2Z9D_2_CAVITY_N1_6.mol2
   79     0     5     0     0
SMALL
NO_CHARGES


@<TRIPOS>ATOM
      1 DU          4.3389   53.0320   30.4638 H         5 CUB7        0.0000 
      2 O           5.3286   52.7225   29.3800 O.2       2 ALA2        0.0000 
      3 O           6.3183   52.4129   28.2962 O.2       2 ALA2        0.0000 
      4 O           7.3080   52.1034   27.2123 O.2       2 ALA2        0.0000 
      5 CZ          8.2977   51.7938   26.1285 C.ar      3 PHE5        0.0000 
      6 O          14.1344   54.5678   32.7420 O.2       2 ALA2        0.0000 
      7 DU         13.9998   54.0905   30.6795 H         5 CUB7        0.0000 
      8 OG         11.8858   54.2323   30.7846 O.2       1 SER1        0.0000 
      9 OG         12.8755   53.9228   29.7007 O.2       1 SER1        0.0000 
     10 N           8.7822   54.6837   31.9735 N.2       2 ALA2        0.0000 
     11 OG          9.7719   54.3742   30.8897 O.2       1 SER1        0.0000 
     12 O           6.6682   54.8256   32.0786 O.2       2 ALA2        0.0000 
     13 O           7.6579   54.5160   30.9948 O.2       2 ALA2        0.0000 
     14 OG          8.6476   54.2065   29.9109 O.2       1 SER1        0.0000 
     15 N           5.5440   54.6578   31.0999 N.2       2 ALA2        0.0000 
     16 DU          6.5337   54.3483   30.0160 H         5 CUB7        0.0000 
     17 OG          7.5234   54.0387   28.9322 O.2       1 SER1        0.0000 
     18 OG          8.5131   53.7292   27.8484 O.2       1 SER1        0.0000 
     19 N           4.4197   54.4901   30.1211 N.2       2 ALA2        0.0000 
     20 O           5.4094   54.1806   29.0373 O.2       2 ALA2        0.0000 
     21 O           6.3991   53.8710   27.9535 O.2       2 ALA2        0.0000 
     22 O           7.3888   53.5615   26.8697 O.2       2 ALA2        0.0000 
     23 CZ          8.3785   53.2519   25.7858 C.ar      3 PHE5        0.0000 
     24 CZ         14.0806   55.5486   30.3368 C.ar      3 PHE5        0.0000 
     25 CZ         11.9666   55.6904   30.4419 C.ar      3 PHE5        0.0000 
     26 CZ         12.9563   55.3809   29.3581 C.ar      3 PHE5        0.0000 
     27 N           8.8630   56.1418   31.6308 N.2       2 ALA2        0.0000 
     28 N           9.8527   55.8323   30.5470 N.2       2 ALA2        0.0000 
     29 CZ         10.8424   55.5227   29.4632 C.ar      3 PHE5        0.0000 
     30 CZ         11.8321   55.2132   28.3794 C.ar      3 PHE5        0.0000 
     31 N           6.7490   56.2837   31.7359 N.2       2 ALA2        0.0000 
     32 CA          7.7387   55.9741   30.6521 C.3       4 GLY6        0.0000 
     33 OG          8.7284   55.6646   29.5683 O.2       1 SER1        0.0000 
     34 OG          9.7181   55.3550   28.4845 O.2       1 SER1        0.0000 
     35 N           6.6145   55.8064   29.6734 N.2       2 ALA2        0.0000 
     36 O           7.6042   55.4968   28.5896 O.2       2 ALA2        0.0000 
     37 OG          8.5939   55.1873   27.5057 O.2       1 SER1        0.0000 
     38 O           5.4902   55.6387   28.6947 O.2       2 ALA2        0.0000 
     39 N           6.4799   55.3291   27.6108 N.2       2 ALA2        0.0000 
     40 N           7.4696   55.0196   26.5270 N.2       2 ALA2        0.0000 
     41 CZ          8.4593   54.7100   25.4432 C.ar      3 PHE5        0.0000 
     42 O           5.3556   55.1614   26.6321 O.2       2 ALA2        0.0000 
     43 N           6.3453   54.8519   25.5483 N.2       2 ALA2        0.0000 
     44 CA         10.6538   50.1676   32.8964 C.3       4 GLY6        0.0000 
     45 CZ         11.6435   49.8580   31.8126 C.ar      3 PHE5        0.0000 
     46 O           9.5295   49.9999   31.9177 O.2       2 ALA2        0.0000 
     47 CZ         10.5192   49.6903   30.8338 C.ar      3 PHE5        0.0000 
     48 CA          8.4052   49.8322   30.9389 C.3       4 GLY6        0.0000 
     49 CZ          9.3949   49.5226   29.8551 C.ar      3 PHE5        0.0000 
     50 CA          7.2810   49.6644   29.9602 C.3       4 GLY6        0.0000 
     51 CZ          8.2707   49.3549   28.8764 C.ar      3 PHE5        0.0000 
     52 CA         12.8485   51.4838   32.4486 C.3       4 GLY6        0.0000 
     53 CZ         11.7243   51.3161   31.4699 C.ar      3 PHE5        0.0000 
     54 O           9.6103   51.4580   31.5750 O.2       2 ALA2        0.0000 
     55 OG          8.4860   51.2903   30.5963 O.2       1 SER1        0.0000 
     56 CA          6.3721   51.4321   30.7014 C.3       4 GLY6        0.0000 
     57 OG          7.3618   51.1225   29.6175 O.2       1 SER1        0.0000 
     58 CZ          8.3515   50.8130   28.5337 C.ar      3 PHE5        0.0000 
     59 O           6.2375   50.9548   28.6388 O.2       2 ALA2        0.0000 
     60 CZ          7.2272   50.6453   27.5550 C.ar      3 PHE5        0.0000 
     61 O           6.1029   50.4776   26.5763 O.2       2 ALA2        0.0000 
     62 N          14.0536   53.1097   33.0847 N.2       2 ALA2        0.0000 
     63 N          12.9293   52.9419   32.1060 N.2       2 ALA2        0.0000 
     64 CZ         13.9190   52.6324   31.0221 C.ar      3 PHE5        0.0000 
     65 CA         10.8154   53.0838   32.2111 C.3       4 GLY6        0.0000 
     66 OG         11.8051   52.7742   31.1272 O.2       1 SER1        0.0000 
     67 OG          9.6911   52.9161   31.2323 O.2       1 SER1        0.0000 
     68 CA          7.5771   53.0579   31.3374 C.3       4 GLY6        0.0000 
     69 OG          8.5668   52.7484   30.2536 O.2       1 SER1        0.0000 
     70 O           5.4632   53.1997   31.4425 O.2       2 ALA2        0.0000 
     71 CA          6.4529   52.8902   30.3587 C.3       4 GLY6        0.0000 
     72 OG          7.4426   52.5806   29.2749 O.2       1 SER1        0.0000 
     73 OG          8.4323   52.2711   28.1911 O.2       1 SER1        0.0000 
     74 CZ          9.9335   57.2904   30.2043 C.ar      3 PHE5        0.0000 
     75 CA          7.8195   57.4322   30.3094 C.3       4 GLY6        0.0000 
     76 O           8.8092   57.1227   29.2256 O.2       2 ALA2        0.0000 
     77 CZ          9.7989   56.8131   28.1418 C.ar      3 PHE5        0.0000 
     78 O           7.6849   56.9549   28.2469 O.2       2 ALA2        0.0000 
     79 CA          8.6746   56.6454   27.1631 C.3       4 GLY6        0.0000 
@<TRIPOS>BOND
@<TRIPOS>SUBSTRUCTURE
     1 SER1        8 GROUP   
     2 ALA2        2 GROUP   
     3 PHE5        5 GROUP   
     4 GLY6       32 GROUP   
     5 CUB7        1 GROUP   
@<TRIPOS>SET

