#    Name: 2z9d_FMN_2_INTS_M
#    Modification time : Tue Mar 25 10:24:57 2014

@<TRIPOS>MOLECULE
2z9d_FMN_2_INTS_M
   64     0     9     0     0
SMALL
NO_CHARGES


@<TRIPOS>ATOM
      1 N           6.5430   53.7565   32.9620 N.am      2 SEC2        0.0000 
      2 N           6.7590   54.3840   31.5720 N.am      8 SEL2        0.0000 
      3 N           6.3270   53.1290   34.3520 N.am      5 SEP2        0.0000 
      4 N           8.7655   53.3395   33.5605 N.am      2 SEC2        0.0000 
      5 N           8.6270   54.5070   32.7770 N.am      8 SEL2        0.0000 
      6 N           8.9040   52.1720   34.3440 N.am      5 SEP2        0.0000 
      7 N           9.7740   55.0760   33.1800 N.am      2 SEC2        0.0000 
      8 N          10.9210   55.6450   33.5830 N.am      5 SEP2        0.0000 
      9 N           8.2290   58.7740   29.1650 N.am      2 SEC2        0.0000 
     10 N           8.2650   57.3680   29.3180 N.am      8 SEL2        0.0000 
     11 N           8.1930   60.1800   29.0120 N.am      5 SEP2        0.0000 
     12 N           5.8970   57.4930   28.1980 N.am      2 SEC2        0.0000 
     13 N           5.8250   56.1080   28.5030 N.am      8 SEL2        0.0000 
     14 N           5.9690   58.8780   27.8930 N.am      5 SEP2        0.0000 
     15 CA          0.6730   57.3760   24.9615 C.3       3 GLC5        0.0000 
     16 CA          1.6100   56.2120   26.0440 C.3       9 GLL5        0.0000 
     17 CA         -0.2640   58.5400   23.8790 C.3       6 GLP5        0.0000 
     18 CA         -0.0020   55.2185   25.1635 C.3       3 GLC5        0.0000 
     19 CA         -1.6140   54.2250   24.2830 C.3       6 GLP5        0.0000 
     20 CA         -0.5660   54.1800   26.0665 C.3       3 GLC5        0.0000 
     21 CA          0.4820   54.1350   27.8500 C.3       9 GLL5        0.0000 
     22 CA          0.7795   52.9325   26.1835 C.3       3 GLC5        0.0000 
     23 CA          1.0770   51.7300   24.5170 C.3       6 GLP5        0.0000 
     24 CA          0.4025   55.5690   29.2445 C.3       3 GLC5        0.0000 
     25 CA          0.3230   57.0030   30.6390 C.3       6 GLP5        0.0000 
     26 O           4.1120   56.2830   32.2980 O.2       1 ALC1        0.0000 
     27 O           4.0580   55.0800   32.9500 O.2       7 ALL1        0.0000 
     28 O           4.1660   57.4860   31.6460 O.2       4 ALP1        0.0000 
     29 CA          0.4875   56.5905   34.0635 C.3       3 GLC5        0.0000 
     30 CA          0.8900   54.7180   33.7850 C.3       9 GLL5        0.0000 
     31 CA          0.0850   58.4630   34.3420 C.3       6 GLP5        0.0000 
     32 CA          0.6065   55.8605   32.2120 C.3       3 GLC5        0.0000 
     33 N           0.4605   55.7725   35.9820 N.am      2 SEC2        0.0000 
     34 N           0.0310   55.2420   34.7690 N.am      8 SEL2        0.0000 
     35 N           0.8900   56.3030   37.1950 N.am      5 SEP2        0.0000 
     36 N          -3.4815   55.5700   36.0190 N.am      2 SEC2        0.0000 
     37 N          -2.2180   55.6830   35.8270 N.am      8 SEL2        0.0000 
     38 N          -4.7450   55.4570   36.2110 N.am      5 SEP2        0.0000 
     39 N          -2.3155   55.3605   37.2310 N.am      2 SEC2        0.0000 
     40 N          -2.4130   55.0380   38.6350 N.am      5 SEP2        0.0000 
     41 N          -2.4490   56.6980   36.5685 N.am      2 SEC2        0.0000 
     42 N          -2.6800   57.7130   37.3100 N.am      5 SEP2        0.0000 
     43 N          -3.2150   55.9040   33.2340 N.am      2 SEC2        0.0000 
     44 N          -2.0580   55.4790   33.3940 N.am      8 SEL2        0.0000 
     45 N          -4.3720   56.3290   33.0740 N.am      5 SEP2        0.0000 
     46 N          -2.0420   56.3835   32.3315 N.am      2 SEC2        0.0000 
     47 N          -2.0260   57.2880   31.2690 N.am      5 SEP2        0.0000 
     48 N          -2.4330   53.0595   35.9390 N.am      2 SEC2        0.0000 
     49 N          -1.6920   53.4570   34.7680 N.am      8 SEL2        0.0000 
     50 N          -3.1740   52.6620   37.1100 N.am      5 SEP2        0.0000 
     51 CA          2.3267   57.5715   27.5643 C.3       3 GLC5        0.0000 
     52 CA          2.5030   55.4860   27.0370 C.3       9 GLL5        0.0000 
     53 CA          2.5970   59.2940   28.5880 C.3       6 GLP5        0.0000 
     54 CA          4.0260   57.0991   28.8759 C.3       3 GLC5        0.0000 
     55 CA          4.5550   55.5670   28.3240 C.3       9 GLL5        0.0000 
     56 CA          3.9560   59.0010   29.2420 C.3       6 GLP5        0.0000 
     57 CA          4.9568   52.5545   33.2674 C.3       3 GLC5        0.0000 
     58 CA          2.8140   53.1150   33.3510 C.3       9 GLL5        0.0000 
     59 CA          6.5820   51.7310   33.9490 C.3       6 GLP5        0.0000 
     60 CA          1.5905   54.8590   36.0217 C.3       3 GLC5        0.0000 
     61 CA          2.0080   53.8780   34.4080 C.3       9 GLL5        0.0000 
     62 CA          1.7320   55.4200   37.9470 C.3       6 GLP5        0.0000 
     63 CA          4.1846   54.3419   34.7444 C.3       3 GLC5        0.0000 
     64 CA          5.8120   54.9610   35.8710 C.3       6 GLP5        0.0000 
@<TRIPOS>BOND
@<TRIPOS>SUBSTRUCTURE
     1 ALC1       26 GROUP        1 X    ALC  0     ROOT ALC X 1
     2 SEC2        1 GROUP        1 X    SEC  0     **** SEC X 2
     3 GLC5       15 GROUP        1 X    GLC  0     **** GLC X 6
     4 ALP1       28 GROUP        1 Y    ALP  0     ROOT ALP Y 8
     5 SEP2        3 GROUP        1 Y    SEP  0     **** SEP Y 9
     6 GLP5       17 GROUP        1 Y    GLP  0     **** GLP Y 13
     7 ALL1       27 GROUP        1 Z    ALL  0     ROOT ALL Z 15
     8 SEL2        2 GROUP        1 Z    SEL  0     **** SEL Z 16
     9 GLL5       16 GROUP        1 Z    GLL  0     **** GLL Z 20
@<TRIPOS>SET

