#    Name: 2z9d_FMN_2_ligand
#    Modification time : Tue Mar 25 10:24:57 2014

@<TRIPOS>MOLECULE
2z9d_FMN_2_ligand
   50    52     1     0     0
SMALL
NO_CHARGES


@<TRIPOS>ATOM
      1 N1          6.7590   54.3840   31.5720 N.2       1 FMN402      0.0000 
      2 C2          8.0040   54.8900   31.7880 C.2       1 FMN402      0.0000 
      3 O2          8.6270   54.5070   32.7770 O.2       1 FMN402      0.0000 
      4 N3          8.5420   55.8350   30.9530 N.am      1 FMN402      0.0000 
      5 C4          7.8670   56.2860   29.8420 C.2       1 FMN402      0.0000 
      6 O4          8.2650   57.3680   29.3180 O.2       1 FMN402      0.0000 
      7 C4A         6.5770   55.7410   29.6070 C.2       1 FMN402      0.0000 
      8 N5          5.8250   56.1080   28.5030 N.2       1 FMN402      0.0000 
      9 C5A         4.5550   55.5670   28.3240 C.ar      1 FMN402      0.0000 
     10 C6          3.8050   55.9760   27.2430 C.ar      1 FMN402      0.0000 
     11 C7          2.5030   55.4860   27.0370 C.ar      1 FMN402      0.0000 
     12 C7M         1.6100   56.2120   26.0440 C.3       1 FMN402      0.0000 
     13 C8          1.9530   54.5510   27.9300 C.ar      1 FMN402      0.0000 
     14 C8M         0.4820   54.1350   27.8500 C.3       1 FMN402      0.0000 
     15 C9          2.7200   54.1020   29.0230 C.ar      1 FMN402      0.0000 
     16 C9A         4.0120   54.6230   29.2360 C.ar      1 FMN402      0.0000 
     17 N10         4.7980   54.2180   30.2990 N.pl3     1 FMN402      0.0000 
     18 C10         6.0470   54.7800   30.4780 C.2       1 FMN402      0.0000 
     19 C1'         4.2990   53.2620   31.3370 C.3       1 FMN402      0.0000 
     20 C2'         3.3990   54.0200   32.3040 C.3       1 FMN402      0.0000 
     21 O2'         4.0580   55.0800   32.9500 O.3       1 FMN402      0.0000 
     22 C3'         2.8140   53.1150   33.3510 C.3       1 FMN402      0.0000 
     23 O3'         1.9630   52.2220   32.6470 O.3       1 FMN402      0.0000 
     24 C4'         2.0080   53.8780   34.4080 C.3       1 FMN402      0.0000 
     25 O4'         1.4390   52.9270   35.3030 O.3       1 FMN402      0.0000 
     26 C5'         0.8900   54.7180   33.7850 C.3       1 FMN402      0.0000 
     27 O5'         0.0310   55.2420   34.7690 O.3       1 FMN402      0.0000 
     28 P          -1.5540   54.9380   34.6870 P.3       1 FMN402      0.0000 
     29 O1P        -2.2180   55.6830   35.8270 O.co2     1 FMN402      0.0000 
     30 O2P        -2.0580   55.4790   33.3940 O.co2     1 FMN402      0.0000 
     31 O3P        -1.6920   53.4570   34.7680 O.co2     1 FMN402      0.0000 
     32 H           9.4893   56.2243   31.1639 H         1 FMN402      0.0000 
     33 H           4.1947   56.6540   26.5649 H         1 FMN402      0.0000 
     34 H           2.3405   53.3998   29.6604 H         1 FMN402      0.0000 
     35 H           5.1319   52.8387   31.8858 H         1 FMN402      0.0000 
     36 H           3.7282   52.4682   30.8698 H         1 FMN402      0.0000 
     37 H           2.5464   54.4130   31.7142 H         1 FMN402      0.0000 
     38 H           3.6101   52.5814   33.8338 H         1 FMN402      0.0000 
     39 H           2.6822   54.5398   34.9308 H         1 FMN402      0.0000 
     40 H           0.3546   54.0684   33.0683 H         1 FMN402      0.0000 
     41 H           1.3733   55.5133   33.1882 H         1 FMN402      0.0000 
     42 H           1.4593   57.1648   26.3076 H         1 FMN402      0.0000 
     43 H           2.0061   56.2210   25.1258 H         1 FMN402      0.0000 
     44 H           0.7100   55.7823   25.9707 H         1 FMN402      0.0000 
     45 H           0.2594   53.7256   26.9652 H         1 FMN402      0.0000 
     46 H           0.2477   53.4621   28.5516 H         1 FMN402      0.0000 
     47 H          -0.1317   54.9146   27.9750 H         1 FMN402      0.0000 
     48 H           3.9613   55.8599   32.3317 H         1 FMN402      0.0000 
     49 H           1.1752   52.0875   33.2480 H         1 FMN402      0.0000 
     50 H           0.4613   53.1369   35.3162 H         1 FMN402      0.0000 
@<TRIPOS>BOND
     1    2    1 1    
     2   18    1 2    
     3    3    2 2    
     4    4    2 am   
     5    5    4 am   
     6   32    4 1    
     7    6    5 2    
     8    7    5 1    
     9    8    7 2    
    10   18    7 1    
    11    9    8 1    
    12   10    9 ar   
    13   16    9 ar   
    14   11   10 ar   
    15   33   10 1    
    16   12   11 1    
    17   13   11 ar   
    18   42   12 1    
    19   43   12 1    
    20   44   12 1    
    21   14   13 1    
    22   15   13 ar   
    23   45   14 1    
    24   46   14 1    
    25   47   14 1    
    26   16   15 ar   
    27   34   15 1    
    28   17   16 1    
    29   18   17 1    
    30   19   17 1    
    31   20   19 1    
    32   35   19 1    
    33   36   19 1    
    34   21   20 1    
    35   22   20 1    
    36   37   20 1    
    37   48   21 1    
    38   23   22 1    
    39   24   22 1    
    40   38   22 1    
    41   49   23 1    
    42   25   24 1    
    43   26   24 1    
    44   39   24 1    
    45   50   25 1    
    46   27   26 1    
    47   40   26 1    
    48   41   26 1    
    49   28   27 1    
    50   29   28 ar   
    51   30   28 ar   
    52   31   28 ar   
@<TRIPOS>SUBSTRUCTURE
     1 FMN402      1 GROUP   
@<TRIPOS>SET

