#    Name: 2xm9_LWH_1_INTS_M
#    Modification time : Tue Mar 25 06:23:38 2014

@<TRIPOS>MOLECULE
2xm9_LWH_1_INTS_M
   78     0    12     0     0
SMALL
NO_CHARGES


@<TRIPOS>ATOM
      1 CA         46.4190  -15.4550   -6.8775 C.3       4 GLC5        0.0000 
      2 CA         47.1330  -17.4730   -6.6930 C.3      12 GLL5        0.0000 
      3 CA         45.7050  -13.4370   -7.0620 C.3       8 GLP5        0.0000 
      4 CA         45.9135  -15.3715   -7.9620 C.3       4 GLC5        0.0000 
      5 CA         46.1220  -17.3060   -8.8620 C.3      12 GLL5        0.0000 
      6 CA         43.4840  -17.4065   -9.3860 C.3       4 GLC5        0.0000 
      7 CA         44.9090  -16.9580  -11.0530 C.3      12 GLL5        0.0000 
      8 CA         42.0590  -17.8550   -7.7190 C.3       8 GLP5        0.0000 
      9 CA         43.8925  -14.9135   -9.0140 C.3       4 GLC5        0.0000 
     10 CA         44.4110  -15.5600  -10.8190 C.3      12 GLL5        0.0000 
     11 CA         43.3740  -14.2670   -7.2090 C.3       8 GLP5        0.0000 
     12 O          44.0075  -18.3755   -9.7935 O.2       1 ALC1        0.0000 
     13 O          45.2450  -17.7670   -9.9000 O.2       9 ALL1        0.0000 
     14 O          42.7700  -18.9840   -9.6870 O.2       5 ALP1        0.0000 
     15 OD1        43.8235  -14.5205  -13.6575 O.co2     3 ASC3        0.0000 
     16 OD1        43.4160  -15.3370  -11.8890 O.co2    11 ASL3        0.0000 
     17 OD1        44.2310  -13.7040  -15.4260 O.co2     7 ASP3        0.0000 
     18 OD1        43.9580  -14.2240  -12.6065 O.co2     3 ASC3        0.0000 
     19 OD1        44.5000  -13.1110  -13.3240 O.co2     7 ASP3        0.0000 
     20 CA         49.0765  -10.7520   -7.1040 C.3       4 GLC5        0.0000 
     21 CA         49.5950  -12.4880   -7.7040 C.3      12 GLL5        0.0000 
     22 CA         48.5580   -9.0160   -6.5040 C.3       8 GLP5        0.0000 
     23 CA         51.0695  -11.4305   -8.3670 C.3       4 GLC5        0.0000 
     24 CA         52.5440  -10.3730   -9.0300 C.3       8 GLP5        0.0000 
     25 CA         48.9090  -15.3145  -10.7245 C.3       4 GLC5        0.0000 
     26 CA         47.9970  -13.7250   -9.6040 C.3      12 GLL5        0.0000 
     27 CA         49.8210  -16.9040  -11.8450 C.3       8 GLP5        0.0000 
     28 CA         49.1325  -12.4900  -13.1220 C.3       4 GLC5        0.0000 
     29 CA         48.2490  -11.7920  -11.1970 C.3      12 GLL5        0.0000 
     30 CA         50.0160  -13.1880  -15.0470 C.3       8 GLP5        0.0000 
     31 CA         50.3035  -11.5575  -11.2810 C.3       4 GLC5        0.0000 
     32 CA         52.3580  -11.3230  -11.3650 C.3       8 GLP5        0.0000 
     33 CA         48.1440   -8.9040  -10.6985 C.3       4 GLC5        0.0000 
     34 CA         48.4050  -10.4200  -11.4750 C.3      12 GLL5        0.0000 
     35 CA         47.8830   -7.3880   -9.9220 C.3       8 GLP5        0.0000 
     36 CA         50.1945  -10.2935  -10.9605 C.3       4 GLC5        0.0000 
     37 CA         51.9840  -10.1670  -10.4460 C.3       8 GLP5        0.0000 
     38 N          47.8460  -11.7505  -14.6690 N.am      2 SEC2        0.0000 
     39 N          47.6980  -11.4360  -13.3340 N.am     10 SEL2        0.0000 
     40 N          47.9940  -12.0650  -16.0040 N.am      6 SEP2        0.0000 
     41 N          46.2615  -10.7280  -13.3455 N.am      2 SEC2        0.0000 
     42 N          44.8250  -10.0200  -13.3570 N.am      6 SEP2        0.0000 
     43 N          49.5230  -13.9660   -4.7335 N.am      2 SEC2        0.0000 
     44 N          49.3090  -14.3780   -6.2320 N.am     10 SEL2        0.0000 
     45 N          49.7370  -13.5540   -3.2350 N.am      6 SEP2        0.0000 
     46 CA         46.2782  -20.4503   -8.4730 C.3       4 GLC5        0.0000 
     47 CA         45.5790  -19.1560   -7.4150 C.3      12 GLL5        0.0000 
     48 CA         46.8970  -21.4140  -10.1360 C.3       8 GLP5        0.0000 
     49 CA         43.8593  -18.6707   -7.2645 C.3       4 GLC5        0.0000 
     50 CA         48.0332  -20.0765   -6.3290 C.3       4 GLC5        0.0000 
     51 CA         45.7400  -19.8170   -6.2050 C.3      12 GLL5        0.0000 
     52 CA         49.9020  -20.5870   -6.9350 C.3       8 GLP5        0.0000 
     53 CA         48.5562  -19.1977   -6.5113 C.3       4 GLC5        0.0000 
     54 CA         47.2880  -18.1440   -5.4820 C.3      12 GLL5        0.0000 
     55 CA         45.4076  -18.2185   -4.3987 C.3       4 GLC5        0.0000 
     56 CA         44.0890  -17.5820   -3.1950 C.3       8 GLP5        0.0000 
     57 CA         46.5490  -19.5270   -9.1987 C.3       4 GLC5        0.0000 
     58 CA         46.2800  -17.9740   -7.6610 C.3      12 GLL5        0.0000 
     59 CA         44.1300  -17.7475   -7.9902 C.3       4 GLC5        0.0000 
     60 CA         49.4350  -16.2922   -8.9642 C.3       4 GLC5        0.0000 
     61 CA         47.6680  -15.6860   -8.1130 C.3      12 GLL5        0.0000 
     62 CA         50.8700  -17.5480   -9.6640 C.3       8 GLP5        0.0000 
     63 CA         51.0877  -13.8515   -7.4317 C.3       4 GLC5        0.0000 
     64 CA         49.0600  -13.7380   -7.4270 C.3      12 GLL5        0.0000 
     65 CA         52.8480  -14.5900   -7.2980 C.3       8 GLP5        0.0000 
     66 CA         48.3818  -12.4325   -5.8247 C.3       4 GLC5        0.0000 
     67 CA         47.4360  -11.7520   -4.0840 C.3       8 GLP5        0.0000 
     68 CA         47.5162  -13.2750   -7.3138 C.3       4 GLC5        0.0000 
     69 CA         48.8955  -10.3365   -8.6478 C.3       4 GLC5        0.0000 
     70 CA         49.3280  -11.8640   -8.9260 C.3      12 GLL5        0.0000 
     71 CA         48.8630   -8.5040   -7.8890 C.3       8 GLP5        0.0000 
     72 CA         50.4560  -11.1680   -9.9262 C.3       4 GLC5        0.0000 
     73 CA         47.3165  -12.8030   -8.2342 C.3       4 GLC5        0.0000 
     74 CA         46.8517  -13.9089   -7.9981 C.3       4 GLC5        0.0000 
     75 CA         46.9353  -11.7060   -9.3091 C.3       4 GLC5        0.0000 
     76 CA         45.4080  -10.4650   -9.1130 C.3       8 GLP5        0.0000 
     77 CA         46.6625  -10.8475  -10.9560 C.3       4 GLC5        0.0000 
     78 CA         44.9980  -10.5890  -10.5760 C.3       8 GLP5        0.0000 
@<TRIPOS>BOND
@<TRIPOS>SUBSTRUCTURE
     1 ALC1       12 GROUP        1 X    ALC  0     ROOT ALC X 1
     2 SEC2       38 GROUP        1 X    SEC  0     **** SEC X 2
     3 ASC3       15 GROUP        1 X    ASC  0     **** ASC X 3
     4 GLC5        1 GROUP        1 X    GLC  0     **** GLC X 6
     5 ALP1       14 GROUP        1 Y    ALP  0     ROOT ALP Y 8
     6 SEP2       40 GROUP        1 Y    SEP  0     **** SEP Y 9
     7 ASP3       17 GROUP        1 Y    ASP  0     **** ASP Y 10
     8 GLP5        3 GROUP        1 Y    GLP  0     **** GLP Y 13
     9 ALL1       13 GROUP        1 Z    ALL  0     ROOT ALL Z 15
    10 SEL2       39 GROUP        1 Z    SEL  0     **** SEL Z 16
    11 ASL3       16 GROUP        1 Z    ASL  0     **** ASL Z 17
    12 GLL5        2 GROUP        1 Z    GLL  0     **** GLL Z 20
@<TRIPOS>SET

