#    Name: 2xm9_LWH_1_ligand
#    Modification time : Tue Mar 25 06:23:38 2014

@<TRIPOS>MOLECULE
2xm9_LWH_1_ligand
   47    51     1     0     0
SMALL
NO_CHARGES


@<TRIPOS>ATOM
      1 C01        45.5790  -19.1560   -7.4150 C.ar      1 LWH1513     0.0000 
      2 C02        45.7400  -19.8170   -6.2050 C.ar      1 LWH1513     0.0000 
      3 C03        46.5890  -19.3150   -5.2410 C.ar      1 LWH1513     0.0000 
      4 C04        47.2880  -18.1440   -5.4820 C.ar      1 LWH1513     0.0000 
      5 C05        47.1330  -17.4730   -6.6930 C.ar      1 LWH1513     0.0000 
      6 C06        46.2800  -17.9740   -7.6610 C.ar      1 LWH1513     0.0000 
      7 C07        46.1220  -17.3060   -8.8620 C.ar      1 LWH1513     0.0000 
      8 C08        47.6680  -15.6860   -8.1130 C.ar      1 LWH1513     0.0000 
      9 N09        46.8120  -16.1650   -9.0710 N.ar      1 LWH1513     0.0000 
     10 N10        47.8230  -16.3410   -6.9150 N.ar      1 LWH1513     0.0000 
     11 C11        44.9090  -16.9580  -11.0530 C.3       1 LWH1513     0.0000 
     12 C12        44.4110  -15.5600  -10.8190 C.3       1 LWH1513     0.0000 
     13 C13        43.7030  -16.3610  -12.8830 C.3       1 LWH1513     0.0000 
     14 C14        43.9800  -17.5610  -12.0530 C.3       1 LWH1513     0.0000 
     15 N15        45.2450  -17.7670   -9.9000 N.pl3     1 LWH1513     0.0000 
     16 N16        43.4160  -15.3370  -11.8890 N.4       1 LWH1513     0.0000 
     17 C17        48.3320  -14.3870   -8.4160 C.ar      1 LWH1513     0.0000 
     18 C18        49.0600  -13.7380   -7.4270 C.ar      1 LWH1513     0.0000 
     19 C19        49.5950  -12.4880   -7.7040 C.ar      1 LWH1513     0.0000 
     20 C20        49.3280  -11.8640   -8.9260 C.ar      1 LWH1513     0.0000 
     21 C21        48.5280  -12.4740   -9.8870 C.ar      1 LWH1513     0.0000 
     22 C22        47.9970  -13.7250   -9.6040 C.ar      1 LWH1513     0.0000 
     23 C23        48.2490  -11.7920  -11.1970 C.2       1 LWH1513     0.0000 
     24 C24        48.4050  -10.4200  -11.4750 C.2       1 LWH1513     0.0000 
     25 C25        48.0600  -10.1980  -12.7880 C.2       1 LWH1513     0.0000 
     26 N26        47.8180  -12.3810  -12.3630 N.pl3     1 LWH1513     0.0000 
     27 N27        47.6980  -11.4360  -13.3340 N.2       1 LWH1513     0.0000 
     28 O28        49.3090  -14.3780   -6.2320 O.3       1 LWH1513     0.0000 
     29 H          44.9460  -19.5331   -8.1305 H         1 LWH1513     0.0000 
     30 H          45.2178  -20.6919   -6.0289 H         1 LWH1513     0.0000 
     31 H          46.7046  -19.8074   -4.3441 H         1 LWH1513     0.0000 
     32 H          47.9248  -17.7653   -4.7666 H         1 LWH1513     0.0000 
     33 H          45.8873  -16.7946  -11.6627 H         1 LWH1513     0.0000 
     34 H          45.2243  -14.8680  -10.9094 H         1 LWH1513     0.0000 
     35 H          43.9483  -15.4992   -9.8543 H         1 LWH1513     0.0000 
     36 H          42.8526  -16.5397  -13.5076 H         1 LWH1513     0.0000 
     37 H          44.5704  -16.1079  -13.4565 H         1 LWH1513     0.0000 
     38 H          43.1005  -17.8953  -11.5798 H         1 LWH1513     0.0000 
     39 H          44.4789  -18.2958  -12.6189 H         1 LWH1513     0.0000 
     40 H          44.8357  -18.7095   -9.8271 H         1 LWH1513     0.0000 
     41 H          50.1906  -12.0152   -7.0108 H         1 LWH1513     0.0000 
     42 H          49.7343  -10.9310   -9.1167 H         1 LWH1513     0.0000 
     43 H          47.3511  -14.1745  -10.2693 H         1 LWH1513     0.0000 
     44 H          48.7005   -9.7712  -10.8473 H         1 LWH1513     0.0000 
     45 H          48.0619   -9.3751  -13.2468 H         1 LWH1513     0.0000 
     46 H          47.6314  -13.3231  -12.4675 H         1 LWH1513     0.0000 
     47 H          48.7560  -15.2105   -6.2643 H         1 LWH1513     0.0000 
@<TRIPOS>BOND
     1    2    1 ar   
     2    6    1 ar   
     3   29    1 1    
     4    3    2 ar   
     5   30    2 1    
     6    4    3 ar   
     7   31    3 1    
     8    5    4 ar   
     9   32    4 1    
    10    6    5 ar   
    11   10    5 ar   
    12    7    6 ar   
    13    9    7 ar   
    14   15    7 1    
    15    9    8 ar   
    16   10    8 ar   
    17   17    8 1    
    18   12   11 1    
    19   14   11 1    
    20   15   11 1    
    21   33   11 1    
    22   16   12 1    
    23   34   12 1    
    24   35   12 1    
    25   14   13 1    
    26   16   13 1    
    27   36   13 1    
    28   37   13 1    
    29   38   14 1    
    30   39   14 1    
    31   40   15 1    
    32   18   17 ar   
    33   22   17 ar   
    34   19   18 ar   
    35   28   18 1    
    36   20   19 ar   
    37   41   19 1    
    38   21   20 ar   
    39   42   20 1    
    40   22   21 ar   
    41   23   21 1    
    42   43   22 1    
    43   24   23 2    
    44   26   23 1    
    45   25   24 1    
    46   44   24 1    
    47   27   25 2    
    48   45   25 1    
    49   27   26 1    
    50   46   26 1    
    51   47   28 1    
@<TRIPOS>SUBSTRUCTURE
     1 LWH1513     1 GROUP   
@<TRIPOS>SET

