#    Name: 1z8n_TPP_3_INTS_M
#    Modification time : Tue Mar 25 11:36:29 2014

@<TRIPOS>MOLECULE
1z8n_TPP_3_INTS_M
   75     0    12     0     0
SMALL
NO_CHARGES


@<TRIPOS>ATOM
      1 CA         65.2055   58.2115   39.4960 C.3       4 GLC5        0.0000 
      2 CA         63.9030   58.6930   38.2060 C.3      12 GLL5        0.0000 
      3 CA         66.5080   57.7300   40.7860 C.3       8 GLP5        0.0000 
      4 CA         65.7775   57.7825   37.4795 C.3       4 GLC5        0.0000 
      5 CA         67.6520   56.8720   36.7530 C.3       8 GLP5        0.0000 
      6 CA         65.9195   59.2310   38.6915 C.3       4 GLC5        0.0000 
      7 CA         64.5480   59.7780   37.4250 C.3      12 GLL5        0.0000 
      8 CA         67.2910   58.6840   39.9580 C.3       8 GLP5        0.0000 
      9 CA         66.3365   59.1615   36.8560 C.3       4 GLC5        0.0000 
     10 CA         68.1250   58.5450   36.2870 C.3       8 GLP5        0.0000 
     11 N          64.9250   59.8560   40.1015 N.am      2 SEC2        0.0000 
     12 N          63.6220   58.9520   39.5250 N.am     10 SEL2        0.0000 
     13 N          66.2280   60.7600   40.6780 N.am      6 SEP2        0.0000 
     14 CA         64.7505   57.8515   40.5945 C.3       4 GLC5        0.0000 
     15 CA         62.9930   57.9730   40.4030 C.3      12 GLL5        0.0000 
     16 O          63.0665   59.5210   42.2295 O.2       1 ALC1        0.0000 
     17 O          62.7710   58.3540   41.6810 O.2       9 ALL1        0.0000 
     18 O          63.3620   60.6880   42.7780 O.2       5 ALP1        0.0000 
     19 CA         65.5075   54.9045   40.2365 C.3       4 GLC5        0.0000 
     20 CA         64.5620   53.6200   40.5640 C.3      12 GLL5        0.0000 
     21 CA         66.4530   56.1890   39.9090 C.3       8 GLP5        0.0000 
     22 CA         66.0030   52.4965   40.0175 C.3       4 GLC5        0.0000 
     23 CA         67.4440   51.3730   39.4710 C.3       8 GLP5        0.0000 
     24 CA         63.4515   52.3500   41.4380 C.3       4 GLC5        0.0000 
     25 CA         62.3410   51.0800   42.3120 C.3       8 GLP5        0.0000 
     26 CA         66.3110   54.0100   45.2455 C.3       4 GLC5        0.0000 
     27 CA         65.7230   53.2010   43.6480 C.3      12 GLL5        0.0000 
     28 CA         66.8990   54.8190   46.8430 C.3       8 GLP5        0.0000 
     29 CA         65.0190   52.7395   45.2385 C.3       4 GLC5        0.0000 
     30 CA         64.3150   52.2780   46.8290 C.3       8 GLP5        0.0000 
     31 CA         64.0320   52.1405   42.9800 C.3       4 GLC5        0.0000 
     32 CA         67.5320   54.0990   41.5535 C.3       4 GLC5        0.0000 
     33 CA         66.9620   52.6620   42.8700 C.3      12 GLL5        0.0000 
     34 CA         68.1020   55.5360   40.2370 C.3       8 GLP5        0.0000 
     35 CA         67.2195   51.0250   42.3695 C.3       4 GLC5        0.0000 
     36 CA         67.4770   49.3880   41.8690 C.3       8 GLP5        0.0000 
     37 Zn         71.2850   51.2585   43.1095 Zn        3 ZIC7        0.0000 
     38 Zn         70.5330   51.9250   42.3830 Zn       11 ZIL7        0.0000 
     39 Zn         72.0370   50.5920   43.8360 Zn        7 ZIP7        0.0000 
     40 N          71.4470   52.4340   41.2800 N.am      2 SEC2        0.0000 
     41 N          70.5330   51.9250   42.3830 N.am     10 SEL2        0.0000 
     42 N          72.3610   52.9430   40.1770 N.am      6 SEP2        0.0000 
     43 N          70.9205   54.9210   41.4115 N.am      2 SEC2        0.0000 
     44 N          70.5520   54.2590   42.5500 N.am     10 SEL2        0.0000 
     45 N          71.2890   55.5830   40.2730 N.am      6 SEP2        0.0000 
     46 N          70.1615   55.8055   42.3440 N.am      2 SEC2        0.0000 
     47 N          69.7710   57.3520   42.1380 N.am      6 SEP2        0.0000 
     48 N          67.9405   52.6250   47.1460 N.am      2 SEC2        0.0000 
     49 N          68.1990   52.1320   45.9140 N.am     10 SEL2        0.0000 
     50 N          67.6820   53.1180   48.3780 N.am      6 SEP2        0.0000 
     51 N          66.9635   51.2435   46.0945 N.am      2 SEC2        0.0000 
     52 N          65.7280   50.3550   46.2750 N.am      6 SEP2        0.0000 
     53 N          70.4580   52.7995   47.9945 N.am      2 SEC2        0.0000 
     54 N          70.5550   52.1460   46.6520 N.am     10 SEL2        0.0000 
     55 N          70.3610   53.4530   49.3370 N.am      6 SEP2        0.0000 
     56 Zn         70.9355   50.5730   44.4125 Zn        3 ZIC7        0.0000 
     57 Zn         69.8340   50.5540   44.9890 Zn       11 ZIL7        0.0000 
     58 N          70.3955   49.0775   45.3310 N.am      2 SEC2        0.0000 
     59 N          69.8340   50.5540   44.9890 N.am     10 SEL2        0.0000 
     60 N          70.9570   47.6010   45.6730 N.am      6 SEP2        0.0000 
     61 N          68.8020   49.8150   44.6155 N.am      2 SEC2        0.0000 
     62 N          67.7700   49.0760   44.2420 N.am      6 SEP2        0.0000 
     63 CA         64.6150   56.3332   39.5403 C.3       4 GLC5        0.0000 
     64 CA         62.6160   56.5980   39.8900 C.3      12 GLL5        0.0000 
     65 CA         64.0068   56.7258   44.4417 C.3       4 GLC5        0.0000 
     66 CA         62.4400   55.4290   43.1060 C.3      12 GLL5        0.0000 
     67 CA         65.0540   58.3040   45.1240 C.3       8 GLP5        0.0000 
     68 CA         62.6502   53.1137   43.0358 C.3       4 GLC5        0.0000 
     69 CA         63.4790   54.8660   44.4130 C.3      12 GLL5        0.0000 
     70 CA         65.4423   54.6283   45.3328 C.3       4 GLC5        0.0000 
     71 CA         64.4920   54.0090   43.2320 C.3      12 GLL5        0.0000 
     72 CA         64.1502   53.3578   45.3257 C.3       4 GLC5        0.0000 
     73 CA         65.3415   55.1475   41.2302 C.3       4 GLC5        0.0000 
     74 CA         63.2855   52.5930   42.4317 C.3       4 GLC5        0.0000 
     75 CA         63.9680   54.2030   41.8710 C.3      12 GLL5        0.0000 
@<TRIPOS>BOND
@<TRIPOS>SUBSTRUCTURE
     1 ALC1       16 GROUP        1 X    ALC  0     ROOT ALC X 1
     2 SEC2       11 GROUP        1 X    SEC  0     **** SEC X 2
     3 ZIC7       37 GROUP        1 X    ZIC  0     **** ZIC X 5
     4 GLC5        1 GROUP        1 X    GLC  0     **** GLC X 6
     5 ALP1       18 GROUP        1 Y    ALP  0     ROOT ALP Y 8
     6 SEP2       13 GROUP        1 Y    SEP  0     **** SEP Y 9
     7 ZIP7       39 GROUP        1 Y    ZIP  0     **** ZIP Y 12
     8 GLP5        3 GROUP        1 Y    GLP  0     **** GLP Y 13
     9 ALL1       17 GROUP        1 Z    ALL  0     ROOT ALL Z 15
    10 SEL2       12 GROUP        1 Z    SEL  0     **** SEL Z 16
    11 ZIL7       38 GROUP        1 Z    ZIL  0     **** ZIL Z 19
    12 GLL5        2 GROUP        1 Z    GLL  0     **** GLL Z 20
@<TRIPOS>SET

