#    Name: 1z8n_TPP_3_ligand
#    Modification time : Tue Mar 25 11:36:29 2014

@<TRIPOS>MOLECULE
1z8n_TPP_3_ligand
   42    43     1     0     0
SMALL
NO_CHARGES


@<TRIPOS>ATOM
      1 N1'        63.5690   57.4120   37.6670 N.ar      1 TPP702      0.0000 
      2 C2'        63.9030   58.6930   38.2060 C.ar      1 TPP702      0.0000 
      3 CM2        64.5480   59.7780   37.4250 C.3       1 TPP702      0.0000 
      4 N3'        63.6220   58.9520   39.5250 N.ar      1 TPP702      0.0000 
      5 C4'        62.9930   57.9730   40.4030 C.ar      1 TPP702      0.0000 
      6 N4'        62.7710   58.3540   41.6810 N.pl3     1 TPP702      0.0000 
      7 C5'        62.6160   56.5980   39.8900 C.ar      1 TPP702      0.0000 
      8 C6'        62.9380   56.3570   38.4530 C.ar      1 TPP702      0.0000 
      9 C7'        61.9580   55.4730   40.7110 C.3       1 TPP702      0.0000 
     10 N3         62.8110   55.0170   41.8900 N.pl3     1 TPP702      0.0000 
     11 C2         62.4400   55.4290   43.1060 C.2       1 TPP702      0.0000 
     12 S1         63.4790   54.8660   44.4130 S.3       1 TPP702      0.0000 
     13 C5         64.4920   54.0090   43.2320 C.2       1 TPP702      0.0000 
     14 C4         63.9680   54.2030   41.8710 C.2       1 TPP702      0.0000 
     15 CM4        64.5620   53.6200   40.5640 C.3       1 TPP702      0.0000 
     16 C6         65.7230   53.2010   43.6480 C.3       1 TPP702      0.0000 
     17 C7         66.9620   52.6620   42.8700 C.3       1 TPP702      0.0000 
     18 O7         68.4230   53.2270   42.5480 O.3       1 TPP702      0.0000 
     19 PA         69.8760   53.0740   42.9440 P.3       1 TPP702      0.0000 
     20 O1A        70.5330   51.9250   42.3830 O.co2     1 TPP702      0.0000 
     21 O2A        70.5520   54.2590   42.5500 O.co2     1 TPP702      0.0000 
     22 O3A        70.0400   52.8950   44.5050 O.3       1 TPP702      0.0000 
     23 PB         69.5890   51.8570   45.6210 P.3       1 TPP702      0.0000 
     24 O1B        68.1990   52.1320   45.9140 O.co2     1 TPP702      0.0000 
     25 O2B        70.5550   52.1460   46.6520 O.co2     1 TPP702      0.0000 
     26 O3B        69.8340   50.5540   44.9890 O.co2     1 TPP702      0.0000 
     27 H          63.0368   59.2895   41.9138 H         1 TPP702      0.0000 
     28 H          62.3607   57.6665   42.2802 H         1 TPP702      0.0000 
     29 H          62.7171   55.4737   38.0451 H         1 TPP702      0.0000 
     30 H          61.7688   54.6189   40.0486 H         1 TPP702      0.0000 
     31 H          60.9884   55.8290   41.0813 H         1 TPP702      0.0000 
     32 H          61.7333   55.9663   43.4483 H         1 TPP702      0.0000 
     33 H          65.3072   52.2588   44.2557 H         1 TPP702      0.0000 
     34 H          66.1781   53.7630   44.6004 H         1 TPP702      0.0000 
     35 H          66.5444   52.2986   41.8077 H         1 TPP702      0.0000 
     36 H          67.1582   51.5600   43.2969 H         1 TPP702      0.0000 
     37 H          65.4395   59.4991   37.0680 H         1 TPP702      0.0000 
     38 H          63.9913   60.0527   36.6410 H         1 TPP702      0.0000 
     39 H          64.6973   60.5966   37.9797 H         1 TPP702      0.0000 
     40 H          64.8240   54.3401   39.9216 H         1 TPP702      0.0000 
     41 H          65.3799   53.0722   40.7398 H         1 TPP702      0.0000 
     42 H          63.9091   53.0285   40.0909 H         1 TPP702      0.0000 
@<TRIPOS>BOND
     1    2    1 ar   
     2    8    1 ar   
     3    3    2 1    
     4    4    2 ar   
     5   37    3 1    
     6   38    3 1    
     7   39    3 1    
     8    5    4 ar   
     9    6    5 1    
    10    7    5 ar   
    11   27    6 1    
    12   28    6 1    
    13    8    7 ar   
    14    9    7 1    
    15   29    8 1    
    16   10    9 1    
    17   30    9 1    
    18   31    9 1    
    19   11   10 2    
    20   14   10 1    
    21   12   11 1    
    22   32   11 1    
    23   13   12 1    
    24   14   13 2    
    25   16   13 1    
    26   15   14 1    
    27   40   15 1    
    28   41   15 1    
    29   42   15 1    
    30   17   16 1    
    31   33   16 1    
    32   34   16 1    
    33   18   17 1    
    34   35   17 1    
    35   36   17 1    
    36   19   18 1    
    37   20   19 ar   
    38   21   19 ar   
    39   22   19 1    
    40   23   22 1    
    41   24   23 ar   
    42   25   23 ar   
    43   26   23 ar   
@<TRIPOS>SUBSTRUCTURE
     1 TPP702      1 GROUP   
@<TRIPOS>SET

