#    Name: 1ytm_ATP_2_INTS_M
#    Modification time : Tue Mar 25 11:16:16 2014

@<TRIPOS>MOLECULE
1ytm_ATP_2_INTS_M
   86     0    15     0     0
SMALL
NO_CHARGES


@<TRIPOS>ATOM
      1 NZ         69.6340   83.3600   42.0720 N.4       3 LYC4        0.0000 
      2 NZ         69.7470   82.4870   43.0650 N.4      13 LYL4        0.0000 
      3 NZ         69.5210   84.2330   41.0790 N.4       8 LYP4        0.0000 
      4 Zn         70.7500   81.8750   42.9125 Zn        4 ZIC7        0.0000 
      5 Zn         69.7470   82.4870   43.0650 Zn       14 ZIL7        0.0000 
      6 Zn         71.7530   81.2630   42.7600 Zn        9 ZIP7        0.0000 
      7 N          69.6340   83.3600   42.0720 N.am      2 SEC2        0.0000 
      8 N          69.7470   82.4870   43.0650 N.am     12 SEL2        0.0000 
      9 N          69.5210   84.2330   41.0790 N.am      7 SEP2        0.0000 
     10 NZ         69.3600   81.7130   46.7685 N.4       3 LYC4        0.0000 
     11 NZ         69.5690   82.4270   45.5280 N.4      13 LYL4        0.0000 
     12 NZ         68.4760   79.8510   47.8930 N.4       8 LYP4        0.0000 
     13 N          69.1175   83.8725   45.6320 N.am      2 SEC2        0.0000 
     14 N          69.5690   82.4270   45.5280 N.am     12 SEL2        0.0000 
     15 N          68.6660   85.3180   45.7360 N.am      7 SEP2        0.0000 
     16 N          69.3600   81.7130   46.7685 N.am      2 SEC2        0.0000 
     17 N          69.1510   80.9990   48.0090 N.am      7 SEP2        0.0000 
     18 NZ         68.2380   80.1090   45.4565 N.4       3 LYC4        0.0000 
     19 NZ         68.3220   80.8400   44.2190 N.4      13 LYL4        0.0000 
     20 Zn         67.4880   80.6495   43.4840 Zn        4 ZIC7        0.0000 
     21 Zn         68.3220   80.8400   44.2190 Zn       14 ZIL7        0.0000 
     22 Zn         66.6540   80.4590   42.7490 Zn        9 ZIP7        0.0000 
     23 N          68.2380   80.1090   45.4565 N.am      2 SEC2        0.0000 
     24 N          68.3220   80.8400   44.2190 N.am     12 SEL2        0.0000 
     25 N          68.1540   79.3780   46.6940 N.am      7 SEP2        0.0000 
     26 NZ         68.3145   84.5375   41.7385 N.4       3 LYC4        0.0000 
     27 NZ         67.1080   84.8420   42.3980 N.4      13 LYL4        0.0000 
     28 N          67.0905   86.1455   43.4740 N.am      2 SEC2        0.0000 
     29 N          67.1080   84.8420   42.3980 N.am     12 SEL2        0.0000 
     30 N          67.0730   87.4490   44.5500 N.am      7 SEP2        0.0000 
     31 N          65.9935   86.0260   42.5655 N.am      2 SEC2        0.0000 
     32 N          64.8790   87.2100   42.7330 N.am      7 SEP2        0.0000 
     33 N          66.0235   85.1250   41.4375 N.am      2 SEC2        0.0000 
     34 N          64.9390   85.4080   40.4770 N.am      7 SEP2        0.0000 
     35 N          68.3145   84.5375   41.7385 N.am      2 SEC2        0.0000 
     36 Zn         66.2870   81.5370   42.6330 Zn        4 ZIC7        0.0000 
     37 Zn         65.9200   82.6150   42.5170 Zn       14 ZIL7        0.0000 
     38 N          64.9865   82.6095   41.4930 N.am      2 SEC2        0.0000 
     39 N          65.9200   82.6150   42.5170 N.am     12 SEL2        0.0000 
     40 N          64.0530   82.6040   40.4690 N.am      7 SEP2        0.0000 
     41 N          68.1815   84.3045   45.0470 N.am      2 SEC2        0.0000 
     42 N          67.6970   83.2910   44.3580 N.am     12 SEL2        0.0000 
     43 N          62.3510   83.5450   42.2610 N.am      2 SEC2        0.0000 
     44 N          63.3040   84.1170   43.1460 N.am     12 SEL2        0.0000 
     45 N          61.3980   82.9730   41.3760 N.am      7 SEP2        0.0000 
     46 N          61.9045   84.2515   43.4105 N.am      2 SEC2        0.0000 
     47 N          60.5050   84.3860   43.6750 N.am      7 SEP2        0.0000 
     48 N          65.2310   85.7795   43.5070 N.am      2 SEC2        0.0000 
     49 N          65.5830   84.3490   44.2810 N.am     12 SEL2        0.0000 
     50 CA         65.3350   86.0360   45.9235 C.3       5 GLC5        0.0000 
     51 CA         63.2000   86.2140   45.4650 C.3      15 GLL5        0.0000 
     52 CA         67.4700   85.8580   46.3820 C.3      10 GLP5        0.0000 
     53 CA         64.8220   87.4275   44.7185 C.3       5 GLC5        0.0000 
     54 CA         66.4440   88.6410   43.9720 C.3      10 GLP5        0.0000 
     55 CA         63.4605   86.6070   43.6670 C.3       5 GLC5        0.0000 
     56 CA         63.7210   87.0000   41.8690 C.3      10 GLP5        0.0000 
     57 N          62.4005   89.3115   47.5200 N.am      2 SEC2        0.0000 
     58 N          62.0830   87.9640   46.7240 N.am     12 SEL2        0.0000 
     59 N          62.7180   90.6590   48.3160 N.am      7 SEP2        0.0000 
     60 N          62.5530   89.5165   46.4055 N.am      2 SEC2        0.0000 
     61 N          63.0230   91.0690   46.0870 N.am      7 SEP2        0.0000 
     62 CA         61.2430   91.6340   42.6930 C.3       5 GLC5        0.0000 
     63 CA         59.4560   91.0780   43.2610 C.3      15 GLL5        0.0000 
     64 CA         63.0300   92.1900   42.1250 C.3      10 GLP5        0.0000 
     65 CA         58.5155   91.7190   41.4470 C.3       5 GLC5        0.0000 
     66 CA         57.5750   92.3600   39.6330 C.3      10 GLP5        0.0000 
     67 O          58.1155   93.2520   43.7710 O.2       1 ALC1        0.0000 
     68 O          58.8830   92.2410   42.9270 O.2      11 ALL1        0.0000 
     69 O          57.3480   94.2630   44.6150 O.2       6 ALP1        0.0000 
     70 O          58.4000   92.8155   41.7450 O.2       1 ALC1        0.0000 
     71 O          57.9170   93.3900   40.5630 O.2       6 ALP1        0.0000 
     72 CA         62.1440   88.0560   42.2405 C.3       5 GLC5        0.0000 
     73 CA         60.5670   89.1120   42.6120 C.3      15 GLL5        0.0000 
     74 CA         60.2575   86.9175   42.5070 C.3       5 GLC5        0.0000 
     75 CA         59.9480   84.7230   42.4020 C.3      10 GLP5        0.0000 
     76 CA         60.4795   88.4040   40.7435 C.3       5 GLC5        0.0000 
     77 CA         60.3920   87.6960   38.8750 C.3      10 GLP5        0.0000 
     78 CA         61.6875   90.4070   41.6600 C.3       5 GLC5        0.0000 
     79 CA         62.8080   91.7020   40.7080 C.3      10 GLP5        0.0000 
     80 CA         58.6185   88.7465   42.5100 C.3       5 GLC5        0.0000 
     81 CA         56.6700   88.3810   42.4080 C.3      10 GLP5        0.0000 
     82 CA         63.3600   85.0071   47.7216 C.3       5 GLC5        0.0000 
     83 CA         62.4980   86.5830   46.7780 C.3      15 GLL5        0.0000 
     84 CA         64.6910   83.9510   48.8650 C.3      10 GLP5        0.0000 
     85 CA         58.2541   89.2527   43.3890 C.3       5 GLC5        0.0000 
     86 CA         59.5470   90.6220   44.6090 C.3      15 GLL5        0.0000 
@<TRIPOS>BOND
@<TRIPOS>SUBSTRUCTURE
     1 ALC1       67 GROUP        1 X    ALC  0     ROOT ALC X 1
     2 SEC2        7 GROUP        1 X    SEC  0     **** SEC X 2
     3 LYC4        1 GROUP        1 X    LYC  0     **** LYC X 4
     4 ZIC7        4 GROUP        1 X    ZIC  0     **** ZIC X 5
     5 GLC5       50 GROUP        1 X    GLC  0     **** GLC X 6
     6 ALP1       69 GROUP        1 Y    ALP  0     ROOT ALP Y 8
     7 SEP2        9 GROUP        1 Y    SEP  0     **** SEP Y 9
     8 LYP4        3 GROUP        1 Y    LYP  0     **** LYP Y 11
     9 ZIP7        6 GROUP        1 Y    ZIP  0     **** ZIP Y 12
    10 GLP5       52 GROUP        1 Y    GLP  0     **** GLP Y 13
    11 ALL1       68 GROUP        1 Z    ALL  0     ROOT ALL Z 15
    12 SEL2        8 GROUP        1 Z    SEL  0     **** SEL Z 16
    13 LYL4        2 GROUP        1 Z    LYL  0     **** LYL Z 18
    14 ZIL7        5 GROUP        1 Z    ZIL  0     **** ZIL Z 19
    15 GLL5       51 GROUP        1 Z    GLL  0     **** GLL Z 20
@<TRIPOS>SET

