#    Name: 1ytm_ATP_2_ligand
#    Modification time : Tue Mar 25 11:16:16 2014

@<TRIPOS>MOLECULE
1ytm_ATP_2_ligand
   43    45     1     0     0
SMALL
NO_CHARGES


@<TRIPOS>ATOM
      1 PG         68.9260   82.1510   44.2470 P.3       1 ATP1541     0.0000 
      2 O1G        69.7470   82.4870   43.0650 O.co2     1 ATP1541     0.0000 
      3 O2G        69.5690   82.4270   45.5280 O.co2     1 ATP1541     0.0000 
      4 O3G        68.3220   80.8400   44.2190 O.co2     1 ATP1541     0.0000 
      5 PB         66.5980   83.7180   43.2250 P.3       1 ATP1541     0.0000 
      6 O1B        67.1080   84.8420   42.3980 O.co2     1 ATP1541     0.0000 
      7 O2B        65.9200   82.6150   42.5170 O.co2     1 ATP1541     0.0000 
      8 O3B        67.6970   83.2910   44.3580 O.3       1 ATP1541     0.0000 
      9 PA         64.0250   83.8300   44.4040 P.3       1 ATP1541     0.0000 
     10 O1A        63.3040   84.1170   43.1460 O.co2     1 ATP1541     0.0000 
     11 O2A        63.9730   82.4750   44.9970 O.co2     1 ATP1541     0.0000 
     12 O3A        65.5830   84.3490   44.2810 O.3       1 ATP1541     0.0000 
     13 O5'        63.6040   84.8440   45.5570 O.3       1 ATP1541     0.0000 
     14 C5'        63.2000   86.2140   45.4650 C.3       1 ATP1541     0.0000 
     15 C4'        62.4980   86.5830   46.7780 C.3       1 ATP1541     0.0000 
     16 O4'        62.0830   87.9640   46.7240 O.3       1 ATP1541     0.0000 
     17 C3'        61.2090   85.7280   47.0350 C.3       1 ATP1541     0.0000 
     18 O3'        61.1380   85.4470   48.4700 O.3       1 ATP1541     0.0000 
     19 C2'        60.0960   86.6870   46.6200 C.3       1 ATP1541     0.0000 
     20 O2'        58.8630   86.4910   47.3360 O.3       1 ATP1541     0.0000 
     21 C1'        60.6710   88.0530   46.9710 C.3       1 ATP1541     0.0000 
     22 N9         60.1420   89.1890   46.1710 N.pl3     1 ATP1541     0.0000 
     23 C8         59.4950   90.2850   46.7060 C.2       1 ATP1541     0.0000 
     24 N7         59.1210   91.1640   45.8120 N.2       1 ATP1541     0.0000 
     25 C5         59.5470   90.6220   44.6090 C.ar      1 ATP1541     0.0000 
     26 C6         59.4560   91.0780   43.2610 C.ar      1 ATP1541     0.0000 
     27 N6         58.8830   92.2410   42.9270 N.pl3     1 ATP1541     0.0000 
     28 N1         59.9890   90.2790   42.2760 N.ar      1 ATP1541     0.0000 
     29 C2         60.5670   89.1120   42.6120 C.ar      1 ATP1541     0.0000 
     30 N3         60.7190   88.5780   43.8400 N.ar      1 ATP1541     0.0000 
     31 C4         60.1750   89.3990   44.8050 C.ar      1 ATP1541     0.0000 
     32 H          62.4958   86.3775   44.6534 H         1 ATP1541     0.0000 
     33 H          64.0488   86.8817   45.3420 H         1 ATP1541     0.0000 
     34 H          63.1670   86.4196   47.5984 H         1 ATP1541     0.0000 
     35 H          61.2308   84.9039   46.4293 H         1 ATP1541     0.0000 
     36 H          59.9862   86.6452   45.5646 H         1 ATP1541     0.0000 
     37 H          60.5062   88.2324   48.0238 H         1 ATP1541     0.0000 
     38 H          59.3440   90.3648   47.6938 H         1 ATP1541     0.0000 
     39 H          58.9215   92.4884   41.9589 H         1 ATP1541     0.0000 
     40 H          58.4679   92.7579   43.6756 H         1 ATP1541     0.0000 
     41 H          60.9675   88.5160   41.7780 H         1 ATP1541     0.0000 
     42 H          60.2306   85.7601   48.7503 H         1 ATP1541     0.0000 
     43 H          58.5168   87.4125   47.5120 H         1 ATP1541     0.0000 
@<TRIPOS>BOND
     1    2    1 ar   
     2    3    1 ar   
     3    4    1 ar   
     4    8    1 1    
     5    6    5 ar   
     6    7    5 ar   
     7    8    5 1    
     8   12    5 1    
     9   10    9 ar   
    10   11    9 ar   
    11   12    9 1    
    12   13    9 1    
    13   14   13 1    
    14   15   14 1    
    15   32   14 1    
    16   33   14 1    
    17   16   15 1    
    18   17   15 1    
    19   34   15 1    
    20   21   16 1    
    21   18   17 1    
    22   19   17 1    
    23   35   17 1    
    24   42   18 1    
    25   20   19 1    
    26   21   19 1    
    27   36   19 1    
    28   43   20 1    
    29   22   21 1    
    30   37   21 1    
    31   23   22 1    
    32   31   22 1    
    33   24   23 2    
    34   38   23 1    
    35   25   24 1    
    36   26   25 ar   
    37   31   25 ar   
    38   27   26 1    
    39   28   26 ar   
    40   39   27 1    
    41   40   27 1    
    42   29   28 ar   
    43   30   29 ar   
    44   41   29 1    
    45   31   30 ar   
@<TRIPOS>SUBSTRUCTURE
     1 ATP1541     1 GROUP   
@<TRIPOS>SET

