#    Name: 3q8u_ADP_1_INTS_M
#    Modification time : Tue Mar 25 09:04:14 2014

@<TRIPOS>MOLECULE
3q8u_ADP_1_INTS_M
   55     0    12     0     0
SMALL
NO_CHARGES


@<TRIPOS>ATOM
      1 Zn        -12.3850   22.4430  -18.7715 Zn        3 ZIC7        0.0000 
      2 Zn        -11.8300   23.6330  -18.3360 Zn       11 ZIL7        0.0000 
      3 Zn        -12.9400   21.2530  -19.2070 Zn        7 ZIP7        0.0000 
      4 NZ        -10.9140   26.4030  -16.1975 N.4       2 LYC4        0.0000 
      5 NZ        -11.5940   25.2330  -16.4160 N.4      10 LYL4        0.0000 
      6 NZ        -10.5670   28.7660  -16.4890 N.4       6 LYP4        0.0000 
      7 N         -12.1195   25.1730  -15.2330 N.am      1 SEC2        0.0000 
      8 N         -11.5940   25.2330  -16.4160 N.am      9 SEL2        0.0000 
      9 N         -12.6450   25.1130  -14.0500 N.am      5 SEP2        0.0000 
     10 N         -10.9140   26.4030  -16.1975 N.am      1 SEC2        0.0000 
     11 N         -10.2340   27.5730  -15.9790 N.am      5 SEP2        0.0000 
     12 Zn        -13.7740   21.8520  -18.9005 Zn        3 ZIC7        0.0000 
     13 Zn        -14.6080   22.4510  -18.5940 Zn       11 ZIL7        0.0000 
     14 N         -15.9075   22.0850  -19.2750 N.am      1 SEC2        0.0000 
     15 N         -14.6080   22.4510  -18.5940 N.am      9 SEL2        0.0000 
     16 N         -17.2070   21.7190  -19.9560 N.am      5 SEP2        0.0000 
     17 N         -13.1780   24.6080  -15.4040 N.am      1 SEC2        0.0000 
     18 N         -13.7110   24.1030  -16.7580 N.am      9 SEL2        0.0000 
     19 CA        -17.1860   23.3815  -19.7540 C.3       4 GLC5        0.0000 
     20 CA        -15.9880   24.7680  -18.9100 C.3      12 GLL5        0.0000 
     21 CA        -18.3840   21.9950  -20.5980 C.3       8 GLP5        0.0000 
     22 CA        -17.9900   27.1310  -19.9425 C.3       4 GLC5        0.0000 
     23 CA        -16.6360   26.1430  -18.7830 C.3      12 GLL5        0.0000 
     24 CA        -19.3440   28.1190  -21.1020 C.3       8 GLP5        0.0000 
     25 N         -14.3445   28.7140  -17.1170 N.am      1 SEC2        0.0000 
     26 N         -14.8380   27.5960  -18.0600 N.am      9 SEL2        0.0000 
     27 N         -13.8510   29.8320  -16.1740 N.am      5 SEP2        0.0000 
     28 N         -15.8880   29.3910  -19.1115 N.am      1 SEC2        0.0000 
     29 N         -17.0550   29.0970  -18.2080 N.am      9 SEL2        0.0000 
     30 N         -14.7210   29.6850  -20.0150 N.am      5 SEP2        0.0000 
     31 CA        -19.6480   25.6240  -17.4515 C.3       4 GLC5        0.0000 
     32 CA        -18.3660   27.1250  -17.5220 C.3      12 GLL5        0.0000 
     33 CA        -20.9300   24.1230  -17.3810 C.3       8 GLP5        0.0000 
     34 CA        -19.9960   28.2630  -12.2900 C.3       4 GLC5        0.0000 
     35 CA        -20.8040   26.7300  -13.1460 C.3      12 GLL5        0.0000 
     36 CA        -19.1880   29.7960  -11.4340 C.3       8 GLP5        0.0000 
     37 CA        -22.5780   27.4725  -15.3560 C.3       4 GLC5        0.0000 
     38 CA        -21.5550   28.4540  -14.5810 C.3      12 GLL5        0.0000 
     39 CA        -23.6010   26.4910  -16.1310 C.3       8 GLP5        0.0000 
     40 CA        -20.3715   29.1250  -13.0075 C.3       4 GLC5        0.0000 
     41 CA        -20.4835   30.0410  -15.1050 C.3       4 GLC5        0.0000 
     42 CA        -19.4120   31.6280  -15.6290 C.3       8 GLP5        0.0000 
     43 CA        -19.5825   29.3930  -15.5225 C.3       4 GLC5        0.0000 
     44 CA        -19.7530   27.1580  -15.4160 C.3      12 GLL5        0.0000 
     45 CA        -16.4085   25.4207  -20.7722 C.3       4 GLC5        0.0000 
     46 CA        -16.5050   25.3860  -22.6980 C.3       8 GLP5        0.0000 
     47 CA        -15.5670   27.0115  -15.9050 C.3       4 GLC5        0.0000 
     48 CA        -16.0310   26.9660  -17.6610 C.3      12 GLL5        0.0000 
     49 CA        -14.5680   26.5590  -14.3150 C.3       8 GLP5        0.0000 
     50 CA        -18.5388   27.8313  -19.2637 C.3       4 GLC5        0.0000 
     51 CA        -17.1010   27.9620  -17.3290 C.3      12 GLL5        0.0000 
     52 CA        -18.4535   27.6512  -13.5855 C.3       4 GLC5        0.0000 
     53 CA        -19.7870   26.3650  -14.1780 C.3      12 GLL5        0.0000 
     54 CA        -17.1370   28.5410  -12.3740 C.3       8 GLP5        0.0000 
     55 CA        -21.8126   26.6719  -15.3350 C.3       4 GLC5        0.0000 
@<TRIPOS>BOND
@<TRIPOS>SUBSTRUCTURE
     1 SEC2        7 GROUP        1 X    SEC  0     ROOT SEC X 2
     2 LYC4        4 GROUP        1 X    LYC  0     **** LYC X 4
     3 ZIC7        1 GROUP        1 X    ZIC  0     **** ZIC X 5
     4 GLC5       19 GROUP        1 X    GLC  0     **** GLC X 6
     5 SEP2        9 GROUP        1 Y    SEP  0     ROOT SEP Y 9
     6 LYP4        6 GROUP        1 Y    LYP  0     **** LYP Y 11
     7 ZIP7        3 GROUP        1 Y    ZIP  0     **** ZIP Y 12
     8 GLP5       21 GROUP        1 Y    GLP  0     **** GLP Y 13
     9 SEL2        8 GROUP        1 Z    SEL  0     ROOT SEL Z 16
    10 LYL4        5 GROUP        1 Z    LYL  0     **** LYL Z 18
    11 ZIL7        2 GROUP        1 Z    ZIL  0     **** ZIL Z 19
    12 GLL5       20 GROUP        1 Z    GLL  0     **** GLL Z 20
@<TRIPOS>SET

