#    Name: 3q8u_ADP_1_ligand
#    Modification time : Tue Mar 25 09:04:14 2014

@<TRIPOS>MOLECULE
3q8u_ADP_1_ligand
   39    41     1     0     0
SMALL
NO_CHARGES


@<TRIPOS>ATOM
      1 PB        -12.4480   24.7650  -17.5500 P.3       1 ADP158      0.0000 
      2 O1B       -11.8300   23.6330  -18.3360 O.co2     1 ADP158      0.0000 
      3 O2B       -11.5940   25.2330  -16.4160 O.co2     1 ADP158      0.0000 
      4 O3B       -13.0500   25.8480  -18.4160 O.co2     1 ADP158      0.0000 
      5 PA        -14.8990   23.0750  -17.2620 P.3       1 ADP158      0.0000 
      6 O1A       -15.2570   22.2340  -16.0580 O.co2     1 ADP158      0.0000 
      7 O2A       -14.6080   22.4510  -18.5940 O.co2     1 ADP158      0.0000 
      8 O3A       -13.7110   24.1030  -16.7580 O.3       1 ADP158      0.0000 
      9 O5'       -16.0720   24.1120  -17.6370 O.3       1 ADP158      0.0000 
     10 C5'       -15.9880   24.7680  -18.9100 C.3       1 ADP158      0.0000 
     11 C4'       -16.6360   26.1430  -18.7830 C.3       1 ADP158      0.0000 
     12 O4'       -17.9760   26.0120  -18.3330 O.3       1 ADP158      0.0000 
     13 C3'       -16.0310   26.9660  -17.6610 C.3       1 ADP158      0.0000 
     14 O3'       -14.8380   27.5960  -18.0600 O.3       1 ADP158      0.0000 
     15 C2'       -17.1010   27.9620  -17.3290 C.3       1 ADP158      0.0000 
     16 O2'       -17.0550   29.0970  -18.2080 O.3       1 ADP158      0.0000 
     17 C1'       -18.3660   27.1250  -17.5220 C.3       1 ADP158      0.0000 
     18 N9        -18.7870   26.6380  -16.1810 N.pl3     1 ADP158      0.0000 
     19 C8        -18.2150   25.6260  -15.4970 C.2       1 ADP158      0.0000 
     20 N7        -18.8070   25.4580  -14.2840 N.2       1 ADP158      0.0000 
     21 C5        -19.7870   26.3650  -14.1780 C.ar      1 ADP158      0.0000 
     22 C6        -20.8040   26.7300  -13.1460 C.ar      1 ADP158      0.0000 
     23 N6        -20.8750   26.0500  -11.9570 N.pl3     1 ADP158      0.0000 
     24 N1        -21.6410   27.7580  -13.4200 N.ar      1 ADP158      0.0000 
     25 C2        -21.5550   28.4540  -14.5810 C.ar      1 ADP158      0.0000 
     26 N3        -20.6620   28.1550  -15.5590 N.ar      1 ADP158      0.0000 
     27 C4        -19.7530   27.1580  -15.4160 C.ar      1 ADP158      0.0000 
     28 H         -16.5180   24.2150  -19.6848 H         1 ADP158      0.0000 
     29 H         -14.9543   24.9094  -19.2238 H         1 ADP158      0.0000 
     30 H         -16.5752   26.6817  -19.6795 H         1 ADP158      0.0000 
     31 H         -15.9079   26.3158  -16.8143 H         1 ADP158      0.0000 
     32 H         -17.0266   28.2086  -16.3008 H         1 ADP158      0.0000 
     33 H         -19.1029   27.7157  -17.9646 H         1 ADP158      0.0000 
     34 H         -17.4696   25.0792  -15.8257 H         1 ADP158      0.0000 
     35 H         -21.5765   26.3588  -11.3147 H         1 ADP158      0.0000 
     36 H         -20.2191   25.3049  -11.8364 H         1 ADP158      0.0000 
     37 H         -22.2156   29.2696  -14.7324 H         1 ADP158      0.0000 
     38 H         -14.3651   26.9202  -18.6253 H         1 ADP158      0.0000 
     39 H         -16.1887   29.0084  -18.6997 H         1 ADP158      0.0000 
@<TRIPOS>BOND
     1    2    1 ar   
     2    3    1 ar   
     3    4    1 ar   
     4    8    1 1    
     5    6    5 ar   
     6    7    5 ar   
     7    8    5 1    
     8    9    5 1    
     9   10    9 1    
    10   11   10 1    
    11   28   10 1    
    12   29   10 1    
    13   12   11 1    
    14   13   11 1    
    15   30   11 1    
    16   17   12 1    
    17   14   13 1    
    18   15   13 1    
    19   31   13 1    
    20   38   14 1    
    21   16   15 1    
    22   17   15 1    
    23   32   15 1    
    24   39   16 1    
    25   18   17 1    
    26   33   17 1    
    27   19   18 1    
    28   27   18 1    
    29   20   19 2    
    30   34   19 1    
    31   21   20 1    
    32   22   21 ar   
    33   27   21 ar   
    34   23   22 1    
    35   24   22 ar   
    36   35   23 1    
    37   36   23 1    
    38   25   24 ar   
    39   26   25 ar   
    40   37   25 1    
    41   27   26 ar   
@<TRIPOS>SUBSTRUCTURE
     1 ADP158      1 GROUP   
@<TRIPOS>SET

