#    Name: 4c71_7RD_2_INTS_M
#    Modification time : Tue Mar 25 09:02:54 2014

@<TRIPOS>MOLECULE
4c71_7RD_2_INTS_M
   68     0     6     0     0
SMALL
NO_CHARGES


@<TRIPOS>ATOM
      1 N          -9.7855  -25.9920   39.2225 N.am      1 SEC2        0.0000 
      2 N         -10.9770  -25.9310   40.0210 N.am      5 SEL2        0.0000 
      3 N          -8.5940  -26.0530   38.4240 N.am      3 SEP2        0.0000 
      4 CA         -9.7995  -24.7485   39.9265 C.3       2 GLC5        0.0000 
      5 CA        -10.7640  -25.8570   41.4420 C.3       6 GLL5        0.0000 
      6 CA         -8.8350  -23.6400   38.4110 C.3       4 GLP5        0.0000 
      7 CA        -11.3315  -24.2600   41.6175 C.3       2 GLC5        0.0000 
      8 CA        -11.8990  -22.6630   41.7930 C.3       4 GLP5        0.0000 
      9 CA         -8.5795  -28.0185   40.9250 C.3       2 GLC5        0.0000 
     10 CA         -9.7370  -26.9360   41.7010 C.3       6 GLL5        0.0000 
     11 CA         -7.4220  -29.1010   40.1490 C.3       4 GLP5        0.0000 
     12 CA         -7.8455  -27.5600   41.8355 C.3       2 GLC5        0.0000 
     13 CA         -9.2580  -26.9420   43.1250 C.3       6 GLL5        0.0000 
     14 CA         -6.4330  -28.1780   40.5460 C.3       4 GLP5        0.0000 
     15 N          -7.8675  -21.9415   41.7850 N.am      1 SEC2        0.0000 
     16 N          -8.2170  -23.3070   41.5430 N.am      5 SEL2        0.0000 
     17 N          -7.5180  -20.5760   42.0270 N.am      3 SEP2        0.0000 
     18 N          -9.5045  -22.8400   41.2835 N.am      1 SEC2        0.0000 
     19 N         -10.7920  -22.3730   41.0240 N.am      3 SEP2        0.0000 
     20 CA         -6.8495  -23.0095   40.1030 C.3       2 GLC5        0.0000 
     21 CA         -5.6670  -23.7030   41.8390 C.3       6 GLL5        0.0000 
     22 CA         -8.0320  -22.3160   38.3670 C.3       4 GLP5        0.0000 
     23 CA         -6.3010  -21.9145   42.5155 C.3       2 GLC5        0.0000 
     24 CA         -6.9350  -20.1260   43.1920 C.3       4 GLP5        0.0000 
     25 CA         -4.3535  -22.1380   41.8260 C.3       2 GLC5        0.0000 
     26 CA         -3.0400  -20.5730   41.8130 C.3       4 GLP5        0.0000 
     27 CA         -4.8475  -23.3400   40.0030 C.3       2 GLC5        0.0000 
     28 CA         -4.0280  -22.9770   38.1670 C.3       4 GLP5        0.0000 
     29 CA         -3.1730  -24.7495   45.3770 C.3       2 GLC5        0.0000 
     30 CA         -4.5650  -23.9960   44.2980 C.3       6 GLL5        0.0000 
     31 CA         -1.7810  -25.5030   46.4560 C.3       4 GLP5        0.0000 
     32 CA         -4.7580  -24.1820   46.4595 C.3       2 GLC5        0.0000 
     33 CA         -4.9510  -24.3680   48.6210 C.3       4 GLP5        0.0000 
     34 CA         -3.8025  -22.2845   43.0555 C.3       2 GLC5        0.0000 
     35 CA         -1.5515  -24.5725   43.6605 C.3       2 GLC5        0.0000 
     36 CA         -2.3350  -24.3060   41.8300 C.3       6 GLL5        0.0000 
     37 CA         -0.7680  -24.8390   45.4910 C.3       4 GLP5        0.0000 
     38 CA         -2.6875  -22.4395   41.8215 C.3       2 GLC5        0.0000 
     39 CA         -3.1815  -23.6415   39.9985 C.3       2 GLC5        0.0000 
     40 CA          0.2765  -25.8190   39.9790 C.3       2 GLC5        0.0000 
     41 CA         -0.8970  -26.7180   41.0230 C.3       6 GLL5        0.0000 
     42 CA          1.4500  -24.9200   38.9350 C.3       4 GLP5        0.0000 
     43 CA        -11.5843  -27.3353   42.3503 C.3       2 GLC5        0.0000 
     44 CA        -12.9180  -28.2740   43.1290 C.3       4 GLP5        0.0000 
     45 CA        -10.9555  -26.8083   43.7763 C.3       2 GLC5        0.0000 
     46 CA        -12.8490  -27.3690   44.1990 C.3       4 GLP5        0.0000 
     47 CA         -9.3425  -26.6247   45.3983 C.3       2 GLC5        0.0000 
     48 CA         -9.6230  -27.0020   47.4430 C.3       4 GLP5        0.0000 
     49 CA         -8.6870  -23.7107   44.0353 C.3       2 GLC5        0.0000 
     50 CA         -8.8660  -25.5530   43.5820 C.3       6 GLL5        0.0000 
     51 CA         -9.1770  -22.0950   44.7480 C.3       4 GLP5        0.0000 
     52 CA         -6.2154  -26.6481   41.8744 C.3       2 GLC5        0.0000 
     53 CA         -5.0550  -24.9000   43.1120 C.3       6 GLL5        0.0000 
     54 CA         -4.4810  -26.7660   40.9518 C.3       2 GLC5        0.0000 
     55 CA         -4.0960  -25.9000   42.5650 C.3       6 GLL5        0.0000 
     56 CA         -5.4690  -27.7360   39.6030 C.3       4 GLP5        0.0000 
     57 CA         -2.9194  -26.2030   44.1011 C.3       2 GLC5        0.0000 
     58 CA         -2.8900  -25.6920   42.0360 C.3       6 GLL5        0.0000 
     59 CA         -2.1060  -26.8600   45.7650 C.3       4 GLP5        0.0000 
     60 CA         -2.1365  -28.6640   41.0965 C.3       2 GLC5        0.0000 
     61 CA         -2.0690  -26.7800   41.5750 C.3       6 GLL5        0.0000 
     62 CA         -2.7900  -30.5790   40.8940 C.3       4 GLP5        0.0000 
     63 CA         -1.5070  -28.0740   42.7955 C.3       2 GLC5        0.0000 
     64 CA         -1.5310  -29.3990   44.2920 C.3       4 GLP5        0.0000 
     65 CA         -0.7135  -26.3795   43.1180 C.3       2 GLC5        0.0000 
     66 CA          0.0560  -26.0100   44.9370 C.3       4 GLP5        0.0000 
     67 CA         -2.4895  -26.7330   39.5475 C.3       2 GLC5        0.0000 
     68 CA         -3.4960  -26.7170   37.7960 C.3       4 GLP5        0.0000 
@<TRIPOS>BOND
@<TRIPOS>SUBSTRUCTURE
     1 SEC2        1 GROUP        1 X    SEC  0     ROOT SEC X 2
     2 GLC5        4 GROUP        1 X    GLC  0     **** GLC X 6
     3 SEP2        3 GROUP        1 Y    SEP  0     ROOT SEP Y 9
     4 GLP5        6 GROUP        1 Y    GLP  0     **** GLP Y 13
     5 SEL2        2 GROUP        1 Z    SEL  0     ROOT SEL Z 16
     6 GLL5        5 GROUP        1 Z    GLL  0     **** GLL Z 20
@<TRIPOS>SET

