#    Name: 4c71_7RD_2_ligand
#    Modification time : Tue Mar 25 09:02:54 2014

@<TRIPOS>MOLECULE
4c71_7RD_2_ligand
   37    37     1     0     0
SMALL
NO_CHARGES


@<TRIPOS>ATOM
      1 N2        -13.1570  -25.2860   39.4190 N.pl3     1 7RD1419     0.0000 
      2 N1        -12.0830  -25.5900   39.6350 N.1       1 7RD1419     0.0000 
      3 N         -10.9770  -25.9310   40.0210 N.2       1 7RD1419     0.0000 
      4 C12       -10.7640  -25.8570   41.4420 C.3       1 7RD1419     0.0000 
      5 C11        -9.7370  -26.9360   41.7010 C.3       1 7RD1419     0.0000 
      6 C10        -9.2580  -26.9420   43.1250 C.3       1 7RD1419     0.0000 
      7 C9         -8.8660  -25.5530   43.5820 C.3       1 7RD1419     0.0000 
      8 C8         -7.5280  -25.1000   43.0630 C.2       1 7RD1419     0.0000 
      9 C7         -7.3910  -23.9970   42.0640 C.2       1 7RD1419     0.0000 
     10 O          -8.2170  -23.3070   41.5430 O.2       1 7RD1419     0.0000 
     11 S          -5.6670  -23.7030   41.8390 S.3       1 7RD1419     0.0000 
     12 C13        -6.3530  -25.5730   43.5240 C.2       1 7RD1419     0.0000 
     13 O1         -6.2010  -26.5750   44.3600 O.co2     1 7RD1419     0.0000 
     14 C5         -5.0550  -24.9000   43.1120 C.3       1 7RD1419     0.0000 
     15 C6         -4.5650  -23.9960   44.2980 C.3       1 7RD1419     0.0000 
     16 C4         -4.0960  -25.9000   42.5650 C.2       1 7RD1419     0.0000 
     17 C2         -2.8900  -25.6920   42.0360 C.2       1 7RD1419     0.0000 
     18 C3         -2.3350  -24.3060   41.8300 C.3       1 7RD1419     0.0000 
     19 C1         -2.0690  -26.7800   41.5750 C.2       1 7RD1419     0.0000 
     20 C          -0.8970  -26.7180   41.0230 C.2       1 7RD1419     0.0000 
     21 H         -11.6545  -26.0876   41.9916 H         1 7RD1419     0.0000 
     22 H         -10.3542  -24.9114   41.7354 H         1 7RD1419     0.0000 
     23 H          -8.8803  -26.7857   41.0272 H         1 7RD1419     0.0000 
     24 H         -10.1758  -27.9153   41.4582 H         1 7RD1419     0.0000 
     25 H          -8.3933  -27.6081   43.2188 H         1 7RD1419     0.0000 
     26 H         -10.0507  -27.3242   43.7775 H         1 7RD1419     0.0000 
     27 H          -8.8553  -25.5293   44.6870 H         1 7RD1419     0.0000 
     28 H          -9.6436  -24.8370   43.2590 H         1 7RD1419     0.0000 
     29 H          -4.4806  -26.9129   42.6311 H         1 7RD1419     0.0000 
     30 H          -2.5359  -27.7566   41.7324 H         1 7RD1419     0.0000 
     31 H          -4.3698  -24.5333   45.1185 H         1 7RD1419     0.0000 
     32 H          -3.7279  -23.5006   44.0661 H         1 7RD1419     0.0000 
     33 H          -5.2495  -23.3124   44.5513 H         1 7RD1419     0.0000 
     34 H          -1.4206  -24.3284   41.4257 H         1 7RD1419     0.0000 
     35 H          -2.9117  -23.7618   41.2207 H         1 7RD1419     0.0000 
     36 H          -2.2624  -23.8032   42.6913 H         1 7RD1419     0.0000 
     37 H         -12.5796  -24.7086   39.9964 H         1 7RD1419     0.0000 
@<TRIPOS>BOND
     1    2    1 2    
     2   37    1 1    
     3    3    2 2    
     4    4    3 1    
     5    5    4 1    
     6   21    4 1    
     7   22    4 1    
     8    6    5 1    
     9   23    5 1    
    10   24    5 1    
    11    7    6 1    
    12   25    6 1    
    13   26    6 1    
    14    8    7 1    
    15   27    7 1    
    16   28    7 1    
    17    9    8 1    
    18   12    8 2    
    19   10    9 2    
    20   11    9 1    
    21   14   11 1    
    22   13   12 1    
    23   14   12 1    
    24   15   14 1    
    25   16   14 1    
    26   31   15 1    
    27   32   15 1    
    28   33   15 1    
    29   17   16 2    
    30   29   16 1    
    31   18   17 1    
    32   19   17 1    
    33   34   18 1    
    34   35   18 1    
    35   36   18 1    
    36   20   19 2    
    37   30   19 1    
@<TRIPOS>SUBSTRUCTURE
     1 7RD1419     1 GROUP   
@<TRIPOS>SET

