#    Name: 3sxp_NAD_4_INTS_M
#    Modification time : Mon Mar 24 18:49:16 2014

@<TRIPOS>MOLECULE
3sxp_NAD_4_INTS_M
  108     0    12     0     0
SMALL
NO_CHARGES


@<TRIPOS>ATOM
      1 N          14.2450   32.5770  -23.4070 N.am      2 SEC2        0.0000 
      2 N          14.0090   31.3820  -24.0250 N.am     10 SEL2        0.0000 
      3 N          14.4810   33.7720  -22.7890 N.am      6 SEP2        0.0000 
      4 CA         10.7310   27.8395  -21.4120 C.3       4 GLC5        0.0000 
      5 CA         12.6380   28.6040  -21.8030 C.3      12 GLL5        0.0000 
      6 CA          8.8240   27.0750  -21.0210 C.3       8 GLP5        0.0000 
      7 N          10.5855   26.7225  -22.5360 N.am      2 SEC2        0.0000 
      8 N          12.0030   27.3140  -21.8490 N.am     10 SEL2        0.0000 
      9 N           9.1680   26.1310  -23.2230 N.am      6 SEP2        0.0000 
     10 O          14.5255   28.4895  -19.5080 O.2       1 ALC1        0.0000 
     11 O          14.7500   28.7380  -20.6580 O.2       9 ALL1        0.0000 
     12 O          14.3010   28.2410  -18.3580 O.2       5 ALP1        0.0000 
     13 CA         15.1965   25.1175  -22.3505 C.3       4 GLC5        0.0000 
     14 CA         14.1900   26.8150  -22.0090 C.3      12 GLL5        0.0000 
     15 CA         16.2030   23.4200  -22.6920 C.3       8 GLP5        0.0000 
     16 O          15.4500   26.3720  -19.8980 O.2       1 ALC1        0.0000 
     17 O          15.3680   26.3100  -21.3780 O.2       9 ALL1        0.0000 
     18 O          15.5320   26.4340  -18.4180 O.2       5 ALP1        0.0000 
     19 CA         12.1185   27.6660  -20.0090 C.3       4 GLC5        0.0000 
     20 CA         12.9560   26.4820  -21.1710 C.3      12 GLL5        0.0000 
     21 CA         11.2810   28.8500  -18.8470 C.3       8 GLP5        0.0000 
     22 CA         10.8900   26.7785  -21.0960 C.3       4 GLC5        0.0000 
     23 CA         12.0415   20.7550  -18.0740 C.3       4 GLC5        0.0000 
     24 CA         11.7010   21.9620  -19.8900 C.3      12 GLL5        0.0000 
     25 CA         12.3820   19.5480  -16.2580 C.3       8 GLP5        0.0000 
     26 CA          9.9550   21.4645  -19.4550 C.3       4 GLC5        0.0000 
     27 CA          8.2090   20.9670  -19.0200 C.3       8 GLP5        0.0000 
     28 O          11.7115   19.6210  -19.5330 O.2       1 ALC1        0.0000 
     29 O          11.5260   20.7190  -20.3320 O.2       9 ALL1        0.0000 
     30 O          11.8970   18.5230  -18.7340 O.2       5 ALP1        0.0000 
     31 N          10.8395   21.1575  -17.6935 N.am      2 SEC2        0.0000 
     32 N          11.6170   22.2310  -18.5830 N.am     10 SEL2        0.0000 
     33 N          10.0620   20.0840  -16.8040 N.am      6 SEP2        0.0000 
     34 CA         11.2575   24.1155  -16.3270 C.3       4 GLC5        0.0000 
     35 CA         11.8630   23.4450  -18.1180 C.3      12 GLL5        0.0000 
     36 CA         10.6520   24.7860  -14.5360 C.3       8 GLP5        0.0000 
     37 CA         12.9355   24.7285  -16.9740 C.3       4 GLC5        0.0000 
     38 CA         14.0080   26.0120  -15.8300 C.3       8 GLP5        0.0000 
     39 CA         13.6040   22.8685  -18.3480 C.3       4 GLC5        0.0000 
     40 CA         15.3450   22.2920  -18.5780 C.3       8 GLP5        0.0000 
     41 CA         12.1225   21.4965  -17.1880 C.3       4 GLC5        0.0000 
     42 CA         10.1080   22.9450  -17.5675 C.3       4 GLC5        0.0000 
     43 CA          8.3530   22.4450  -17.0170 C.3       8 GLP5        0.0000 
     44 CA         10.4260   24.7865  -18.9815 C.3       4 GLC5        0.0000 
     45 CA          8.9890   26.1280  -19.8450 C.3       8 GLP5        0.0000 
     46 N          13.5590   24.2790  -17.9725 N.am      2 SEC2        0.0000 
     47 N          12.1940   24.4410  -18.9200 N.am     10 SEL2        0.0000 
     48 N          14.9240   24.1170  -17.0250 N.am      6 SEP2        0.0000 
     49 NZ         12.2935   33.0960  -27.6815 N.4       3 LYC4        0.0000 
     50 NZ         11.7260   33.4800  -26.3570 N.4      11 LYL4        0.0000 
     51 NZ         12.8610   32.7120  -29.0060 N.4       7 LYP4        0.0000 
     52 N          12.2935   33.0960  -27.6815 N.am      2 SEC2        0.0000 
     53 N          11.7260   33.4800  -26.3570 N.am     10 SEL2        0.0000 
     54 N          12.8610   32.7120  -29.0060 N.am      6 SEP2        0.0000 
     55 N          11.7920   34.1245  -23.3905 N.am      2 SEC2        0.0000 
     56 N          11.7250   32.6060  -23.9670 N.am     10 SEL2        0.0000 
     57 N          11.8590   35.6430  -22.8140 N.am      6 SEP2        0.0000 
     58 CA          8.4985   31.7100  -22.4360 C.3       4 GLC5        0.0000 
     59 CA          9.0920   31.8410  -24.4430 C.3      12 GLL5        0.0000 
     60 CA          7.9050   31.5790  -20.4290 C.3       8 GLP5        0.0000 
     61 CA          7.3065   31.0045  -22.8215 C.3       4 GLC5        0.0000 
     62 CA          7.6290   31.5970  -24.8270 C.3      12 GLL5        0.0000 
     63 CA          6.9840   30.4120  -20.8160 C.3       8 GLP5        0.0000 
     64 CA          6.5160   33.2470  -24.9530 C.3       4 GLC5        0.0000 
     65 CA          5.4030   34.8970  -25.0790 C.3       8 GLP5        0.0000 
     66 CA          7.6330   28.2150  -25.3505 C.3       4 GLC5        0.0000 
     67 CA          7.3340   30.2100  -25.4050 C.3      12 GLL5        0.0000 
     68 CA          7.9320   26.2200  -25.2960 C.3       8 GLP5        0.0000 
     69 N           5.4460   28.8390  -25.6180 N.am      2 SEC2        0.0000 
     70 N           6.2050   29.6660  -24.8970 N.am     10 SEL2        0.0000 
     71 N           4.6870   28.0120  -26.3390 N.am      6 SEP2        0.0000 
     72 N           5.9160   28.7255  -27.0240 N.am      2 SEC2        0.0000 
     73 N           7.1450   29.4390  -27.7090 N.am     10 SEL2        0.0000 
     74 O           7.1895   29.4755  -29.0465 O.2       1 ALC1        0.0000 
     75 O           7.1450   29.4390  -27.7090 O.2       9 ALL1        0.0000 
     76 O           7.2340   29.5120  -30.3840 O.2       5 ALP1        0.0000 
     77 CA          5.5950   31.8065  -25.4730 C.3       4 GLC5        0.0000 
     78 CA          6.8740   31.7570  -27.0090 C.3      12 GLL5        0.0000 
     79 CA          4.3160   31.8560  -23.9370 C.3       8 GLP5        0.0000 
     80 CA          6.1710   33.3975  -26.7260 C.3       4 GLC5        0.0000 
     81 CA          5.4680   35.0380  -26.4430 C.3       8 GLP5        0.0000 
     82 CA          7.9600   36.1365  -29.2285 C.3       4 GLC5        0.0000 
     83 CA          8.3040   34.0700  -29.6160 C.3      12 GLL5        0.0000 
     84 CA          7.6160   38.2030  -28.8410 C.3       8 GLP5        0.0000 
     85 CA         12.2726   28.7822  -20.4804 C.3       4 GLC5        0.0000 
     86 CA         12.1310   29.5760  -22.8720 C.3      12 GLL5        0.0000 
     87 CA         14.1136   30.3317  -21.7009 C.3       4 GLC5        0.0000 
     88 CA         14.9630   31.9490  -21.2880 C.3       8 GLP5        0.0000 
     89 CA         15.9900   28.1120  -21.6277 C.3       4 GLC5        0.0000 
     90 CA         14.1440   28.3390  -21.8900 C.3      12 GLL5        0.0000 
     91 CA         17.8130   28.6470  -21.3060 C.3       8 GLP5        0.0000 
     92 CA         10.5772   24.8735  -20.1740 C.3       4 GLC5        0.0000 
     93 CA         12.0410   22.9880  -20.7640 C.3      12 GLL5        0.0000 
     94 CA         13.7127   22.8272  -19.4312 C.3       4 GLC5        0.0000 
     95 CA         12.2900   24.2500  -20.2420 C.3      12 GLL5        0.0000 
     96 CA          8.7112   33.1690  -23.6645 C.3       4 GLC5        0.0000 
     97 CA          9.0620   34.6190  -22.6940 C.3       8 GLP5        0.0000 
     98 CA          5.8987   31.3798  -24.5265 C.3       4 GLC5        0.0000 
     99 CA          6.0220   28.9682  -26.9390 C.3       4 GLC5        0.0000 
    100 CA          4.5390   27.5990  -27.7420 C.3       8 GLP5        0.0000 
    101 CA          6.4820   34.8558  -28.8377 C.3       4 GLC5        0.0000 
    102 CA          8.1880   33.2890  -28.4690 C.3      12 GLL5        0.0000 
    103 CA          4.7180   36.0320  -28.6330 C.3       8 GLP5        0.0000 
    104 CA          4.8225   31.7035  -30.4688 C.3       4 GLC5        0.0000 
    105 CA          6.1780   33.2480  -30.4030 C.3      12 GLL5        0.0000 
    106 CA          3.5320   30.5480  -31.1070 C.3       8 GLP5        0.0000 
    107 CA          5.5563   34.5454  -29.2539 C.3       4 GLC5        0.0000 
    108 CA          6.0480   32.4700  -29.2580 C.3      12 GLL5        0.0000 
@<TRIPOS>BOND
@<TRIPOS>SUBSTRUCTURE
     1 ALC1       10 GROUP        1 X    ALC  0     ROOT ALC X 1
     2 SEC2        1 GROUP        1 X    SEC  0     **** SEC X 2
     3 LYC4       49 GROUP        1 X    LYC  0     **** LYC X 4
     4 GLC5        4 GROUP        1 X    GLC  0     **** GLC X 6
     5 ALP1       12 GROUP        1 Y    ALP  0     ROOT ALP Y 8
     6 SEP2        3 GROUP        1 Y    SEP  0     **** SEP Y 9
     7 LYP4       51 GROUP        1 Y    LYP  0     **** LYP Y 11
     8 GLP5        6 GROUP        1 Y    GLP  0     **** GLP Y 13
     9 ALL1       11 GROUP        1 Z    ALL  0     ROOT ALL Z 15
    10 SEL2        2 GROUP        1 Z    SEL  0     **** SEL Z 16
    11 LYL4       50 GROUP        1 Z    LYL  0     **** LYL Z 18
    12 GLL5        5 GROUP        1 Z    GLL  0     **** GLL Z 20
@<TRIPOS>SET

