#    Name: 3sxp_NAD_4_ligand
#    Modification time : Mon Mar 24 18:49:16 2014

@<TRIPOS>MOLECULE
3sxp_NAD_4_ligand
   70    74     1     0     0
SMALL
NO_CHARGES


@<TRIPOS>ATOM
      1 PA         13.4750   30.3850  -24.9790 P.3       1 NAD2401     0.0000 
      2 O1A        14.4340   29.6940  -25.8710 O.co2     1 NAD2401     0.0000 
      3 O2A        14.0090   31.3820  -24.0250 O.co2     1 NAD2401     0.0000 
      4 O5B        12.6570   29.2620  -24.1640 O.3       1 NAD2401     0.0000 
      5 C5B        12.1310   29.5760  -22.8720 C.3       1 NAD2401     0.0000 
      6 C4B        12.6380   28.6040  -21.8030 C.3       1 NAD2401     0.0000 
      7 O4B        12.0030   27.3140  -21.8490 O.3       1 NAD2401     0.0000 
      8 C3B        14.1440   28.3390  -21.8900 C.3       1 NAD2401     0.0000 
      9 O3B        14.7500   28.7380  -20.6580 O.3       1 NAD2401     0.0000 
     10 C2B        14.1900   26.8150  -22.0090 C.3       1 NAD2401     0.0000 
     11 O2B        15.3680   26.3100  -21.3780 O.3       1 NAD2401     0.0000 
     12 C1B        12.9560   26.4820  -21.1710 C.3       1 NAD2401     0.0000 
     13 N9A        12.6030   25.0470  -21.2600 N.pl3     1 NAD2401     0.0000 
     14 C8A        12.5480   24.3210  -22.3770 C.2       1 NAD2401     0.0000 
     15 N7A        12.2060   23.0710  -22.0790 N.2       1 NAD2401     0.0000 
     16 C5A        12.0410   22.9880  -20.7640 C.ar      1 NAD2401     0.0000 
     17 C6A        11.7010   21.9620  -19.8900 C.ar      1 NAD2401     0.0000 
     18 N6A        11.5260   20.7190  -20.3320 N.pl3     1 NAD2401     0.0000 
     19 N1A        11.6170   22.2310  -18.5830 N.ar      1 NAD2401     0.0000 
     20 C2A        11.8630   23.4450  -18.1180 C.ar      1 NAD2401     0.0000 
     21 N3A        12.1940   24.4410  -18.9200 N.ar      1 NAD2401     0.0000 
     22 C4A        12.2900   24.2500  -20.2420 C.ar      1 NAD2401     0.0000 
     23 O3         12.3520   31.0920  -25.8980 O.3       1 NAD2401     0.0000 
     24 PN         11.4920   32.3680  -25.4090 P.3       1 NAD2401     0.0000 
     25 O1N        11.7260   33.4800  -26.3570 O.co2     1 NAD2401     0.0000 
     26 O2N        11.7250   32.6060  -23.9670 O.co2     1 NAD2401     0.0000 
     27 O5D         9.9490   31.9370  -25.5850 O.3       1 NAD2401     0.0000 
     28 C5D         9.0920   31.8410  -24.4430 C.3       1 NAD2401     0.0000 
     29 C4D         7.6290   31.5970  -24.8270 C.3       1 NAD2401     0.0000 
     30 O4D         7.3220   32.5290  -25.8810 O.3       1 NAD2401     0.0000 
     31 C3D         7.3340   30.2100  -25.4050 C.3       1 NAD2401     0.0000 
     32 O3D         6.2050   29.6660  -24.8970 O.3       1 NAD2401     0.0000 
     33 C2D         7.6760   30.4650  -26.8670 C.3       1 NAD2401     0.0000 
     34 O2D         7.1450   29.4390  -27.7090 O.3       1 NAD2401     0.0000 
     35 C1D         6.8740   31.7570  -27.0090 C.3       1 NAD2401     0.0000 
     36 N1N         7.0540   32.4910  -28.2830 N.pl3     1 NAD2401     0.0000 
     37 C2N         8.1880   33.2890  -28.4690 C.ar      1 NAD2401     0.0000 
     38 C3N         8.3040   34.0700  -29.6160 C.ar      1 NAD2401     0.0000 
     39 C7N         9.5070   35.0050  -29.7590 C.2       1 NAD2401     0.0000 
     40 O7N        10.4000   35.0140  -28.9160 O.2       1 NAD2401     0.0000 
     41 N7N         9.4930   35.7870  -30.8380 N.am      1 NAD2401     0.0000 
     42 C4N         7.3040   34.0470  -30.5800 C.ar      1 NAD2401     0.0000 
     43 C5N         6.1780   33.2480  -30.4030 C.ar      1 NAD2401     0.0000 
     44 C6N         6.0480   32.4700  -29.2580 C.ar      1 NAD2401     0.0000 
     45 H          11.0281   29.5344  -22.8622 H         1 NAD2401     0.0000 
     46 H          12.4143   30.5947  -22.5555 H         1 NAD2401     0.0000 
     47 H          12.4614   29.0571  -20.8144 H         1 NAD2401     0.0000 
     48 H          14.5254   28.7713  -22.7386 H         1 NAD2401     0.0000 
     49 H          14.0297   26.5420  -22.9818 H         1 NAD2401     0.0000 
     50 H          13.1242   26.8138  -20.1946 H         1 NAD2401     0.0000 
     51 H          12.7318   24.6587  -23.2783 H         1 NAD2401     0.0000 
     52 H          11.7086   19.9883  -19.6742 H         1 NAD2401     0.0000 
     53 H          11.2276   20.6277  -21.2821 H         1 NAD2401     0.0000 
     54 H          11.7923   23.6223  -17.0730 H         1 NAD2401     0.0000 
     55 H           9.1249   32.7646  -23.8338 H         1 NAD2401     0.0000 
     56 H           9.4008   31.0152  -23.7737 H         1 NAD2401     0.0000 
     57 H           7.0011   31.7742  -23.9865 H         1 NAD2401     0.0000 
     58 H           8.2824   29.6391  -25.0200 H         1 NAD2401     0.0000 
     59 H           8.6739   30.6772  -26.9510 H         1 NAD2401     0.0000 
     60 H           5.8277   31.4978  -26.8563 H         1 NAD2401     0.0000 
     61 H           8.9296   33.2967  -27.7613 H         1 NAD2401     0.0000 
     62 H           8.6847   35.7159  -31.4225 H         1 NAD2401     0.0000 
     63 H          10.2920   36.3745  -30.9660 H         1 NAD2401     0.0000 
     64 H           7.3949   34.6227  -31.4291 H         1 NAD2401     0.0000 
     65 H           5.4412   33.2336  -31.1209 H         1 NAD2401     0.0000 
     66 H           5.2197   31.8807  -29.1230 H         1 NAD2401     0.0000 
     67 H          14.2424   28.2479  -19.9494 H         1 NAD2401     0.0000 
     68 H          15.2055   26.4237  -20.3979 H         1 NAD2401     0.0000 
     69 H           6.5013   28.8176  -24.4583 H         1 NAD2401     0.0000 
     70 H           7.3140   29.7568  -28.6420 H         1 NAD2401     0.0000 
@<TRIPOS>BOND
     1    2    1 ar   
     2    3    1 ar   
     3    4    1 1    
     4   23    1 1    
     5    5    4 1    
     6    6    5 1    
     7   45    5 1    
     8   46    5 1    
     9    7    6 1    
    10    8    6 1    
    11   47    6 1    
    12   12    7 1    
    13    9    8 1    
    14   10    8 1    
    15   48    8 1    
    16   67    9 1    
    17   11   10 1    
    18   12   10 1    
    19   49   10 1    
    20   68   11 1    
    21   13   12 1    
    22   50   12 1    
    23   14   13 1    
    24   22   13 1    
    25   15   14 2    
    26   51   14 1    
    27   16   15 1    
    28   17   16 ar   
    29   22   16 ar   
    30   18   17 1    
    31   19   17 ar   
    32   52   18 1    
    33   53   18 1    
    34   20   19 ar   
    35   21   20 ar   
    36   54   20 1    
    37   22   21 ar   
    38   24   23 1    
    39   25   24 ar   
    40   26   24 ar   
    41   27   24 1    
    42   28   27 1    
    43   29   28 1    
    44   55   28 1    
    45   56   28 1    
    46   30   29 1    
    47   31   29 1    
    48   57   29 1    
    49   35   30 1    
    50   32   31 1    
    51   33   31 1    
    52   58   31 1    
    53   69   32 1    
    54   34   33 1    
    55   35   33 1    
    56   59   33 1    
    57   70   34 1    
    58   36   35 1    
    59   60   35 1    
    60   37   36 ar   
    61   44   36 ar   
    62   38   37 ar   
    63   61   37 1    
    64   39   38 1    
    65   42   38 ar   
    66   40   39 2    
    67   41   39 am   
    68   62   41 1    
    69   63   41 1    
    70   43   42 ar   
    71   64   42 1    
    72   44   43 ar   
    73   65   43 1    
    74   66   44 1    
@<TRIPOS>SUBSTRUCTURE
     1 NAD2401     1 GROUP   
@<TRIPOS>SET

