#    Name: 3qw4_U5P_2_INTS_M
#    Modification time : Tue Mar 25 10:12:57 2014

@<TRIPOS>MOLECULE
3qw4_U5P_2_INTS_M
   53     0     9     0     0
SMALL
NO_CHARGES


@<TRIPOS>ATOM
      1 O           0.6925  -20.4920   31.6325 O.2       1 ALC1        0.0000 
      2 O          -0.0540  -19.3520   31.1600 O.2       7 ALL1        0.0000 
      3 O           1.4390  -21.6320   32.1050 O.2       4 ALP1        0.0000 
      4 CA         -1.5300  -18.9890   27.9310 C.3       3 GLC5        0.0000 
      5 CA         -1.5430  -18.1140   29.7180 C.3       9 GLL5        0.0000 
      6 CA         -1.5170  -19.8640   26.1440 C.3       6 GLP5        0.0000 
      7 N           1.8250  -18.2545   33.9350 N.am      2 SEC2        0.0000 
      8 N           1.5320  -18.2630   32.3160 N.am      8 SEL2        0.0000 
      9 N           2.1180  -18.2460   35.5540 N.am      5 SEP2        0.0000 
     10 N          -1.2770  -21.8620   30.6720 N.am      2 SEC2        0.0000 
     11 N          -1.6850  -20.3550   29.9530 N.am      8 SEL2        0.0000 
     12 N          -0.8690  -23.3690   31.3910 N.am      5 SEP2        0.0000 
     13 N          -2.0530  -20.4170   28.5330 N.am      2 SEC2        0.0000 
     14 N          -2.4210  -20.4790   27.1130 N.am      5 SEP2        0.0000 
     15 N           4.2480  -15.9305   31.4330 N.am      2 SEC2        0.0000 
     16 N           3.0080  -15.5290   32.3790 N.am      8 SEL2        0.0000 
     17 N           5.4880  -16.3320   30.4870 N.am      5 SEP2        0.0000 
     18 O           3.9780  -16.6710   32.2010 O.2       1 ALC1        0.0000 
     19 O           3.0080  -15.5290   32.3790 O.2       7 ALL1        0.0000 
     20 O           4.9480  -17.8130   32.0230 O.2       4 ALP1        0.0000 
     21 N           4.6650  -15.0995   30.5590 N.am      2 SEC2        0.0000 
     22 N           3.8420  -13.8670   30.6310 N.am      8 SEL2        0.0000 
     23 O           5.4350  -13.8320   30.3005 O.2       1 ALC1        0.0000 
     24 O           3.8420  -13.8670   30.6310 O.2       7 ALL1        0.0000 
     25 O           7.0280  -13.7970   29.9700 O.2       4 ALP1        0.0000 
     26 O           4.7775  -13.4470   29.5200 O.2       1 ALC1        0.0000 
     27 O           5.7130  -13.0270   28.4090 O.2       4 ALP1        0.0000 
     28 N          -0.0545  -13.4405   31.1635 N.am      2 SEC2        0.0000 
     29 N           0.4010  -14.7000   30.2390 N.am      8 SEL2        0.0000 
     30 N          -0.5100  -12.1810   32.0880 N.am      5 SEP2        0.0000 
     31 N          -0.0055  -14.9375   25.0035 N.am      2 SEC2        0.0000 
     32 N          -0.1570  -13.6020   25.4040 N.am      8 SEL2        0.0000 
     33 N           0.1460  -16.2730   24.6030 N.am      5 SEP2        0.0000 
     34 N          -1.2315  -14.5305   25.6375 N.am      2 SEC2        0.0000 
     35 N          -2.3060  -15.4590   25.8710 N.am      5 SEP2        0.0000 
     36 N          -0.9880  -14.0145   24.3380 N.am      2 SEC2        0.0000 
     37 N          -1.8190  -14.4270   23.2720 N.am      5 SEP2        0.0000 
     38 N          -0.3645  -12.6670   24.1745 N.am      2 SEC2        0.0000 
     39 N          -0.5720  -11.7320   22.9450 N.am      5 SEP2        0.0000 
     40 N          -0.3850  -11.4655   24.5885 N.am      2 SEC2        0.0000 
     41 N          -0.1980  -11.1990   26.2320 N.am      8 SEL2        0.0000 
     42 N           0.2105   -9.9775   26.4630 N.am      2 SEC2        0.0000 
     43 N           0.6190   -8.7560   26.6940 N.am      5 SEP2        0.0000 
     44 CA         -2.1440  -18.3263   31.5393 C.3       3 GLC5        0.0000 
     45 CA         -0.9030  -16.9290   30.0690 C.3       9 GLL5        0.0000 
     46 CA         -3.0650  -19.1310   33.1850 C.3       6 GLP5        0.0000 
     47 CA          0.1340  -18.0467   28.9838 C.3       3 GLC5        0.0000 
     48 CA          1.4910  -18.5720   28.0740 C.3       6 GLP5        0.0000 
     49 CA          1.5395  -17.1247   29.6365 C.3       3 GLC5        0.0000 
     50 CA          0.8220  -15.6140   31.2780 C.3       9 GLL5        0.0000 
     51 CA          1.8070  -11.7877   28.8140 C.3       3 GLC5        0.0000 
     52 CA          1.5260  -13.8460   29.9010 C.3       9 GLL5        0.0000 
     53 CA          2.0170   -9.8280   28.4710 C.3       6 GLP5        0.0000 
@<TRIPOS>BOND
@<TRIPOS>SUBSTRUCTURE
     1 ALC1        1 GROUP        1 X    ALC  0     ROOT ALC X 1
     2 SEC2        7 GROUP        1 X    SEC  0     **** SEC X 2
     3 GLC5        4 GROUP        1 X    GLC  0     **** GLC X 6
     4 ALP1        3 GROUP        1 Y    ALP  0     ROOT ALP Y 8
     5 SEP2        9 GROUP        1 Y    SEP  0     **** SEP Y 9
     6 GLP5        6 GROUP        1 Y    GLP  0     **** GLP Y 13
     7 ALL1        2 GROUP        1 Z    ALL  0     ROOT ALL Z 15
     8 SEL2        8 GROUP        1 Z    SEL  0     **** SEL Z 16
     9 GLL5        5 GROUP        1 Z    GLL  0     **** GLL Z 20
@<TRIPOS>SET

