#    Name: 3qw4_U5P_2_ligand
#    Modification time : Tue Mar 25 10:12:57 2014

@<TRIPOS>MOLECULE
3qw4_U5P_2_ligand
   32    33     1     0     0
SMALL
NO_CHARGES


@<TRIPOS>ATOM
      1 N1          0.1750  -16.9290   30.9690 N.am      1 U5P7485     0.0000 
      2 C2          0.5990  -18.1720   31.5210 C.2       1 U5P7485     0.0000 
      3 N3         -0.0540  -19.3520   31.1600 N.am      1 U5P7485     0.0000 
      4 C4         -1.1180  -19.3160   30.2620 C.2       1 U5P7485     0.0000 
      5 C5         -1.5430  -18.1140   29.7180 C.2       1 U5P7485     0.0000 
      6 C6         -0.9030  -16.9290   30.0690 C.2       1 U5P7485     0.0000 
      7 O2          1.5320  -18.2630   32.3160 O.2       1 U5P7485     0.0000 
      8 O4         -1.6850  -20.3550   29.9530 O.2       1 U5P7485     0.0000 
      9 C1'         0.8220  -15.6140   31.2780 C.3       1 U5P7485     0.0000 
     10 C2'         2.3540  -15.7410   31.1200 C.3       1 U5P7485     0.0000 
     11 O2'         3.0080  -15.5290   32.3790 O.3       1 U5P7485     0.0000 
     12 C3'         2.7780  -14.6790   30.1070 C.3       1 U5P7485     0.0000 
     13 C4'         1.5260  -13.8460   29.9010 C.3       1 U5P7485     0.0000 
     14 O3'         3.8420  -13.8670   30.6310 O.3       1 U5P7485     0.0000 
     15 O4'         0.4010  -14.7000   30.2390 O.3       1 U5P7485     0.0000 
     16 C5'         1.6680  -13.6490   28.4130 C.3       1 U5P7485     0.0000 
     17 O5'         0.5330  -13.0340   27.8310 O.3       1 U5P7485     0.0000 
     18 P           0.6480  -12.5540   26.3070 P.3       1 U5P7485     0.0000 
     19 O1P         2.0370  -12.4170   25.8080 O.co2     1 U5P7485     0.0000 
     20 O2P        -0.1570  -13.6020   25.4040 O.co2     1 U5P7485     0.0000 
     21 O3P        -0.1980  -11.1990   26.2320 O.co2     1 U5P7485     0.0000 
     22 H           0.2523  -20.2487   31.5587 H         1 U5P7485     0.0000 
     23 H          -2.3294  -18.0952   29.0561 H         1 U5P7485     0.0000 
     24 H          -1.2215  -16.0337   29.6646 H         1 U5P7485     0.0000 
     25 H           0.5875  -15.2778   32.2244 H         1 U5P7485     0.0000 
     26 H           2.5610  -16.7038   30.7059 H         1 U5P7485     0.0000 
     27 H           3.0210  -15.1592   29.1974 H         1 U5P7485     0.0000 
     28 H           1.6074  -12.9751   30.4039 H         1 U5P7485     0.0000 
     29 H           1.8677  -14.6439   27.9576 H         1 U5P7485     0.0000 
     30 H           2.5882  -13.0494   28.2375 H         1 U5P7485     0.0000 
     31 H           3.6988  -16.2498   32.4362 H         1 U5P7485     0.0000 
     32 H           4.4222  -13.6608   29.8430 H         1 U5P7485     0.0000 
@<TRIPOS>BOND
     1    2    1 1    
     2    6    1 1    
     3    9    1 1    
     4    3    2 1    
     5    7    2 2    
     6    4    3 1    
     7   22    3 1    
     8    5    4 1    
     9    8    4 2    
    10    6    5 2    
    11   23    5 1    
    12   24    6 1    
    13   10    9 1    
    14   15    9 1    
    15   25    9 1    
    16   11   10 1    
    17   12   10 1    
    18   26   10 1    
    19   31   11 1    
    20   13   12 1    
    21   14   12 1    
    22   27   12 1    
    23   15   13 1    
    24   16   13 1    
    25   28   13 1    
    26   32   14 1    
    27   17   16 1    
    28   29   16 1    
    29   30   16 1    
    30   18   17 1    
    31   19   18 ar   
    32   20   18 ar   
    33   21   18 ar   
@<TRIPOS>SUBSTRUCTURE
     1 U5P7485     1 GROUP   
@<TRIPOS>SET

