#    Name: 3frd_DHF_1_INTS_M
#    Modification time : Tue Mar 25 06:23:17 2014

@<TRIPOS>MOLECULE
3frd_DHF_1_INTS_M
   55     0    12     0     0
SMALL
NO_CHARGES


@<TRIPOS>ATOM
      1 O          24.5535    6.7120   40.2990 O.2       1 ALC1        0.0000 
      2 O          26.1370    6.6780   40.1200 O.2       9 ALL1        0.0000 
      3 O          22.9700    6.7460   40.4780 O.2       5 ALP1        0.0000 
      4 O          26.9425    5.3400   40.6100 O.2       1 ALC1        0.0000 
      5 O          27.7480    4.0020   41.1000 O.2       5 ALP1        0.0000 
      6 O          25.7085    5.0295   40.3985 O.2       1 ALC1        0.0000 
      7 O          25.2800    3.3810   40.6770 O.2       5 ALP1        0.0000 
      8 CA         25.2255    9.6315   40.3470 C.3       4 GLC5        0.0000 
      9 CA         27.3380   10.1200   40.6400 C.3      12 GLL5        0.0000 
     10 CA         23.1130    9.1430   40.0540 C.3       8 GLP5        0.0000 
     11 CA         29.0515   15.4945   41.5480 C.3       4 GLC5        0.0000 
     12 CA         29.6810   13.4640   41.9660 C.3      12 GLL5        0.0000 
     13 CA         28.4220   17.5250   41.1300 C.3       8 GLP5        0.0000 
     14 CA         30.9700   14.7725   41.0440 C.3       4 GLC5        0.0000 
     15 CA         32.2590   16.0810   40.1220 C.3       8 GLP5        0.0000 
     16 CA         29.7845   13.6140   40.1955 C.3       4 GLC5        0.0000 
     17 CA         29.8880   13.7640   38.4250 C.3       8 GLP5        0.0000 
     18 CA         27.6750   13.4670   42.0960 C.3       4 GLC5        0.0000 
     19 CA         25.6690   13.4700   42.2260 C.3       8 GLP5        0.0000 
     20 CA         35.1800   12.3425   39.8355 C.3       4 GLC5        0.0000 
     21 CA         34.2330   11.1380   41.2680 C.3      12 GLL5        0.0000 
     22 CA         36.1270   13.5470   38.4030 C.3       8 GLP5        0.0000 
     23 CA         32.1200   14.0275   40.5260 C.3       4 GLC5        0.0000 
     24 CA         31.9810   11.9740   40.9300 C.3      12 GLL5        0.0000 
     25 CA         36.3500   11.3455   38.7045 C.3       4 GLC5        0.0000 
     26 CA         36.5730    9.1440   39.0060 C.3      12 GLL5        0.0000 
     27 CA         36.1210    6.7705   37.5945 C.3       4 GLC5        0.0000 
     28 CA         36.8320    7.6730   39.3550 C.3      12 GLL5        0.0000 
     29 CA         35.4100    5.8680   35.8340 C.3       8 GLP5        0.0000 
     30 NZ         35.8735    9.8490   35.7000 N.4       3 LYC4        0.0000 
     31 NZ         37.4380    9.2130   36.7880 N.4      11 LYL4        0.0000 
     32 NZ         35.3500   10.7920   34.0330 N.4       7 LYP4        0.0000 
     33 N          36.9735    9.7265   35.5660 N.am      2 SEC2        0.0000 
     34 N          37.4380    9.2130   36.7880 N.am     10 SEL2        0.0000 
     35 N          36.5090   10.2400   34.3440 N.am      6 SEP2        0.0000 
     36 NZ         35.2380    9.4580   37.0560 N.4      11 LYL4        0.0000 
     37 N          34.7535    9.9575   35.8865 N.am      2 SEC2        0.0000 
     38 N          35.2380    9.4580   37.0560 N.am     10 SEL2        0.0000 
     39 N          34.2690   10.4570   34.7170 N.am      6 SEP2        0.0000 
     40 N          35.8735    9.8490   35.7000 N.am      2 SEC2        0.0000 
     41 CA         28.6973    8.7355   40.0055 C.3       4 GLC5        0.0000 
     42 CA         28.1710    9.9480   41.7060 C.3      12 GLL5        0.0000 
     43 CA         29.6400    7.4370   38.8380 C.3       8 GLP5        0.0000 
     44 CA         33.4955    9.8635   42.4610 C.3       4 GLC5        0.0000 
     45 CA         32.7750    8.3620   42.9880 C.3       8 GLP5        0.0000 
     46 CA         32.6422   10.3380   42.8355 C.3       4 GLC5        0.0000 
     47 CA         33.0680   12.2180   43.0990 C.3      12 GLL5        0.0000 
     48 CA         32.6058   14.3595   42.1060 C.3       4 GLC5        0.0000 
     49 CA         32.7020   16.4050   41.5290 C.3       8 GLP5        0.0000 
     50 CA         32.6602   10.0087   41.8370 C.3       4 GLC5        0.0000 
     51 CA         33.2058   12.3498   39.0660 C.3       4 GLC5        0.0000 
     52 CA         33.1100   11.3370   40.4420 C.3      12 GLL5        0.0000 
     53 CA         33.8660   13.0440   37.4460 C.3       8 GLP5        0.0000 
     54 CA         35.5640    6.9752   41.0260 C.3       4 GLC5        0.0000 
     55 CA         33.9370    6.3480   42.0240 C.3       8 GLP5        0.0000 
@<TRIPOS>BOND
@<TRIPOS>SUBSTRUCTURE
     1 ALC1        1 GROUP        1 X    ALC  0     ROOT ALC X 1
     2 SEC2       33 GROUP        1 X    SEC  0     **** SEC X 2
     3 LYC4       30 GROUP        1 X    LYC  0     **** LYC X 4
     4 GLC5        8 GROUP        1 X    GLC  0     **** GLC X 6
     5 ALP1        3 GROUP        1 Y    ALP  0     ROOT ALP Y 8
     6 SEP2       35 GROUP        1 Y    SEP  0     **** SEP Y 9
     7 LYP4       32 GROUP        1 Y    LYP  0     **** LYP Y 11
     8 GLP5       10 GROUP        1 Y    GLP  0     **** GLP Y 13
     9 ALL1        2 GROUP        1 Z    ALL  0     ROOT ALL Z 15
    10 SEL2       34 GROUP        1 Z    SEL  0     **** SEL Z 16
    11 LYL4       31 GROUP        1 Z    LYL  0     **** LYL Z 18
    12 GLL5        9 GROUP        1 Z    GLL  0     **** GLL Z 20
@<TRIPOS>SET

