#    Name: 3frd_DHF_1_ligand
#    Modification time : Tue Mar 25 06:23:17 2014

@<TRIPOS>MOLECULE
3frd_DHF_1_ligand
   51    53     1     0     0
SMALL
NO_CHARGES


@<TRIPOS>ATOM
      1 N1         26.6190    9.0140   40.0990 N.pl3     1 DHF300      0.0000 
      2 C2         26.7890    7.7420   40.6470 C.2       1 DHF300      0.0000 
      3 NA2        26.1370    6.6780   40.1200 N.pl3     1 DHF300      0.0000 
      4 N3         27.6420    7.5710   41.7450 N.2       1 DHF300      0.0000 
      5 C4         28.3560    8.6710   42.3230 C.2       1 DHF300      0.0000 
      6 O4         29.0830    8.4300   43.3080 O.2       1 DHF300      0.0000 
      7 C4A        28.1710    9.9480   41.7060 C.2       1 DHF300      0.0000 
      8 N5         28.9170   11.0850   42.2380 N.2       1 DHF300      0.0000 
      9 C6         28.8050   12.3310   41.4940 C.2       1 DHF300      0.0000 
     10 C7         27.9650   12.4650   40.4480 C.3       1 DHF300      0.0000 
     11 N8         27.1370   11.3640   39.9790 N.pl3     1 DHF300      0.0000 
     12 C8A        27.3380   10.1200   40.6400 C.2       1 DHF300      0.0000 
     13 C9         29.6810   13.4640   41.9660 C.3       1 DHF300      0.0000 
     14 N10        30.8180   13.0220   42.8090 N.pl3     1 DHF300      0.0000 
     15 C11        34.2330   11.1380   41.2680 C.ar      1 DHF300      0.0000 
     16 C12        34.1990   11.5920   42.6000 C.ar      1 DHF300      0.0000 
     17 C13        33.0680   12.2180   43.0990 C.ar      1 DHF300      0.0000 
     18 C14        31.9510   12.4100   42.2670 C.ar      1 DHF300      0.0000 
     19 C15        31.9810   11.9740   40.9300 C.ar      1 DHF300      0.0000 
     20 C16        33.1100   11.3370   40.4420 C.ar      1 DHF300      0.0000 
     21 C          35.4170   10.4920   40.7390 C.2       1 DHF300      0.0000 
     22 O          36.6140   10.6910   41.2610 O.2       1 DHF300      0.0000 
     23 N          35.3670    9.6730   39.6770 N.am      1 DHF300      0.0000 
     24 CA         36.5730    9.1440   39.0060 C.3       1 DHF300      0.0000 
     25 CB         36.8320    7.6730   39.3550 C.3       1 DHF300      0.0000 
     26 CG         37.5500    7.5320   40.7010 C.3       1 DHF300      0.0000 
     27 CD         37.9270    6.1020   40.9560 C.2       1 DHF300      0.0000 
     28 OE1        38.4050    5.4180   39.9980 O.co2     1 DHF300      0.0000 
     29 OE2        37.7680    5.6370   42.1270 O.co2     1 DHF300      0.0000 
     30 CT         36.4060    9.2840   37.5210 C.2       1 DHF300      0.0000 
     31 O1         37.4380    9.2130   36.7880 O.co2     1 DHF300      0.0000 
     32 O2         35.2380    9.4580   37.0560 O.co2     1 DHF300      0.0000 
     33 H          25.9857    9.1661   39.3139 H         1 DHF300      0.0000 
     34 H          26.6106    5.7991   40.1774 H         1 DHF300      0.0000 
     35 H          25.2398    6.8656   39.7202 H         1 DHF300      0.0000 
     36 H          28.5386   12.8651   39.5143 H         1 DHF300      0.0000 
     37 H          27.2457   13.3677   40.6170 H         1 DHF300      0.0000 
     38 H          26.4881   11.4872   39.2546 H         1 DHF300      0.0000 
     39 H          29.0566   14.1847   42.5295 H         1 DHF300      0.0000 
     40 H          30.0626   14.0102   41.0812 H         1 DHF300      0.0000 
     41 H          30.7356   13.1872   43.8203 H         1 DHF300      0.0000 
     42 H          35.0242   11.4535   43.1992 H         1 DHF300      0.0000 
     43 H          33.0368   12.5435   44.0707 H         1 DHF300      0.0000 
     44 H          31.1674   12.1313   40.3282 H         1 DHF300      0.0000 
     45 H          33.1384   11.0023   39.4681 H         1 DHF300      0.0000 
     46 H          34.4582    9.3616   39.2625 H         1 DHF300      0.0000 
     47 H          37.4416    9.7198   39.3063 H         1 DHF300      0.0000 
     48 H          37.4448    7.2230   38.5730 H         1 DHF300      0.0000 
     49 H          35.8795    7.1435   39.3997 H         1 DHF300      0.0000 
     50 H          36.8874    7.8895   41.4907 H         1 DHF300      0.0000 
     51 H          38.4444    8.1569   40.6882 H         1 DHF300      0.0000 
@<TRIPOS>BOND
     1    2    1 1    
     2   12    1 1    
     3   33    1 1    
     4    3    2 1    
     5    4    2 2    
     6   34    3 1    
     7   35    3 1    
     8    5    4 1    
     9    6    5 2    
    10    7    5 1    
    11    8    7 1    
    12   12    7 2    
    13    9    8 2    
    14   10    9 1    
    15   13    9 1    
    16   11   10 1    
    17   36   10 1    
    18   37   10 1    
    19   12   11 1    
    20   38   11 1    
    21   14   13 1    
    22   39   13 1    
    23   40   13 1    
    24   18   14 1    
    25   41   14 1    
    26   16   15 ar   
    27   20   15 ar   
    28   21   15 1    
    29   17   16 ar   
    30   42   16 1    
    31   18   17 ar   
    32   43   17 1    
    33   19   18 ar   
    34   20   19 ar   
    35   44   19 1    
    36   45   20 1    
    37   22   21 2    
    38   23   21 am   
    39   24   23 1    
    40   46   23 1    
    41   25   24 1    
    42   30   24 1    
    43   47   24 1    
    44   26   25 1    
    45   48   25 1    
    46   49   25 1    
    47   27   26 1    
    48   50   26 1    
    49   51   26 1    
    50   28   27 ar   
    51   29   27 ar   
    52   31   30 ar   
    53   32   30 ar   
@<TRIPOS>SUBSTRUCTURE
     1 DHF300      1 GROUP   
@<TRIPOS>SET

