#    Name: 4lvg_20O_2_INTS_M
#    Modification time : Tue Mar 25 11:33:37 2014

@<TRIPOS>MOLECULE
4lvg_20O_2_INTS_M
   61     0     9     0     0
SMALL
NO_CHARGES


@<TRIPOS>ATOM
      1 CA         10.9410   -4.6695   51.9895 C.3       3 GLC5        0.0000 
      2 CA         10.2710   -3.1500   50.8560 C.3       9 GLL5        0.0000 
      3 CA         11.6110   -6.1890   53.1230 C.3       6 GLP5        0.0000 
      4 CA         10.9205   -4.7065   49.9730 C.3       3 GLC5        0.0000 
      5 CA          9.1860   -4.0080   50.9040 C.3       9 GLL5        0.0000 
      6 CA         12.6550   -5.4050   49.0420 C.3       6 GLP5        0.0000 
      7 CA          9.9915   -5.5875   51.6210 C.3       3 GLC5        0.0000 
      8 CA         10.7970   -7.1670   52.3380 C.3       6 GLP5        0.0000 
      9 CA          6.1210   -7.0755   47.1010 C.3       3 GLC5        0.0000 
     10 CA          7.6380   -6.0110   46.2410 C.3       9 GLL5        0.0000 
     11 CA          4.6040   -8.1400   47.9610 C.3       6 GLP5        0.0000 
     12 O          11.2600   -7.8350   43.6630 O.2       1 ALC1        0.0000 
     13 O           9.8550   -7.6910   43.7740 O.2       7 ALL1        0.0000 
     14 O          12.6650   -7.9790   43.5520 O.2       4 ALP1        0.0000 
     15 N           7.7440   -9.9865   44.3070 N.am      2 SEC2        0.0000 
     16 N           8.0330   -8.9910   43.3540 N.am      8 SEL2        0.0000 
     17 N           7.4550  -10.9820   45.2600 N.am      5 SEP2        0.0000 
     18 CA         10.6270  -11.3250   40.4345 C.3       3 GLC5        0.0000 
     19 CA          9.2640   -9.7390   40.8440 C.3       9 GLL5        0.0000 
     20 CA         11.9900  -12.9110   40.0250 C.3       6 GLP5        0.0000 
     21 CA         13.8815   -9.2700   37.7165 C.3       3 GLC5        0.0000 
     22 CA         11.9420   -8.8560   38.2810 C.3       9 GLL5        0.0000 
     23 CA         15.8210   -9.6840   37.1520 C.3       6 GLP5        0.0000 
     24 CA          9.2905   -7.9235   37.3525 C.3       3 GLC5        0.0000 
     25 CA          9.3930   -9.8200   38.3390 C.3       9 GLL5        0.0000 
     26 CA          9.1880   -6.0270   36.3660 C.3       6 GLP5        0.0000 
     27 CA         11.3484   -4.0209   49.2499 C.3       3 GLC5        0.0000 
     28 CA         10.5240   -2.3950   49.7230 C.3       9 GLL5        0.0000 
     29 CA          8.1440   -5.9138   50.2287 C.3       3 GLC5        0.0000 
     30 CA          7.5200   -7.7690   50.1010 C.3       6 GLP5        0.0000 
     31 CA         10.1950   -5.9190   46.7562 C.3       3 GLC5        0.0000 
     32 CA          8.2150   -4.7590   46.2680 C.3       9 GLL5        0.0000 
     33 CA         11.6200   -7.2110   47.6350 C.3       6 GLP5        0.0000 
     34 CA          7.2675   -5.0810   44.5572 C.3       3 GLC5        0.0000 
     35 CA          9.3250   -4.4950   45.4870 C.3       9 GLL5        0.0000 
     36 CA          5.7650   -5.5350   43.2370 C.3       6 GLP5        0.0000 
     37 CA          9.8855   -3.9455   43.5625 C.3       3 GLC5        0.0000 
     38 CA         10.1810   -2.9000   42.0420 C.3       6 GLP5        0.0000 
     39 CA         10.5948   -6.6658   46.1502 C.3       3 GLC5        0.0000 
     40 CA          9.8550   -5.4870   44.6790 C.3       9 GLL5        0.0000 
     41 CA          7.6673   -5.8277   43.9513 C.3       3 GLC5        0.0000 
     42 CA          9.2840   -6.7540   44.6520 C.3       9 GLL5        0.0000 
     43 CA          8.5040   -8.7345   45.6917 C.3       3 GLC5        0.0000 
     44 CA          8.1620   -7.0020   45.4330 C.3       9 GLL5        0.0000 
     45 CA          8.2850  -10.5910   46.3410 C.3       6 GLP5        0.0000 
     46 CA          9.7600   -6.8588   46.7360 C.3       3 GLC5        0.0000 
     47 CA          6.8325   -6.0207   44.5370 C.3       3 GLC5        0.0000 
     48 CA         11.1743  -11.3305   41.5655 C.3       3 GLC5        0.0000 
     49 CA          9.9930   -9.5590   42.1800 C.3       9 GLL5        0.0000 
     50 CA         12.6110  -12.4120   41.1560 C.3       6 GLP5        0.0000 
     51 CA          8.7102   -8.2095   40.9425 C.3       3 GLC5        0.0000 
     52 CA          7.7920   -6.7700   40.3730 C.3       6 GLP5        0.0000 
     53 CA         10.5512  -10.8565   43.3285 C.3       3 GLC5        0.0000 
     54 CA         11.3650  -11.4640   44.6820 C.3       6 GLP5        0.0000 
     55 CA          7.5575  -10.8945   41.4525 C.3       3 GLC5        0.0000 
     56 CA          9.4820  -10.9390   41.7700 C.3       9 GLL5        0.0000 
     57 CA          5.7420  -11.4500   41.5980 C.3       6 GLP5        0.0000 
     58 CA         12.9757   -7.4838   39.1405 C.3       3 GLC5        0.0000 
     59 CA         11.3190   -9.0350   39.5130 C.3       9 GLL5        0.0000 
     60 CA         14.3210   -6.0220   39.3840 C.3       6 GLP5        0.0000 
     61 CA         10.3928   -7.5198   37.0335 C.3       3 GLC5        0.0000 
@<TRIPOS>BOND
@<TRIPOS>SUBSTRUCTURE
     1 ALC1       12 GROUP        1 X    ALC  0     ROOT ALC X 1
     2 SEC2       15 GROUP        1 X    SEC  0     **** SEC X 2
     3 GLC5        1 GROUP        1 X    GLC  0     **** GLC X 6
     4 ALP1       14 GROUP        1 Y    ALP  0     ROOT ALP Y 8
     5 SEP2       17 GROUP        1 Y    SEP  0     **** SEP Y 9
     6 GLP5        3 GROUP        1 Y    GLP  0     **** GLP Y 13
     7 ALL1       13 GROUP        1 Z    ALL  0     ROOT ALL Z 15
     8 SEL2       16 GROUP        1 Z    SEL  0     **** SEL Z 16
     9 GLL5        2 GROUP        1 Z    GLL  0     **** GLL Z 20
@<TRIPOS>SET

