#    Name: 4lvg_20O_2_ligand
#    Modification time : Tue Mar 25 11:33:37 2014

@<TRIPOS>MOLECULE
4lvg_20O_2_ligand
   45    48     1     0     0
SMALL
NO_CHARGES


@<TRIPOS>ATOM
      1 C1         10.2710   -3.1500   50.8560 C.ar      1 20O601      0.0000 
      2 C2         10.5240   -2.3950   49.7230 C.ar      1 20O601      0.0000 
      3 C3          9.6860   -2.5010   48.6260 C.ar      1 20O601      0.0000 
      4 C4          8.6040   -3.3590   48.6820 C.ar      1 20O601      0.0000 
      5 C5          8.3500   -4.1090   49.8090 C.ar      1 20O601      0.0000 
      6 C6          9.1860   -4.0080   50.9040 C.ar      1 20O601      0.0000 
      7 S7          7.5370   -3.4990   47.2960 S.o2      1 20O601      0.0000 
      8 O8          6.2970   -3.9730   47.8120 O.2       1 20O601      0.0000 
      9 O9          7.6480   -2.2650   46.5990 O.2       1 20O601      0.0000 
     10 C10         8.2150   -4.7590   46.2680 C.ar      1 20O601      0.0000 
     11 C11         9.3250   -4.4950   45.4870 C.ar      1 20O601      0.0000 
     12 C12         9.8550   -5.4870   44.6790 C.ar      1 20O601      0.0000 
     13 C13         9.2840   -6.7540   44.6520 C.ar      1 20O601      0.0000 
     14 C14         8.1620   -7.0020   45.4330 C.ar      1 20O601      0.0000 
     15 C15         7.6380   -6.0110   46.2410 C.ar      1 20O601      0.0000 
     16 N16         9.8550   -7.6910   43.7740 N.am      1 20O601      0.0000 
     17 C17         9.2110   -8.7200   43.1620 C.2       1 20O601      0.0000 
     18 O18         8.0330   -8.9910   43.3540 O.2       1 20O601      0.0000 
     19 C19         9.9930   -9.5590   42.1800 C.3       1 20O601      0.0000 
     20 C20         9.4820  -10.9390   41.7700 C.3       1 20O601      0.0000 
     21 C21         9.2640   -9.7390   40.8440 C.3       1 20O601      0.0000 
     22 C22        10.0220   -9.5410   39.5420 C.ar      1 20O601      0.0000 
     23 C23        11.3190   -9.0350   39.5130 C.ar      1 20O601      0.0000 
     24 C24        11.9420   -8.8560   38.2810 C.ar      1 20O601      0.0000 
     25 C25        11.2530   -9.1690   37.1210 C.ar      1 20O601      0.0000 
     26 N26        10.0160   -9.6370   37.1850 N.ar      1 20O601      0.0000 
     27 C27         9.3930   -9.8200   38.3390 C.ar      1 20O601      0.0000 
     28 H          10.8993   -3.0717   51.6744 H         1 20O601      0.0000 
     29 H          11.3311   -1.7582   49.6967 H         1 20O601      0.0000 
     30 H           9.8672   -1.9481   47.7812 H         1 20O601      0.0000 
     31 H           7.5389   -4.7444   49.8370 H         1 20O601      0.0000 
     32 H           9.0048   -4.5649   51.7481 H         1 20O601      0.0000 
     33 H           9.7587   -3.5603   45.5055 H         1 20O601      0.0000 
     34 H          10.6802   -5.2863   44.0916 H         1 20O601      0.0000 
     35 H           7.7188   -7.9349   45.4072 H         1 20O601      0.0000 
     36 H           6.8103   -6.2104   46.8269 H         1 20O601      0.0000 
     37 H          10.9062   -7.5669   43.5780 H         1 20O601      0.0000 
     38 H          10.9163   -9.5152   41.9714 H         1 20O601      0.0000 
     39 H           8.6715  -11.0918   42.2311 H         1 20O601      0.0000 
     40 H          10.2175  -11.4270   41.4327 H         1 20O601      0.0000 
     41 H           8.3370   -9.4367   41.0311 H         1 20O601      0.0000 
     42 H          11.8035   -8.7999   40.3786 H         1 20O601      0.0000 
     43 H          12.8999   -8.4964   38.2363 H         1 20O601      0.0000 
     44 H          11.7340   -9.0259   36.2073 H         1 20O601      0.0000 
     45 H           8.4099  -10.1799   38.3720 H         1 20O601      0.0000 
@<TRIPOS>BOND
     1    2    1 ar   
     2    6    1 ar   
     3   28    1 1    
     4    3    2 ar   
     5   29    2 1    
     6    4    3 ar   
     7   30    3 1    
     8    5    4 ar   
     9    7    4 1    
    10    6    5 ar   
    11   31    5 1    
    12   32    6 1    
    13    8    7 2    
    14    9    7 2    
    15   10    7 1    
    16   11   10 ar   
    17   15   10 ar   
    18   12   11 ar   
    19   33   11 1    
    20   13   12 ar   
    21   34   12 1    
    22   14   13 ar   
    23   16   13 1    
    24   15   14 ar   
    25   35   14 1    
    26   36   15 1    
    27   17   16 am   
    28   37   16 1    
    29   18   17 2    
    30   19   17 1    
    31   20   19 1    
    32   21   19 1    
    33   38   19 1    
    34   21   20 1    
    35   39   20 1    
    36   40   20 1    
    37   22   21 1    
    38   41   21 1    
    39   23   22 ar   
    40   27   22 ar   
    41   24   23 ar   
    42   42   23 1    
    43   25   24 ar   
    44   43   24 1    
    45   26   25 ar   
    46   44   25 1    
    47   27   26 ar   
    48   45   27 1    
@<TRIPOS>SUBSTRUCTURE
     1 20O601      1 GROUP   
@<TRIPOS>SET

