#    Name: 2yxl_SFG_1_INTS_M
#    Modification time : Tue Mar 25 09:49:02 2014

@<TRIPOS>MOLECULE
2yxl_SFG_1_INTS_M
   67     0    15     0     0
SMALL
NO_CHARGES


@<TRIPOS>ATOM
      1 OD1       -20.0710   75.7155   16.7275 O.co2     3 ASC3        0.0000 
      2 OD1       -21.1200   76.5500   16.9320 O.co2    13 ASL3        0.0000 
      3 OD1       -19.0220   74.8810   16.5230 O.co2     8 ASP3        0.0000 
      4 O         -21.4465   76.8350   18.3400 O.2       1 ALC1        0.0000 
      5 O         -21.1200   76.5500   16.9320 O.2      11 ALL1        0.0000 
      6 O         -21.7730   77.1200   19.7480 O.2       6 ALP1        0.0000 
      7 O         -20.0710   75.7155   16.7275 O.2       1 ALC1        0.0000 
      8 O         -19.0220   74.8810   16.5230 O.2       6 ALP1        0.0000 
      9 CA        -22.3625   78.3240   17.6280 C.3       5 GLC5        0.0000 
     10 CA        -20.8240   77.8000   16.2090 C.3      15 GLL5        0.0000 
     11 CA        -23.9010   78.8480   19.0470 C.3      10 GLP5        0.0000 
     12 N         -22.6105   79.7385   14.1445 N.am      2 SEC2        0.0000 
     13 N         -21.4660   78.7140   14.0970 N.am     12 SEL2        0.0000 
     14 N         -23.7550   80.7630   14.1920 N.am      7 SEP2        0.0000 
     15 N         -22.6445   78.6215   13.2585 N.am      2 SEC2        0.0000 
     16 N         -23.8230   78.5290   12.4200 N.am      7 SEP2        0.0000 
     17 NZ        -20.3860   75.0855   14.1745 N.4       4 LYC4        0.0000 
     18 NZ        -21.2990   76.5080   14.2520 N.4      14 LYL4        0.0000 
     19 NZ        -19.4730   73.6630   14.0970 N.4       9 LYP4        0.0000 
     20 N         -22.7345   76.1385   13.6040 N.am      2 SEC2        0.0000 
     21 N         -21.2990   76.5080   14.2520 N.am     12 SEL2        0.0000 
     22 N         -24.1700   75.7690   12.9560 N.am      7 SEP2        0.0000 
     23 N         -20.3860   75.0855   14.1745 N.am      2 SEC2        0.0000 
     24 N         -19.4730   73.6630   14.0970 N.am      7 SEP2        0.0000 
     25 CA        -15.9515   78.3570   20.6130 C.3       5 GLC5        0.0000 
     26 CA        -17.2080   79.3020   19.4770 C.3      15 GLL5        0.0000 
     27 CA        -14.6950   77.4120   21.7490 C.3      10 GLP5        0.0000 
     28 CA        -19.2725   78.9180   21.1630 C.3       5 GLC5        0.0000 
     29 CA        -18.1880   80.3190   20.1150 C.3      15 GLL5        0.0000 
     30 CA        -20.3570   77.5170   22.2110 C.3      10 GLP5        0.0000 
     31 O         -20.0230   82.3480   19.9120 O.2       1 ALC1        0.0000 
     32 O         -18.7830   82.5150   19.2960 O.2      11 ALL1        0.0000 
     33 O         -21.2630   82.1810   20.5280 O.2       6 ALP1        0.0000 
     34 O         -19.8430   83.3225   20.3860 O.2       1 ALC1        0.0000 
     35 O         -20.9030   84.1300   21.4760 O.2       6 ALP1        0.0000 
     36 O         -19.5145   83.8700   21.5275 O.2       1 ALC1        0.0000 
     37 O         -18.1260   83.6100   21.5790 O.2      11 ALL1        0.0000 
     38 CA        -19.4280   79.4060   22.1925 C.3       5 GLC5        0.0000 
     39 CA        -18.4990   81.2950   22.1740 C.3      15 GLL5        0.0000 
     40 CA        -19.6935   82.6390   27.1590 C.3       5 GLC5        0.0000 
     41 CA        -19.1650   80.9060   26.9820 C.3      15 GLL5        0.0000 
     42 CA        -20.2220   84.3720   27.3360 C.3      10 GLP5        0.0000 
     43 CA        -20.8625   79.6510   27.3635 C.3       5 GLC5        0.0000 
     44 CA        -22.5600   78.3960   27.7450 C.3      10 GLP5        0.0000 
     45 CA        -19.2510   78.9205   27.7055 C.3       5 GLC5        0.0000 
     46 CA        -19.3370   76.9350   28.4290 C.3      10 GLP5        0.0000 
     47 O         -19.4435   80.8835   29.5855 O.2       1 ALC1        0.0000 
     48 O         -18.5530   80.7750   28.1570 O.2      11 ALL1        0.0000 
     49 O         -20.3340   80.9920   31.0140 O.2       6 ALP1        0.0000 
     50 N         -21.4625   80.6590   28.0725 N.am      2 SEC2        0.0000 
     51 N         -20.5070   80.9710   26.9200 N.am     12 SEL2        0.0000 
     52 N         -22.4180   80.3470   29.2250 N.am      7 SEP2        0.0000 
     53 CA        -22.1250   82.0045   24.5035 C.3       5 GLC5        0.0000 
     54 CA        -21.1290   81.1020   25.7550 C.3      15 GLL5        0.0000 
     55 CA        -23.1210   82.9070   23.2520 C.3      10 GLP5        0.0000 
     56 CA        -20.6755   82.7370   26.5455 C.3       5 GLC5        0.0000 
     57 CA        -21.8445   79.7490   26.7500 C.3       5 GLC5        0.0000 
     58 N         -21.0225   82.7455   24.5610 N.am      2 SEC2        0.0000 
     59 N         -20.4570   81.1740   24.6120 N.am     12 SEL2        0.0000 
     60 N         -21.5880   84.3170   24.5100 N.am      7 SEP2        0.0000 
     61 CA        -19.7355   79.3155   23.4065 C.3       5 GLC5        0.0000 
     62 CA        -19.1140   81.1140   24.6020 C.3      15 GLL5        0.0000 
     63 CA        -20.2145   79.8807   15.2907 C.3       5 GLC5        0.0000 
     64 CA        -19.3340   78.1630   16.3600 C.3      15 GLL5        0.0000 
     65 CA        -20.3500   81.7800   14.2970 C.3      10 GLP5        0.0000 
     66 CA        -18.7713   82.8255   25.2465 C.3       5 GLC5        0.0000 
     67 CA        -18.7700   84.6050   25.2920 C.3      10 GLP5        0.0000 
@<TRIPOS>BOND
@<TRIPOS>SUBSTRUCTURE
     1 ALC1        4 GROUP        1 X    ALC  0     ROOT ALC X 1
     2 SEC2       12 GROUP        1 X    SEC  0     **** SEC X 2
     3 ASC3        1 GROUP        1 X    ASC  0     **** ASC X 3
     4 LYC4       17 GROUP        1 X    LYC  0     **** LYC X 4
     5 GLC5        9 GROUP        1 X    GLC  0     **** GLC X 6
     6 ALP1        6 GROUP        1 Y    ALP  0     ROOT ALP Y 8
     7 SEP2       14 GROUP        1 Y    SEP  0     **** SEP Y 9
     8 ASP3        3 GROUP        1 Y    ASP  0     **** ASP Y 10
     9 LYP4       19 GROUP        1 Y    LYP  0     **** LYP Y 11
    10 GLP5       11 GROUP        1 Y    GLP  0     **** GLP Y 13
    11 ALL1        5 GROUP        1 Z    ALL  0     ROOT ALL Z 15
    12 SEL2       13 GROUP        1 Z    SEL  0     **** SEL Z 16
    13 ASL3        2 GROUP        1 Z    ASL  0     **** ASL Z 17
    14 LYL4       18 GROUP        1 Z    LYL  0     **** LYL Z 18
    15 GLL5       10 GROUP        1 Z    GLL  0     **** GLL Z 20
@<TRIPOS>SET

