#    Name: 2yxl_SFG_1_ligand
#    Modification time : Tue Mar 25 09:49:02 2014

@<TRIPOS>MOLECULE
2yxl_SFG_1_ligand
   48    50     1     0     0
SMALL
NO_CHARGES


@<TRIPOS>ATOM
      1 N         -21.1200   76.5500   16.9320 N.4       1 SFG5748     0.0000 
      2 CA        -20.8240   77.8000   16.2090 C.3       1 SFG5748     0.0000 
      3 C         -21.2260   77.6620   14.7260 C.2       1 SFG5748     0.0000 
      4 O         -21.4660   78.7140   14.0970 O.co2     1 SFG5748     0.0000 
      5 OXT       -21.2990   76.5080   14.2520 O.co2     1 SFG5748     0.0000 
      6 CB        -19.3340   78.1630   16.3600 C.3       1 SFG5748     0.0000 
      7 CG        -18.9850   78.4810   17.8260 C.3       1 SFG5748     0.0000 
      8 CD        -17.5280   78.9340   18.0110 C.3       1 SFG5748     0.0000 
      9 NE        -16.6370   77.8280   17.6330 N.3       1 SFG5748     0.0000 
     10 C5'       -17.2080   79.3020   19.4770 C.3       1 SFG5748     0.0000 
     11 C4'       -18.1880   80.3190   20.1150 C.3       1 SFG5748     0.0000 
     12 O4'       -18.1790   80.0440   21.5360 O.3       1 SFG5748     0.0000 
     13 C3'       -17.7520   81.7890   19.9790 C.3       1 SFG5748     0.0000 
     14 O3'       -18.7830   82.5150   19.2960 O.3       1 SFG5748     0.0000 
     15 C2'       -17.6090   82.2820   21.4270 C.3       1 SFG5748     0.0000 
     16 O2'       -18.1260   83.6100   21.5790 O.3       1 SFG5748     0.0000 
     17 C1'       -18.4990   81.2950   22.1740 C.3       1 SFG5748     0.0000 
     18 N9        -18.2050   81.1640   23.6310 N.pl3     1 SFG5748     0.0000 
     19 C8        -17.0000   81.0580   24.1960 C.2       1 SFG5748     0.0000 
     20 N7        -17.1320   80.9440   25.5180 N.2       1 SFG5748     0.0000 
     21 C5        -18.4310   80.9780   25.8000 C.ar      1 SFG5748     0.0000 
     22 C6        -19.1650   80.9060   26.9820 C.ar      1 SFG5748     0.0000 
     23 N6        -18.5530   80.7750   28.1570 N.pl3     1 SFG5748     0.0000 
     24 N1        -20.5070   80.9710   26.9200 N.ar      1 SFG5748     0.0000 
     25 C2        -21.1290   81.1020   25.7550 C.ar      1 SFG5748     0.0000 
     26 N3        -20.4570   81.1740   24.6120 N.ar      1 SFG5748     0.0000 
     27 C4        -19.1140   81.1140   24.6020 C.ar      1 SFG5748     0.0000 
     28 H         -21.4092   78.6129   16.6361 H         1 SFG5748     0.0000 
     29 H         -19.1152   79.0324   15.7447 H         1 SFG5748     0.0000 
     30 H         -18.7276   77.3258   16.0226 H         1 SFG5748     0.0000 
     31 H         -19.1609   77.5870   18.4345 H         1 SFG5748     0.0000 
     32 H         -19.6530   79.2711   18.1864 H         1 SFG5748     0.0000 
     33 H         -17.3398   79.7852   17.3943 H         1 SFG5748     0.0000 
     34 H         -16.1898   79.7180   19.5243 H         1 SFG5748     0.0000 
     35 H         -17.2121   78.3826   20.0826 H         1 SFG5748     0.0000 
     36 H         -19.1529   80.1881   19.7148 H         1 SFG5748     0.0000 
     37 H         -16.8188   81.8208   19.5079 H         1 SFG5748     0.0000 
     38 H         -16.6236   82.1505   21.7352 H         1 SFG5748     0.0000 
     39 H         -19.5139   81.5422   21.9979 H         1 SFG5748     0.0000 
     40 H         -16.1484   81.0633   23.7119 H         1 SFG5748     0.0000 
     41 H         -17.5552   80.7142   28.1291 H         1 SFG5748     0.0000 
     42 H         -19.1462   80.7492   28.9616 H         1 SFG5748     0.0000 
     43 H         -22.1877   81.1504   25.7361 H         1 SFG5748     0.0000 
     44 H         -20.3456   75.9175   16.9128 H         1 SFG5748     0.0000 
     45 H         -21.3362   76.7194   17.8935 H         1 SFG5748     0.0000 
     46 H         -21.9018   76.0683   16.5363 H         1 SFG5748     0.0000 
     47 H         -19.6128   82.3487   19.8287 H         1 SFG5748     0.0000 
     48 H         -19.1146   83.5180   21.4594 H         1 SFG5748     0.0000 
@<TRIPOS>BOND
     1    2    1 1    
     2   44    1 1    
     3   45    1 1    
     4   46    1 1    
     5    3    2 1    
     6    6    2 1    
     7   28    2 1    
     8    4    3 ar   
     9    5    3 ar   
    10    7    6 1    
    11   29    6 1    
    12   30    6 1    
    13    8    7 1    
    14   31    7 1    
    15   32    7 1    
    16    9    8 1    
    17   10    8 1    
    18   33    8 1    
    19   11   10 1    
    20   34   10 1    
    21   35   10 1    
    22   12   11 1    
    23   13   11 1    
    24   36   11 1    
    25   17   12 1    
    26   14   13 1    
    27   15   13 1    
    28   37   13 1    
    29   47   14 1    
    30   16   15 1    
    31   17   15 1    
    32   38   15 1    
    33   48   16 1    
    34   18   17 1    
    35   39   17 1    
    36   19   18 1    
    37   27   18 1    
    38   20   19 2    
    39   40   19 1    
    40   21   20 1    
    41   22   21 ar   
    42   27   21 ar   
    43   23   22 1    
    44   24   22 ar   
    45   41   23 1    
    46   42   23 1    
    47   25   24 ar   
    48   26   25 ar   
    49   43   25 1    
    50   27   26 ar   
@<TRIPOS>SUBSTRUCTURE
     1 SFG5748     1 GROUP   
@<TRIPOS>SET

