#    Name: 1xkq_NDP_4_INTS_M
#    Modification time : Tue Mar 25 10:16:48 2014

@<TRIPOS>MOLECULE
1xkq_NDP_4_INTS_M
  112     0    12     0     0
SMALL
NO_CHARGES


@<TRIPOS>ATOM
      1 N         -41.3915   29.8345  -13.2380 N.am      2 SEC2        0.0000 
      2 N         -42.3730   28.8140  -12.5550 N.am     10 SEL2        0.0000 
      3 N         -40.4100   30.8550  -13.9210 N.am      6 SEP2        0.0000 
      4 N         -42.1370   28.9115  -13.9650 N.am      2 SEC2        0.0000 
      5 N         -41.9010   29.0090  -15.3750 N.am      6 SEP2        0.0000 
      6 CA        -44.9600   25.8830  -10.8800 C.3       4 GLC5        0.0000 
      7 CA        -45.9100   26.7580   -9.2380 C.3      12 GLL5        0.0000 
      8 CA        -44.0100   25.0080  -12.5220 C.3       8 GLP5        0.0000 
      9 N         -44.9080   24.1265   -8.4530 N.am      2 SEC2        0.0000 
     10 N         -45.3210   25.6770   -8.5670 N.am     10 SEL2        0.0000 
     11 N         -44.4950   22.5760   -8.3390 N.am      6 SEP2        0.0000 
     12 O         -46.1730   24.4755   -9.0795 O.2       1 ALC1        0.0000 
     13 O         -45.3210   25.6770   -8.5670 O.2       9 ALL1        0.0000 
     14 O         -47.0250   23.2740   -9.5920 O.2       5 ALP1        0.0000 
     15 CA        -46.8795   28.5805   -5.8840 C.3       4 GLC5        0.0000 
     16 CA        -47.3460   27.9030   -7.7250 C.3      12 GLL5        0.0000 
     17 CA        -46.4130   29.2580   -4.0430 C.3       8 GLP5        0.0000 
     18 CA        -50.8565   29.1670   -3.9375 C.3       4 GLC5        0.0000 
     19 CA        -51.6220   28.9990   -5.8480 C.3      12 GLL5        0.0000 
     20 CA        -50.0910   29.3350   -2.0270 C.3       8 GLP5        0.0000 
     21 CA        -52.4900   30.4340   -4.3645 C.3       4 GLC5        0.0000 
     22 CA        -53.3580   31.8690   -2.8810 C.3       8 GLP5        0.0000 
     23 O         -53.6475   29.2995   -4.6775 O.2       1 ALC1        0.0000 
     24 O         -52.7110   29.8060   -5.7280 O.2       9 ALL1        0.0000 
     25 O         -54.5840   28.7930   -3.6270 O.2       5 ALP1        0.0000 
     26 N         -52.0310   27.4975   -3.6805 N.am      2 SEC2        0.0000 
     27 N         -51.6520   27.8410   -5.0510 N.am     10 SEL2        0.0000 
     28 N         -52.4100   27.1540   -2.3100 N.am      6 SEP2        0.0000 
     29 CA        -49.8185   24.9740   -5.7780 C.3       4 GLC5        0.0000 
     30 CA        -50.5830   26.9740   -5.1190 C.3      12 GLL5        0.0000 
     31 CA        -49.0540   22.9740   -6.4370 C.3       8 GLP5        0.0000 
     32 CA        -52.1260   26.6355   -6.0130 C.3       4 GLC5        0.0000 
     33 CA        -53.6690   26.2970   -6.9070 C.3       8 GLP5        0.0000 
     34 CA        -52.3875   26.4985   -4.3145 C.3       4 GLC5        0.0000 
     35 CA        -54.1920   26.0230   -3.5100 C.3       8 GLP5        0.0000 
     36 CA        -50.4145   27.4580   -3.2715 C.3       4 GLC5        0.0000 
     37 CA        -50.2460   27.9420   -1.4240 C.3       8 GLP5        0.0000 
     38 CA        -47.9575   28.7600   -5.3440 C.3       4 GLC5        0.0000 
     39 CA        -49.5020   28.2620   -6.6450 C.3      12 GLL5        0.0000 
     40 N         -41.5305   30.6805  -12.6390 N.am      2 SEC2        0.0000 
     41 N         -42.6510   30.5060  -11.3570 N.am     10 SEL2        0.0000 
     42 N         -39.5095   28.3895  -10.4230 N.am      2 SEC2        0.0000 
     43 N         -40.4210   29.3670  -10.6110 N.am     10 SEL2        0.0000 
     44 N         -38.5980   27.4120  -10.2350 N.am      6 SEP2        0.0000 
     45 CA        -42.7370   33.0595  -10.3230 C.3       4 GLC5        0.0000 
     46 CA        -42.4500   31.6640   -8.8620 C.3      12 GLL5        0.0000 
     47 CA        -43.0240   34.4550  -11.7840 C.3       8 GLP5        0.0000 
     48 CA        -40.1070   32.6980   -6.2345 C.3       4 GLC5        0.0000 
     49 CA        -41.7550   32.2930   -7.6620 C.3      12 GLL5        0.0000 
     50 CA        -38.4590   33.1030   -4.8070 C.3       8 GLP5        0.0000 
     51 N         -42.4880   35.0335   -5.1565 N.am      2 SEC2        0.0000 
     52 N         -42.3520   33.5640   -5.6370 N.am     10 SEL2        0.0000 
     53 N         -42.6240   36.5030   -4.6760 N.am      6 SEP2        0.0000 
     54 O         -42.5115   32.2770   -5.2755 O.2       1 ALC1        0.0000 
     55 O         -42.3520   33.5640   -5.6370 O.2       9 ALL1        0.0000 
     56 O         -42.6710   30.9900   -4.9140 O.2       5 ALP1        0.0000 
     57 CA        -42.4000   36.2350   -6.5470 C.3       4 GLC5        0.0000 
     58 CA        -41.9850   34.5840   -7.8990 C.3      12 GLL5        0.0000 
     59 CA        -42.8150   37.8860   -5.1950 C.3       8 GLP5        0.0000 
     60 CA        -42.7065   35.0680   -9.4535 C.3       4 GLC5        0.0000 
     61 CA        -43.4280   35.5520  -11.0080 C.3       8 GLP5        0.0000 
     62 N         -42.4960   36.1985   -6.0935 N.am      2 SEC2        0.0000 
     63 N         -42.3680   35.8940   -7.5110 N.am     10 SEL2        0.0000 
     64 O         -42.3160   36.9720   -8.1470 O.2       1 ALC1        0.0000 
     65 O         -42.3680   35.8940   -7.5110 O.2       9 ALL1        0.0000 
     66 O         -42.2640   38.0500   -8.7830 O.2       5 ALP1        0.0000 
     67 CA        -39.4790   33.6885   -6.3170 C.3       4 GLC5        0.0000 
     68 CA        -40.4990   34.2740   -7.8270 C.3      12 GLL5        0.0000 
     69 CA        -38.3725   32.9500   -9.6320 C.3       4 GLC5        0.0000 
     70 CA        -39.6010   34.6580  -10.1790 C.3      12 GLL5        0.0000 
     71 CA        -37.1440   31.2420   -9.0850 C.3       8 GLP5        0.0000 
     72 N         -36.8630   35.3010  -13.8070 N.am      2 SEC2        0.0000 
     73 N         -38.0860   35.7210  -13.3530 N.am     10 SEL2        0.0000 
     74 N         -35.6400   34.8810  -14.2610 N.am      6 SEP2        0.0000 
     75 O         -38.3755   33.4100  -14.1050 O.2       1 ALC1        0.0000 
     76 O         -39.2860   33.8000  -12.9390 O.2       9 ALL1        0.0000 
     77 O         -37.4650   33.0200  -15.2710 O.2       5 ALP1        0.0000 
     78 CA        -37.5015   36.2175   -7.3040 C.3       4 GLC5        0.0000 
     79 CA        -39.1070   36.3460   -8.4040 C.3      12 GLL5        0.0000 
     80 CA        -35.8960   36.0890   -6.2040 C.3       8 GLP5        0.0000 
     81 N         -48.4420   23.6890   -9.8460 N.am      2 SEC2        0.0000 
     82 N         -49.8590   24.1040  -10.1000 N.am     10 SEL2        0.0000 
     83 N         -47.0250   23.2740   -9.5920 N.am      6 SEP2        0.0000 
     84 N         -50.4480   23.7430   -8.9405 N.am      2 SEC2        0.0000 
     85 N         -51.0370   23.3820   -7.7810 N.am      6 SEP2        0.0000 
     86 N         -50.7085   23.1930  -10.2255 N.am      2 SEC2        0.0000 
     87 N         -51.5580   22.2820  -10.3510 N.am      6 SEP2        0.0000 
     88 NZ        -48.0555   25.0220  -12.2050 N.4       3 LYC4        0.0000 
     89 NZ        -48.7860   26.1540  -11.4920 N.4      11 LYL4        0.0000 
     90 NZ        -48.0700   24.1010  -13.9960 N.4       7 LYP4        0.0000 
     91 N         -48.0555   25.0220  -12.2050 N.am      2 SEC2        0.0000 
     92 N         -48.7860   26.1540  -11.4920 N.am     10 SEL2        0.0000 
     93 N         -47.3250   23.8900  -12.9180 N.am      6 SEP2        0.0000 
     94 N         -48.9450   25.5425  -12.7120 N.am      2 SEC2        0.0000 
     95 N         -49.1040   24.9310  -13.9320 N.am      6 SEP2        0.0000 
     96 NZ        -51.6350   27.0050   -9.3270 N.4       3 LYC4        0.0000 
     97 NZ        -50.0680   26.1040   -9.9290 N.4      11 LYL4        0.0000 
     98 NZ        -53.2020   27.9060   -8.7250 N.4       7 LYP4        0.0000 
     99 CA        -52.3633   27.7043   -6.5885 C.3       4 GLC5        0.0000 
    100 CA        -50.4930   29.2240   -6.6920 C.3      12 GLL5        0.0000 
    101 CA        -49.9634   30.4114   -5.4727 C.3       4 GLC5        0.0000 
    102 CA        -49.6470   32.1360   -4.4880 C.3       8 GLP5        0.0000 
    103 CA        -43.9129   33.5145   -6.8987 C.3       4 GLC5        0.0000 
    104 CA        -42.5460   33.4670   -7.0620 C.3      12 GLL5        0.0000 
    105 CA        -45.7580   33.2970   -6.1670 C.3       8 GLP5        0.0000 
    106 CA        -36.6930   36.1723   -9.1918 C.3       4 GLC5        0.0000 
    107 CA        -38.4140   37.0660   -9.3810 C.3      12 GLL5        0.0000 
    108 CA        -35.0540   35.4620   -8.3170 C.3       8 GLP5        0.0000 
    109 CA        -39.0127   38.1475   -7.8918 C.3       4 GLC5        0.0000 
    110 CA        -39.2650   39.5890   -6.8910 C.3       8 GLP5        0.0000 
    111 CA        -45.7048   26.7730   -7.1825 C.3       4 GLC5        0.0000 
    112 CA        -44.9100   26.0750   -5.6670 C.3       8 GLP5        0.0000 
@<TRIPOS>BOND
@<TRIPOS>SUBSTRUCTURE
     1 ALC1       12 GROUP        1 X    ALC  0     ROOT ALC X 1
     2 SEC2        1 GROUP        1 X    SEC  0     **** SEC X 2
     3 LYC4       88 GROUP        1 X    LYC  0     **** LYC X 4
     4 GLC5        6 GROUP        1 X    GLC  0     **** GLC X 6
     5 ALP1       14 GROUP        1 Y    ALP  0     ROOT ALP Y 8
     6 SEP2        3 GROUP        1 Y    SEP  0     **** SEP Y 9
     7 LYP4       90 GROUP        1 Y    LYP  0     **** LYP Y 11
     8 GLP5        8 GROUP        1 Y    GLP  0     **** GLP Y 13
     9 ALL1       13 GROUP        1 Z    ALL  0     ROOT ALL Z 15
    10 SEL2        2 GROUP        1 Z    SEL  0     **** SEL Z 16
    11 LYL4       89 GROUP        1 Z    LYL  0     **** LYL Z 18
    12 GLL5        7 GROUP        1 Z    GLL  0     **** GLL Z 20
@<TRIPOS>SET

