#    Name: 1xkq_NDP_4_ligand
#    Modification time : Tue Mar 25 10:16:48 2014

@<TRIPOS>MOLECULE
1xkq_NDP_4_ligand
   73    77     1     0     0
SMALL
NO_CHARGES


@<TRIPOS>ATOM
      1 PA        -43.6350   29.3730  -12.1070 P.3       1 NDP4281     0.0000 
      2 O1A       -42.3730   28.8140  -12.5550 O.co2     1 NDP4281     0.0000 
      3 O2A       -44.3550   30.5590  -12.4050 O.co2     1 NDP4281     0.0000 
      4 O5B       -44.0090   28.7260  -10.6760 O.3       1 NDP4281     0.0000 
      5 C5B       -45.2500   29.1330   -9.9590 C.3       1 NDP4281     0.0000 
      6 C4B       -45.3220   28.1440   -8.7920 C.3       1 NDP4281     0.0000 
      7 O4B       -46.1760   28.5580   -7.6870 O.3       1 NDP4281     0.0000 
      8 C3B       -45.9100   26.7580   -9.2380 C.3       1 NDP4281     0.0000 
      9 O3B       -45.3210   25.6770   -8.5670 O.3       1 NDP4281     0.0000 
     10 C2B       -47.4200   27.0790   -9.0370 C.3       1 NDP4281     0.0000 
     11 O2B       -48.3030   25.9710   -8.9520 O.3       1 NDP4281     0.0000 
     12 C1B       -47.3460   27.9030   -7.7250 C.3       1 NDP4281     0.0000 
     13 N9A       -48.5200   28.6540   -7.5090 N.pl3     1 NDP4281     0.0000 
     14 C8A       -48.9680   29.8570   -8.0530 C.2       1 NDP4281     0.0000 
     15 N7A       -50.1250   30.2130   -7.5870 N.2       1 NDP4281     0.0000 
     16 C5A       -50.4930   29.2240   -6.6920 C.ar      1 NDP4281     0.0000 
     17 C6A       -51.6220   28.9990   -5.8480 C.ar      1 NDP4281     0.0000 
     18 N6A       -52.7110   29.8060   -5.7280 N.pl3     1 NDP4281     0.0000 
     19 N1A       -51.6520   27.8410   -5.0510 N.ar      1 NDP4281     0.0000 
     20 C2A       -50.5830   26.9740   -5.1190 C.ar      1 NDP4281     0.0000 
     21 N3A       -49.5120   27.1160   -5.8650 N.ar      1 NDP4281     0.0000 
     22 C4A       -49.5020   28.2620   -6.6450 C.ar      1 NDP4281     0.0000 
     23 O3        -42.6510   30.5060  -11.3570 O.3       1 NDP4281     0.0000 
     24 PN        -41.0430   30.6160  -10.9310 P.3       1 NDP4281     0.0000 
     25 O1N       -40.3690   31.7440  -10.3620 O.co2     1 NDP4281     0.0000 
     26 O2N       -40.4210   29.3670  -10.6110 O.co2     1 NDP4281     0.0000 
     27 O5D       -41.7520   30.5690   -9.4490 O.3       1 NDP4281     0.0000 
     28 C5D       -42.4500   31.6640   -8.8620 C.3       1 NDP4281     0.0000 
     29 C4D       -41.7550   32.2930   -7.6620 C.3       1 NDP4281     0.0000 
     30 O4D       -40.4590   32.9050   -8.0870 O.3       1 NDP4281     0.0000 
     31 C3D       -42.5460   33.4670   -7.0620 C.3       1 NDP4281     0.0000 
     32 O3D       -42.3520   33.5640   -5.6370 O.3       1 NDP4281     0.0000 
     33 C2D       -41.9850   34.5840   -7.8990 C.3       1 NDP4281     0.0000 
     34 O2D       -42.3680   35.8940   -7.5110 O.3       1 NDP4281     0.0000 
     35 C1D       -40.4990   34.2740   -7.8270 C.3       1 NDP4281     0.0000 
     36 N1N       -39.7070   35.1360   -8.8100 N.pl3     1 NDP4281     0.0000 
     37 C2N       -39.6010   34.6580  -10.1790 C.2       1 NDP4281     0.0000 
     38 C3N       -38.8800   35.4520  -11.0940 C.2       1 NDP4281     0.0000 
     39 C7N       -38.7120   34.9800  -12.6270 C.2       1 NDP4281     0.0000 
     40 O7N       -38.0860   35.7210  -13.3530 O.2       1 NDP4281     0.0000 
     41 N7N       -39.2860   33.8000  -12.9390 N.am      1 NDP4281     0.0000 
     42 C4N       -38.2500   36.6990  -10.7520 C.3       1 NDP4281     0.0000 
     43 C5N       -38.4140   37.0660   -9.3810 C.2       1 NDP4281     0.0000 
     44 C6N       -39.1070   36.3460   -8.4040 C.2       1 NDP4281     0.0000 
     45 P2B       -48.9450   25.2510  -10.2930 P.3       1 NDP4281     0.0000 
     46 O1X       -49.8590   24.1040  -10.1000 O.co2     1 NDP4281     0.0000 
     47 O2X       -48.7860   26.1540  -11.4920 O.co2     1 NDP4281     0.0000 
     48 O3X       -50.0680   26.1040   -9.9290 O.co2     1 NDP4281     0.0000 
     49 H         -46.1039   29.0049  -10.5778 H         1 NDP4281     0.0000 
     50 H         -45.1591   30.1193   -9.5751 H         1 NDP4281     0.0000 
     51 H         -44.3211   27.9345   -8.4274 H         1 NDP4281     0.0000 
     52 H         -45.7571   26.7599  -10.3271 H         1 NDP4281     0.0000 
     53 H         -47.6764   27.7974   -9.8101 H         1 NDP4281     0.0000 
     54 H         -47.3235   27.0676   -6.9274 H         1 NDP4281     0.0000 
     55 H         -48.4214   30.3494   -8.7224 H         1 NDP4281     0.0000 
     56 H         -50.6577   26.0946   -4.4838 H         1 NDP4281     0.0000 
     57 H         -43.4730   31.3580   -8.5300 H         1 NDP4281     0.0000 
     58 H         -42.6236   32.4779   -9.6090 H         1 NDP4281     0.0000 
     59 H         -41.5761   31.5755   -6.9047 H         1 NDP4281     0.0000 
     60 H         -43.5671   33.3121   -7.3542 H         1 NDP4281     0.0000 
     61 H         -42.2794   34.3494   -8.9404 H         1 NDP4281     0.0000 
     62 H         -40.1842   34.4960   -6.8180 H         1 NDP4281     0.0000 
     63 H         -40.0303   33.7966  -10.4410 H         1 NDP4281     0.0000 
     64 H         -39.7583   33.3297  -12.1935 H         1 NDP4281     0.0000 
     65 H         -39.1882   33.5004  -13.8880 H         1 NDP4281     0.0000 
     66 H         -38.6490   37.5122  -11.4134 H         1 NDP4281     0.0000 
     67 H         -37.1582   36.6466  -11.0034 H         1 NDP4281     0.0000 
     68 H         -37.9568   37.9847   -9.0846 H         1 NDP4281     0.0000 
     69 H         -39.1777   36.6690   -7.4584 H         1 NDP4281     0.0000 
     70 H         -45.9210   24.8990   -8.7532 H         1 NDP4281     0.0000 
     71 H         -53.0100   29.6976   -4.7799 H         1 NDP4281     0.0000 
     72 H         -41.9976   32.6700   -5.3627 H         1 NDP4281     0.0000 
     73 H         -42.1263   36.4750   -8.2881 H         1 NDP4281     0.0000 
@<TRIPOS>BOND
     1    2    1 ar   
     2    3    1 ar   
     3    4    1 1    
     4   23    1 1    
     5    5    4 1    
     6    6    5 1    
     7   49    5 1    
     8   50    5 1    
     9    7    6 1    
    10    8    6 1    
    11   51    6 1    
    12   12    7 1    
    13    9    8 1    
    14   10    8 1    
    15   52    8 1    
    16   70    9 1    
    17   11   10 1    
    18   12   10 1    
    19   53   10 1    
    20   45   11 1    
    21   13   12 1    
    22   54   12 1    
    23   14   13 1    
    24   22   13 1    
    25   15   14 2    
    26   55   14 1    
    27   16   15 1    
    28   17   16 ar   
    29   22   16 ar   
    30   18   17 1    
    31   19   17 ar   
    32   71   18 1    
    33   20   19 ar   
    34   21   20 ar   
    35   56   20 1    
    36   22   21 ar   
    37   24   23 1    
    38   25   24 ar   
    39   26   24 ar   
    40   27   24 1    
    41   28   27 1    
    42   29   28 1    
    43   57   28 1    
    44   58   28 1    
    45   30   29 1    
    46   31   29 1    
    47   59   29 1    
    48   35   30 1    
    49   32   31 1    
    50   33   31 1    
    51   60   31 1    
    52   72   32 1    
    53   34   33 1    
    54   35   33 1    
    55   61   33 1    
    56   73   34 1    
    57   36   35 1    
    58   62   35 1    
    59   37   36 1    
    60   44   36 1    
    61   38   37 2    
    62   63   37 1    
    63   39   38 1    
    64   42   38 1    
    65   40   39 2    
    66   41   39 am   
    67   64   41 1    
    68   65   41 1    
    69   43   42 1    
    70   66   42 1    
    71   67   42 1    
    72   44   43 2    
    73   68   43 1    
    74   69   44 1    
    75   46   45 ar   
    76   47   45 ar   
    77   48   45 ar   
@<TRIPOS>SUBSTRUCTURE
     1 NDP4281     1 GROUP   
@<TRIPOS>SET

