#    Name: 3e8r_615_1_INTS_M
#    Modification time : Tue Mar 25 01:14:39 2014

@<TRIPOS>MOLECULE
3e8r_615_1_INTS_M
   86     0    12     0     0
SMALL
NO_CHARGES


@<TRIPOS>ATOM
      1 O          48.6475   35.4380   39.4130 O.2       1 ALC1        0.0000 
      2 O          50.1650   35.1670   39.7550 O.2       9 ALL1        0.0000 
      3 O          47.1300   35.7090   39.0710 O.2       5 ALP1        0.0000 
      4 Zn         52.4635   34.4215   39.8975 Zn        3 ZIC7        0.0000 
      5 Zn         51.9140   33.8410   39.3450 Zn       11 ZIL7        0.0000 
      6 Zn         53.0130   35.0020   40.4500 Zn        7 ZIP7        0.0000 
      7 N          45.9655   31.9405   39.7495 N.am      2 SEC2        0.0000 
      8 N          47.2650   31.9200   39.6150 N.am     10 SEL2        0.0000 
      9 N          44.6660   31.9610   39.8840 N.am      6 SEP2        0.0000 
     10 CA         47.7480   32.3185   44.6165 C.3       4 GLC5        0.0000 
     11 CA         49.5370   32.3580   43.4590 C.3      12 GLL5        0.0000 
     12 CA         45.9590   32.2790   45.7740 C.3       8 GLP5        0.0000 
     13 CA         52.0705   28.6715   41.7135 C.3       4 GLC5        0.0000 
     14 CA         51.4150   30.4780   42.4710 C.3      12 GLL5        0.0000 
     15 CA         52.7260   26.8650   40.9560 C.3       8 GLP5        0.0000 
     16 CA         51.2835   32.9460   46.2785 C.3       4 GLC5        0.0000 
     17 CA         51.0150   31.0990   46.7030 C.3      12 GLL5        0.0000 
     18 CA         51.5520   34.7930   45.8540 C.3       8 GLP5        0.0000 
     19 CA         52.1035   32.1565   48.0785 C.3       4 GLC5        0.0000 
     20 CA         53.1920   33.2140   49.4540 C.3       8 GLP5        0.0000 
     21 CA         50.1905   28.4485   44.9775 C.3       4 GLC5        0.0000 
     22 CA         50.7470   29.6260   46.7920 C.3      12 GLL5        0.0000 
     23 CA         49.6340   27.2710   43.1630 C.3       8 GLP5        0.0000 
     24 CA         49.3385   27.5945   44.9675 C.3       4 GLC5        0.0000 
     25 CA         49.0430   27.9180   46.7720 C.3      12 GLL5        0.0000 
     26 CA         49.3140   26.5165   48.3835 C.3       4 GLC5        0.0000 
     27 CA         49.5850   25.1150   49.9950 C.3       8 GLP5        0.0000 
     28 CA         49.0000   28.8060   44.7845 C.3       4 GLC5        0.0000 
     29 CA         49.4170   29.2560   46.6250 C.3      12 GLL5        0.0000 
     30 CA         48.5830   28.3560   42.9440 C.3       8 GLP5        0.0000 
     31 CA         50.4360   27.2770   45.2010 C.3       4 GLC5        0.0000 
     32 CA         51.2380   27.2830   47.2390 C.3      12 GLL5        0.0000 
     33 Zn         52.0810   35.5025   40.4015 Zn        3 ZIC7        0.0000 
     34 Zn         51.1490   36.0030   40.3530 Zn       11 ZIL7        0.0000 
     35 O          50.4085   36.8965   41.0530 O.2       1 ALC1        0.0000 
     36 O          51.1490   36.0030   40.3530 O.2       9 ALL1        0.0000 
     37 O          49.6680   37.7900   41.7530 O.2       5 ALP1        0.0000 
     38 O          46.7470   29.1955   39.5110 O.2       1 ALC1        0.0000 
     39 O          48.2030   29.8610   39.6630 O.2       9 ALL1        0.0000 
     40 O          45.2910   28.5300   39.3590 O.2       5 ALP1        0.0000 
     41 CA         48.4405   26.7125   44.9415 C.3       4 GLC5        0.0000 
     42 CA         47.2470   26.1540   46.7200 C.3      12 GLL5        0.0000 
     43 CA         48.4160   25.6345   48.3575 C.3       4 GLC5        0.0000 
     44 CA         51.5188   32.8375   44.3347 C.3       4 GLC5        0.0000 
     45 CA         51.2880   30.7070   43.8680 C.3      12 GLL5        0.0000 
     46 CA         52.2250   34.5130   44.5510 C.3       8 GLP5        0.0000 
     47 CA         45.5927   28.9060   44.3848 C.3       4 GLC5        0.0000 
     48 CA         46.6720   28.4670   46.2460 C.3      12 GLL5        0.0000 
     49 CA         45.1900   29.5230   42.6190 C.3       8 GLP5        0.0000 
     50 CA         44.9522   28.3165   47.7593 C.3       4 GLC5        0.0000 
     51 CA         45.3190   28.1110   46.0550 C.3      12 GLL5        0.0000 
     52 CA         43.9090   28.3440   49.3680 C.3       8 GLP5        0.0000 
     53 CA         45.9772   30.2840   45.9623 C.3       4 GLC5        0.0000 
     54 CA         55.6335   26.5153   47.5770 C.3       4 GLC5        0.0000 
     55 CA         53.9880   27.8820   47.6560 C.3      12 GLL5        0.0000 
     56 CA         57.5110   25.8060   47.4400 C.3       8 GLP5        0.0000 
     57 CA         54.3860   30.1180   48.1305 C.3       4 GLC5        0.0000 
     58 CA         55.2360   31.8440   48.7660 C.3       8 GLP5        0.0000 
     59 CA         55.0125   28.3325   46.1520 C.3       4 GLC5        0.0000 
     60 CA         53.0840   28.9020   47.3340 C.3      12 GLL5        0.0000 
     61 CA         56.4890   28.2730   44.8090 C.3       8 GLP5        0.0000 
     62 CA         47.8710   28.1715   44.6797 C.3       4 GLC5        0.0000 
     63 CA         47.6460   27.5070   46.5850 C.3      12 GLL5        0.0000 
     64 CA         49.5982   29.6958   41.8870 C.3       4 GLC5        0.0000 
     65 CA         50.5700   31.1580   41.5830 C.3      12 GLL5        0.0000 
     66 CA         49.0862   30.2935   42.8568 C.3       4 GLC5        0.0000 
     67 CA         49.6420   32.1040   42.0800 C.3      12 GLL5        0.0000 
     68 CA         50.9013   33.4878   42.9731 C.3       4 GLC5        0.0000 
     69 CA         51.9810   34.9810   43.3010 C.3       8 GLP5        0.0000 
     70 CA         49.8484   29.5880   43.1194 C.3       4 GLC5        0.0000 
     71 CA         50.3370   31.6170   44.3690 C.3      12 GLL5        0.0000 
     72 CA         48.7292   28.1662   48.5648 C.3       4 GLC5        0.0000 
     73 CA         49.1140   28.6200   50.4510 C.3       8 GLP5        0.0000 
     74 CA         49.4575   30.4141   48.2361 C.3       4 GLC5        0.0000 
     75 CA         48.7660   31.0190   49.7860 C.3       8 GLP5        0.0000 
     76 CA         50.2920   28.2860   48.8150 C.3       4 GLC5        0.0000 
     77 CA         51.7020   28.6210   47.1190 C.3      12 GLL5        0.0000 
     78 CA         50.6433   25.9482   48.6972 C.3       4 GLC5        0.0000 
     79 CA         53.0807   26.9731   49.5875 C.3       4 GLC5        0.0000 
     80 CA         52.1650   26.2800   47.5600 C.3      12 GLL5        0.0000 
     81 CA         53.2010   27.1940   51.5380 C.3       8 GLP5        0.0000 
     82 CA         45.3598   26.5659   48.0998 C.3       4 GLC5        0.0000 
     83 CA         44.3870   26.9190   49.6620 C.3       8 GLP5        0.0000 
     84 CA         47.8248   24.8652   45.5625 C.3       4 GLC5        0.0000 
     85 CA         45.9040   25.7830   46.5240 C.3      12 GLL5        0.0000 
     86 CA         49.0740   23.7620   44.5030 C.3       8 GLP5        0.0000 
@<TRIPOS>BOND
@<TRIPOS>SUBSTRUCTURE
     1 ALC1        1 GROUP        1 X    ALC  0     ROOT ALC X 1
     2 SEC2        7 GROUP        1 X    SEC  0     **** SEC X 2
     3 ZIC7        4 GROUP        1 X    ZIC  0     **** ZIC X 5
     4 GLC5       10 GROUP        1 X    GLC  0     **** GLC X 6
     5 ALP1        3 GROUP        1 Y    ALP  0     ROOT ALP Y 8
     6 SEP2        9 GROUP        1 Y    SEP  0     **** SEP Y 9
     7 ZIP7        6 GROUP        1 Y    ZIP  0     **** ZIP Y 12
     8 GLP5       12 GROUP        1 Y    GLP  0     **** GLP Y 13
     9 ALL1        2 GROUP        1 Z    ALL  0     ROOT ALL Z 15
    10 SEL2        8 GROUP        1 Z    SEL  0     **** SEL Z 16
    11 ZIL7        5 GROUP        1 Z    ZIL  0     **** ZIL Z 19
    12 GLL5       11 GROUP        1 Z    GLL  0     **** GLL Z 20
@<TRIPOS>SET

