#    Name: 3e8r_615_1_ligand
#    Modification time : Tue Mar 25 01:14:39 2014

@<TRIPOS>MOLECULE
3e8r_615_1_ligand
   60    64     1     0     0
SMALL
NO_CHARGES


@<TRIPOS>ATOM
      1 C7         50.3370   31.6170   44.3690 C.ar      1 615486      0.0000 
      2 C27        45.3190   28.1110   46.0550 C.ar      1 615486      0.0000 
      3 C17        53.9880   27.8820   47.6560 C.ar      1 615486      0.0000 
      4 C1         48.2600   31.1940   39.5170 C.2       1 615486      0.0000 
      5 C8         51.2880   30.7070   43.8680 C.ar      1 615486      0.0000 
      6 N2         50.1650   35.1670   39.7550 N.am      1 615486      0.0000 
      7 O2         51.9140   33.8410   39.3450 O.2       1 615486      0.0000 
      8 O1         47.2650   31.9200   39.6150 O.2       1 615486      0.0000 
      9 C3         50.7090   34.0630   39.2370 C.2       1 615486      0.0000 
     10 C28        46.6720   28.4670   46.2460 C.ar      1 615486      0.0000 
     11 C26        44.9320   26.7600   46.1860 C.ar      1 615486      0.0000 
     12 N1         49.9410   26.9570   47.0730 N.ar      1 615486      0.0000 
     13 C2         50.6570   30.9130   40.0770 C.3       1 615486      0.0000 
     14 O3         50.3410   31.8130   45.7100 O.3       1 615486      0.0000 
     15 C4         50.5700   31.1580   41.5830 C.ar      1 615486      0.0000 
     16 C5         49.6420   32.1040   42.0800 C.ar      1 615486      0.0000 
     17 C6         49.5370   32.3580   43.4590 C.ar      1 615486      0.0000 
     18 C9         51.4150   30.4780   42.4710 C.ar      1 615486      0.0000 
     19 C10        51.0150   31.0990   46.7030 C.3       1 615486      0.0000 
     20 C11        50.7470   29.6260   46.7920 C.ar      1 615486      0.0000 
     21 C12        49.0430   27.9180   46.7720 C.ar      1 615486      0.0000 
     22 C13        49.4170   29.2560   46.6250 C.ar      1 615486      0.0000 
     23 C14        51.2380   27.2830   47.2390 C.ar      1 615486      0.0000 
     24 C15        51.7020   28.6210   47.1190 C.ar      1 615486      0.0000 
     25 C16        53.0840   28.9020   47.3340 C.ar      1 615486      0.0000 
     26 C18        53.5240   26.5670   47.7720 C.ar      1 615486      0.0000 
     27 C19        52.1650   26.2800   47.5600 C.ar      1 615486      0.0000 
     28 C20        47.6460   27.5070   46.5850 C.ar      1 615486      0.0000 
     29 C21        49.8470   33.0880   38.5370 C.3       1 615486      0.0000 
     30 C22        49.6360   31.7720   39.3180 C.3       1 615486      0.0000 
     31 C23        49.6520   31.9010   37.7710 C.3       1 615486      0.0000 
     32 O4         51.1490   36.0030   40.3530 O.3       1 615486      0.0000 
     33 N3         48.2030   29.8610   39.6630 N.am      1 615486      0.0000 
     34 C24        47.2470   26.1540   46.7200 C.ar      1 615486      0.0000 
     35 C25        45.9040   25.7830   46.5240 C.ar      1 615486      0.0000 
     36 H          44.6292   28.8224   45.8249 H         1 615486      0.0000 
     37 H          54.9745   28.0960   47.8044 H         1 615486      0.0000 
     38 H          51.9010   30.1990   44.5166 H         1 615486      0.0000 
     39 H          49.2209   35.4124   39.7488 H         1 615486      0.0000 
     40 H          46.9529   29.4544   46.1343 H         1 615486      0.0000 
     41 H          43.9639   26.4852   46.0398 H         1 615486      0.0000 
     42 H          50.4610   29.8619   39.8706 H         1 615486      0.0000 
     43 H          51.6587   31.1600   39.7287 H         1 615486      0.0000 
     44 H          49.0378   32.6107   41.4201 H         1 615486      0.0000 
     45 H          48.8952   33.0654   43.8083 H         1 615486      0.0000 
     46 H          52.1151   29.8252   42.1276 H         1 615486      0.0000 
     47 H          50.8070   31.5358   47.7299 H         1 615486      0.0000 
     48 H          52.1387   31.2255   46.6028 H         1 615486      0.0000 
     49 H          48.7091   29.9625   46.3941 H         1 615486      0.0000 
     50 H          53.4108   29.8735   47.2485 H         1 615486      0.0000 
     51 H          54.1732   25.8115   48.0114 H         1 615486      0.0000 
     52 H          51.8390   25.2992   47.6433 H         1 615486      0.0000 
     53 H          48.6812   33.3790   38.6811 H         1 615486      0.0000 
     54 H          50.4892   31.5346   37.4792 H         1 615486      0.0000 
     55 H          48.7401   31.8183   37.4847 H         1 615486      0.0000 
     56 H          47.3073   29.4817   39.8950 H         1 615486      0.0000 
     57 H          49.0613   29.3663   39.5268 H         1 615486      0.0000 
     58 H          47.9448   25.4440   46.9622 H         1 615486      0.0000 
     59 H          45.6214   24.8046   46.6245 H         1 615486      0.0000 
     60 H          50.6302   36.7052   40.8406 H         1 615486      0.0000 
@<TRIPOS>BOND
     1    5    1 ar   
     2   14    1 1    
     3   17    1 ar   
     4   10    2 ar   
     5   11    2 ar   
     6   36    2 1    
     7   25    3 ar   
     8   26    3 ar   
     9   37    3 1    
    10    8    4 2    
    11   30    4 1    
    12   33    4 am   
    13   18    5 ar   
    14   38    5 1    
    15    9    6 am   
    16   32    6 1    
    17   39    6 1    
    18    9    7 2    
    19   29    9 1    
    20   28   10 ar   
    21   40   10 1    
    22   35   11 ar   
    23   41   11 1    
    24   21   12 ar   
    25   23   12 ar   
    26   15   13 1    
    27   30   13 1    
    28   42   13 1    
    29   43   13 1    
    30   19   14 1    
    31   16   15 ar   
    32   18   15 ar   
    33   17   16 ar   
    34   44   16 1    
    35   45   17 1    
    36   46   18 1    
    37   20   19 1    
    38   47   19 1    
    39   48   19 1    
    40   22   20 ar   
    41   24   20 ar   
    42   22   21 ar   
    43   28   21 1    
    44   49   22 1    
    45   24   23 ar   
    46   27   23 ar   
    47   25   24 ar   
    48   50   25 1    
    49   27   26 ar   
    50   51   26 1    
    51   52   27 1    
    52   34   28 ar   
    53   30   29 1    
    54   31   29 1    
    55   53   29 1    
    56   31   30 1    
    57   54   31 1    
    58   55   31 1    
    59   60   32 1    
    60   56   33 1    
    61   57   33 1    
    62   35   34 ar   
    63   58   34 1    
    64   59   35 1    
@<TRIPOS>SUBSTRUCTURE
     1 615486      1 GROUP   
@<TRIPOS>SET

