#    Name: 3mvx_BHZ_1_INTS_M
#    Modification time : Mon Mar 24 23:53:58 2014

@<TRIPOS>MOLECULE
3mvx_BHZ_1_INTS_M
   65     0    12     0     0
SMALL
NO_CHARGES


@<TRIPOS>ATOM
      1 Zn          1.0460   -4.2710   34.2930 Zn        3 ZIC7        0.0000 
      2 Zn          0.3600   -3.6990   33.8620 Zn       11 ZIL7        0.0000 
      3 Zn          1.7320   -4.8430   34.7240 Zn        7 ZIP7        0.0000 
      4 Zn          1.4010   -5.6540   34.1140 Zn        3 ZIC7        0.0000 
      5 Zn          1.0700   -6.4650   33.5040 Zn       11 ZIL7        0.0000 
      6 CA          3.1085   -8.1150   32.1700 C.3       4 GLC5        0.0000 
      7 CA          1.9430   -6.6860   32.3800 C.3      12 GLL5        0.0000 
      8 CA          4.2740   -9.5440   31.9600 C.3       8 GLP5        0.0000 
      9 CA          4.2015   -7.5660   31.8540 C.3       4 GLC5        0.0000 
     10 CA          3.4190   -6.3490   32.6880 C.3      12 GLL5        0.0000 
     11 CA          4.9840   -8.7830   31.0200 C.3       8 GLP5        0.0000 
     12 Zn          2.6165   -4.9040   34.0215 Zn        3 ZIC7        0.0000 
     13 Zn          3.5010   -4.9650   33.3190 Zn       11 ZIL7        0.0000 
     14 CA          3.1510   -3.7530   30.4565 C.3       4 GLC5        0.0000 
     15 CA          3.4360   -4.0490   32.1290 C.3      12 GLL5        0.0000 
     16 CA          2.8660   -3.4570   28.7840 C.3       8 GLP5        0.0000 
     17 CA          6.2685   -1.8225   34.3450 C.3       4 GLC5        0.0000 
     18 CA          5.4970   -0.8310   32.5140 C.3      12 GLL5        0.0000 
     19 CA          7.0400   -2.8140   36.1760 C.3       8 GLP5        0.0000 
     20 CA          2.0570   -7.9920   36.1955 C.3       4 GLC5        0.0000 
     21 CA          1.1980   -7.6990   34.3940 C.3      12 GLL5        0.0000 
     22 CA          2.9160   -8.2850   37.9970 C.3       8 GLP5        0.0000 
     23 CA          2.0630   -9.2815   33.7855 C.3       4 GLC5        0.0000 
     24 CA          2.9280  -10.8640   33.1770 C.3       8 GLP5        0.0000 
     25 Zn          1.1615   -5.4500   35.3510 Zn        3 ZIC7        0.0000 
     26 Zn          0.5910   -6.0570   35.9780 Zn       11 ZIL7        0.0000 
     27 CA          5.9135   -3.8805   35.0895 C.3       4 GLC5        0.0000 
     28 CA          4.7870   -4.9470   34.0030 C.3      12 GLL5        0.0000 
     29 CA          5.7020   -6.5515   33.3720 C.3       4 GLC5        0.0000 
     30 CA          6.6170   -8.1560   32.7410 C.3       8 GLP5        0.0000 
     31 CA          6.5915   -4.8735   32.8695 C.3       4 GLC5        0.0000 
     32 CA          8.3960   -4.8000   31.7360 C.3       8 GLP5        0.0000 
     33 NZ         -0.2755   -9.6060   36.4535 N.4       2 LYC4        0.0000 
     34 NZ         -0.2680   -8.1430   36.2500 N.4      10 LYL4        0.0000 
     35 NZ         -0.9870  -10.9530   37.7920 N.4       6 LYP4        0.0000 
     36 N          -0.2755   -9.6060   36.4535 N.am      1 SEC2        0.0000 
     37 N          -0.2680   -8.1430   36.2500 N.am      9 SEL2        0.0000 
     38 N          -0.2830  -11.0690   36.6570 N.am      5 SEP2        0.0000 
     39 N          -0.8390   -8.9285   37.2285 N.am      1 SEC2        0.0000 
     40 N          -1.4100   -9.7140   38.2070 N.am      5 SEP2        0.0000 
     41 NZ          3.2800   -5.1845   37.1590 N.4       2 LYC4        0.0000 
     42 NZ          3.3860   -5.6910   35.7300 N.4      10 LYL4        0.0000 
     43 NZ          4.1760   -5.1390   39.3680 N.4       6 LYP4        0.0000 
     44 Zn          2.5590   -5.2670   35.2270 Zn        3 ZIC7        0.0000 
     45 Zn          3.3860   -5.6910   35.7300 Zn       11 ZIL7        0.0000 
     46 N           3.2800   -5.1845   37.1590 N.am      1 SEC2        0.0000 
     47 N           3.3860   -5.6910   35.7300 N.am      9 SEL2        0.0000 
     48 N           3.1740   -4.6780   38.5880 N.am      5 SEP2        0.0000 
     49 NZ          5.3490   -5.9170   37.4215 N.4       2 LYC4        0.0000 
     50 NZ          5.5590   -5.9990   36.0230 N.4      10 LYL4        0.0000 
     51 N           5.3490   -5.9170   37.4215 N.am      1 SEC2        0.0000 
     52 N           5.5590   -5.9990   36.0230 N.am      9 SEL2        0.0000 
     53 N           5.1390   -5.8350   38.8200 N.am      5 SEP2        0.0000 
     54 CA         -1.0103   -6.2627   29.2395 C.3       4 GLC5        0.0000 
     55 CA         -1.1520   -5.3290   30.8350 C.3      12 GLL5        0.0000 
     56 CA         -0.7590   -7.7810   28.0220 C.3       8 GLP5        0.0000 
     57 CA          2.8800   -6.1597   30.5845 C.3       4 GLC5        0.0000 
     58 CA          3.0790   -5.8020   28.6350 C.3       8 GLP5        0.0000 
     59 CA          5.4363   -1.4160   30.6004 C.3       4 GLC5        0.0000 
     60 CA          5.8700   -1.2200   28.7880 C.3       8 GLP5        0.0000 
     61 CA          6.3780    0.2345   33.8233 C.3       4 GLC5        0.0000 
     62 CA          7.7050    0.9030   34.7530 C.3       8 GLP5        0.0000 
     63 CA          4.4943   -1.6270   35.0874 C.3       4 GLC5        0.0000 
     64 CA          4.6050   -0.0370   33.2730 C.3      12 GLL5        0.0000 
     65 CA          5.4860   -2.1680   36.7890 C.3       8 GLP5        0.0000 
@<TRIPOS>BOND
@<TRIPOS>SUBSTRUCTURE
     1 SEC2       36 GROUP        1 X    SEC  0     ROOT SEC X 2
     2 LYC4       33 GROUP        1 X    LYC  0     **** LYC X 4
     3 ZIC7        1 GROUP        1 X    ZIC  0     **** ZIC X 5
     4 GLC5        6 GROUP        1 X    GLC  0     **** GLC X 6
     5 SEP2       38 GROUP        1 Y    SEP  0     ROOT SEP Y 9
     6 LYP4       35 GROUP        1 Y    LYP  0     **** LYP Y 11
     7 ZIP7        3 GROUP        1 Y    ZIP  0     **** ZIP Y 12
     8 GLP5        8 GROUP        1 Y    GLP  0     **** GLP Y 13
     9 SEL2       37 GROUP        1 Z    SEL  0     ROOT SEL Z 16
    10 LYL4       34 GROUP        1 Z    LYL  0     **** LYL Z 18
    11 ZIL7        2 GROUP        1 Z    ZIL  0     **** ZIL Z 19
    12 GLL5        7 GROUP        1 Z    GLL  0     **** GLL Z 20
@<TRIPOS>SET

