#    Name: 3mvx_BHZ_1_ligand
#    Modification time : Mon Mar 24 23:53:58 2014

@<TRIPOS>MOLECULE
3mvx_BHZ_1_ligand
   48    49     1     0     0
SMALL
NO_CHARGES


@<TRIPOS>ATOM
      1 C1         -0.5380   -5.1800   32.1210 C.ar      1 BHZ504      0.0000 
      2 C2         -1.1520   -5.3290   30.8350 C.ar      1 BHZ504      0.0000 
      3 C3         -1.3710   -4.1600   30.0790 C.ar      1 BHZ504      0.0000 
      4 C4         -1.0000   -2.8890   30.5210 C.ar      1 BHZ504      0.0000 
      5 C5         -0.4080   -2.7740   31.7980 C.ar      1 BHZ504      0.0000 
      6 C6         -0.1930   -3.9410   32.6070 C.ar      1 BHZ504      0.0000 
      7 O6          0.3600   -3.6990   33.8620 O.3       1 BHZ504      0.0000 
      8 C7         -0.3310   -6.3980   32.9710 C.3       1 BHZ504      0.0000 
      9 N8          1.0700   -6.4650   33.5040 N.3       1 BHZ504      0.0000 
     10 C9          1.9430   -6.6860   32.3800 C.3       1 BHZ504      0.0000 
     11 C10         3.4190   -6.3490   32.6880 C.3       1 BHZ504      0.0000 
     12 N11         3.5010   -4.9650   33.3190 N.3       1 BHZ504      0.0000 
     13 C12         3.4360   -4.0490   32.1290 C.3       1 BHZ504      0.0000 
     14 C13         3.8740   -2.6390   32.5190 C.ar      1 BHZ504      0.0000 
     15 C14         5.1420   -2.1470   32.1040 C.ar      1 BHZ504      0.0000 
     16 C15         5.4970   -0.8310   32.5140 C.ar      1 BHZ504      0.0000 
     17 C16         4.6050   -0.0370   33.2730 C.ar      1 BHZ504      0.0000 
     18 C17         3.3710   -0.5550   33.6520 C.ar      1 BHZ504      0.0000 
     19 C18         3.0170   -1.8760   33.3090 C.ar      1 BHZ504      0.0000 
     20 C19         1.1980   -7.6990   34.3940 C.3       1 BHZ504      0.0000 
     21 C20         0.4170   -7.2600   35.6450 C.2       1 BHZ504      0.0000 
     22 O20         0.5910   -6.0570   35.9780 O.co2     1 BHZ504      0.0000 
     23 C21         4.7870   -4.9470   34.0030 C.3       1 BHZ504      0.0000 
     24 O21        -0.2680   -8.1430   36.2500 O.co2     1 BHZ504      0.0000 
     25 C22         4.5610   -5.5440   35.3990 C.2       1 BHZ504      0.0000 
     26 O22         3.3860   -5.6910   35.7300 O.co2     1 BHZ504      0.0000 
     27 O23         5.5590   -5.9990   36.0230 O.co2     1 BHZ504      0.0000 
     28 H          -1.4115   -6.2339   30.4963 H         1 BHZ504      0.0000 
     29 H          -1.8325   -4.2548   29.1458 H         1 BHZ504      0.0000 
     30 H          -1.1477   -2.0690   29.9487 H         1 BHZ504      0.0000 
     31 H          -0.1278   -1.8615   32.1573 H         1 BHZ504      0.0000 
     32 H          -0.5382   -7.2974   32.3767 H         1 BHZ504      0.0000 
     33 H          -1.0395   -6.3829   33.8093 H         1 BHZ504      0.0000 
     34 H           1.6422   -6.0730   31.5093 H         1 BHZ504      0.0000 
     35 H           1.9109   -7.7403   32.0458 H         1 BHZ504      0.0000 
     36 H           3.9820   -6.3643   31.7648 H         1 BHZ504      0.0000 
     37 H           3.8114   -7.0876   33.3735 H         1 BHZ504      0.0000 
     38 H           2.4163   -4.0094   31.7469 H         1 BHZ504      0.0000 
     39 H           4.0922   -4.4177   31.3411 H         1 BHZ504      0.0000 
     40 H           5.7583   -2.7013   31.5479 H         1 BHZ504      0.0000 
     41 H           6.4158   -0.4551   32.2530 H         1 BHZ504      0.0000 
     42 H           4.8766    0.9129   33.5366 H         1 BHZ504      0.0000 
     43 H           2.7080    0.0214   34.1849 H         1 BHZ504      0.0000 
     44 H           2.1321   -2.2660   33.6429 H         1 BHZ504      0.0000 
     45 H           2.2055   -7.8602   34.6455 H         1 BHZ504      0.0000 
     46 H           0.7161   -8.5187   33.9467 H         1 BHZ504      0.0000 
     47 H           5.1582   -3.9391   34.1212 H         1 BHZ504      0.0000 
     48 H           5.5174   -5.5548   33.4884 H         1 BHZ504      0.0000 
@<TRIPOS>BOND
     1    2    1 ar   
     2    6    1 ar   
     3    8    1 1    
     4    3    2 ar   
     5   28    2 1    
     6    4    3 ar   
     7   29    3 1    
     8    5    4 ar   
     9   30    4 1    
    10    6    5 ar   
    11   31    5 1    
    12    7    6 1    
    13    9    8 1    
    14   32    8 1    
    15   33    8 1    
    16   10    9 1    
    17   20    9 1    
    18   11   10 1    
    19   34   10 1    
    20   35   10 1    
    21   12   11 1    
    22   36   11 1    
    23   37   11 1    
    24   13   12 1    
    25   23   12 1    
    26   14   13 1    
    27   38   13 1    
    28   39   13 1    
    29   15   14 ar   
    30   19   14 ar   
    31   16   15 ar   
    32   40   15 1    
    33   17   16 ar   
    34   41   16 1    
    35   18   17 ar   
    36   42   17 1    
    37   19   18 ar   
    38   43   18 1    
    39   44   19 1    
    40   21   20 1    
    41   45   20 1    
    42   46   20 1    
    43   22   21 ar   
    44   24   21 ar   
    45   25   23 1    
    46   47   23 1    
    47   48   23 1    
    48   26   25 ar   
    49   27   25 ar   
@<TRIPOS>SUBSTRUCTURE
     1 BHZ504      1 GROUP   
@<TRIPOS>SET

