#    Name: 2i40_BLZ_1_INTS_M
#    Modification time : Tue Mar 25 17:23:47 2014

@<TRIPOS>MOLECULE
2i40_BLZ_1_INTS_M
   63     0     9     0     0
SMALL
NO_CHARGES


@<TRIPOS>ATOM
      1 CA         -6.5285  207.5650  109.3235 C.3       3 GLC5        0.0000 
      2 CA         -6.7900  208.4020  110.9490 C.3       9 GLL5        0.0000 
      3 CA         -6.2670  206.7280  107.6980 C.3       6 GLP5        0.0000 
      4 CA         -6.6380  210.0180  109.5690 C.3       3 GLC5        0.0000 
      5 CA         -6.4860  211.6340  108.1890 C.3       6 GLP5        0.0000 
      6 CA         -6.9620  210.2685  111.4385 C.3       3 GLC5        0.0000 
      7 CA         -7.1340  212.1350  111.9280 C.3       6 GLP5        0.0000 
      8 CA         -9.5500  209.0435  108.6790 C.3       3 GLC5        0.0000 
      9 CA         -9.2110  207.6380  110.3710 C.3       9 GLL5        0.0000 
     10 CA         -9.8890  210.4490  106.9870 C.3       6 GLP5        0.0000 
     11 N         -10.7955  208.1715  107.8510 N.am      2 SEC2        0.0000 
     12 N         -11.2020  207.2510  108.9350 N.am      8 SEL2        0.0000 
     13 N         -10.3890  209.0920  106.7670 N.am      5 SEP2        0.0000 
     14 CA        -12.5975  203.1125  112.2210 C.3       3 GLC5        0.0000 
     15 CA        -13.6700  204.8100  112.0950 C.3       9 GLL5        0.0000 
     16 CA        -11.5250  201.4150  112.3470 C.3       6 GLP5        0.0000 
     17 CA        -14.8175  201.6325  117.0415 C.3       3 GLC5        0.0000 
     18 CA        -15.5660  202.9480  115.6730 C.3       9 GLL5        0.0000 
     19 CA        -14.0690  200.3170  118.4100 C.3       6 GLP5        0.0000 
     20 CA        -16.6775  201.4930  115.3000 C.3       3 GLC5        0.0000 
     21 CA        -17.7890  200.0380  114.9270 C.3       6 GLP5        0.0000 
     22 CA        -15.1750  209.4145  116.2315 C.3       3 GLC5        0.0000 
     23 CA        -14.7140  207.3320  115.6260 C.3       9 GLL5        0.0000 
     24 CA        -15.6360  211.4970  116.8370 C.3       6 GLP5        0.0000 
     25 CA        -10.4540  202.8195  116.5625 C.3       3 GLC5        0.0000 
     26 CA        -12.1910  203.9660  116.2420 C.3       9 GLL5        0.0000 
     27 CA         -8.7170  201.6730  116.8830 C.3       6 GLP5        0.0000 
     28 CA        -12.3915  202.3125  115.3490 C.3       3 GLC5        0.0000 
     29 CA        -12.5920  200.6590  114.4560 C.3       6 GLP5        0.0000 
     30 CA        -15.9535  207.3580  109.1805 C.3       3 GLC5        0.0000 
     31 CA        -15.1110  206.4580  110.7460 C.3       9 GLL5        0.0000 
     32 CA        -16.7960  208.2580  107.6150 C.3       6 GLP5        0.0000 
     33 CA        -15.4660  205.3440  108.9620 C.3       3 GLC5        0.0000 
     34 CA        -15.8210  204.2300  107.1780 C.3       6 GLP5        0.0000 
     35 N         -18.3920  207.2390  112.6945 N.am      2 SEC2        0.0000 
     36 N         -18.0030  206.4200  111.4850 N.am      8 SEL2        0.0000 
     37 N         -18.7810  208.0580  113.9040 N.am      5 SEP2        0.0000 
     38 O         -19.1515  203.9360  112.7795 O.2       1 ALC1        0.0000 
     39 O         -17.8470  204.5600  112.7920 O.2       7 ALL1        0.0000 
     40 O         -20.4560  203.3120  112.7670 O.2       4 ALP1        0.0000 
     41 CA         -8.7858  205.5595  110.9748 C.3       3 GLC5        0.0000 
     42 CA         -8.7540  207.4780  111.6640 C.3       9 GLL5        0.0000 
     43 CA         -8.5890  203.5610  110.9320 C.3       6 GLP5        0.0000 
     44 CA         -9.7385  205.2483  110.7737 C.3       3 GLC5        0.0000 
     45 CA        -10.5030  207.2120  110.1120 C.3       9 GLL5        0.0000 
     46 CA        -11.3990  205.1992  109.4532 C.3       3 GLC5        0.0000 
     47 CA        -11.2730  206.6590  111.1190 C.3       9 GLL5        0.0000 
     48 CA        -11.9100  203.4630  108.2910 C.3       6 GLP5        0.0000 
     49 CA        -12.7675  204.3838  109.9543 C.3       3 GLC5        0.0000 
     50 CA        -13.5800  205.7990  111.1400 C.3       9 GLL5        0.0000 
     51 CA        -13.8358  207.9363  111.0115 C.3       3 GLC5        0.0000 
     52 CA        -13.3260  209.7440  111.0800 C.3       6 GLP5        0.0000 
     53 CA        -13.8633  201.9837  114.8118 C.3       3 GLC5        0.0000 
     54 CA        -14.7030  203.6690  114.6620 C.3       9 GLL5        0.0000 
     55 CA        -16.6220  207.0320  115.7990 C.3       3 GLC5        0.0000 
     56 CA        -15.0740  206.1160  115.0920 C.3       9 GLL5        0.0000 
     57 CA        -18.3500  207.3400  116.2390 C.3       6 GLP5        0.0000 
     58 CA        -16.1800  207.8428  111.8845 C.3       3 GLC5        0.0000 
     59 CA        -15.9110  205.4310  111.8600 C.3       9 GLL5        0.0000 
     60 CA        -16.8490  209.7410  112.4660 C.3       6 GLP5        0.0000 
     61 CA         -9.3860  205.1360  111.7332 C.3       3 GLC5        0.0000 
     62 CA        -10.8290  206.4950  112.4160 C.3       9 GLL5        0.0000 
     63 CA        -12.0922  208.2296  111.2979 C.3       3 GLC5        0.0000 
@<TRIPOS>BOND
@<TRIPOS>SUBSTRUCTURE
     1 ALC1       38 GROUP        1 X    ALC  0     ROOT ALC X 1
     2 SEC2       11 GROUP        1 X    SEC  0     **** SEC X 2
     3 GLC5        1 GROUP        1 X    GLC  0     **** GLC X 6
     4 ALP1       40 GROUP        1 Y    ALP  0     ROOT ALP Y 8
     5 SEP2       13 GROUP        1 Y    SEP  0     **** SEP Y 9
     6 GLP5        3 GROUP        1 Y    GLP  0     **** GLP Y 13
     7 ALL1       39 GROUP        1 Z    ALL  0     ROOT ALL Z 15
     8 SEL2       12 GROUP        1 Z    SEL  0     **** SEL Z 16
     9 GLL5        2 GROUP        1 Z    GLL  0     **** GLL Z 20
@<TRIPOS>SET

