#    Name: 2i40_BLZ_1_ligand
#    Modification time : Tue Mar 25 17:23:47 2014

@<TRIPOS>MOLECULE
2i40_BLZ_1_ligand
   51    54     1     0     0
SMALL
NO_CHARGES


@<TRIPOS>ATOM
      1 C1         -6.7900  208.4020  110.9490 C.3       1 BLZ301      0.0000 
      2 O2         -7.4790  207.8610  112.0600 O.3       1 BLZ301      0.0000 
      3 C3         -8.7540  207.4780  111.6640 C.ar      1 BLZ301      0.0000 
      4 C4         -9.2110  207.6380  110.3710 C.ar      1 BLZ301      0.0000 
      5 C5        -10.5030  207.2120  110.1120 C.ar      1 BLZ301      0.0000 
      6 N6        -11.2020  207.2510  108.9350 N.2       1 BLZ301      0.0000 
      7 C7        -12.3760  206.7330  109.2160 C.2       1 BLZ301      0.0000 
      8 N8        -12.4690  206.3490  110.5240 N.pl3     1 BLZ301      0.0000 
      9 C9        -13.5800  205.7990  111.1400 C.2       1 BLZ301      0.0000 
     10 C10       -13.6700  204.8100  112.0950 C.2       1 BLZ301      0.0000 
     11 C11       -15.0170  204.6010  112.5030 C.2       1 BLZ301      0.0000 
     12 O12       -15.4600  203.7190  113.4340 O.3       1 BLZ301      0.0000 
     13 C13       -14.7030  203.6690  114.6620 C.3       1 BLZ301      0.0000 
     14 C14       -15.5660  202.9480  115.6730 C.3       1 BLZ301      0.0000 
     15 C15       -14.2850  204.9930  115.2620 C.ar      1 BLZ301      0.0000 
     16 C16       -15.0740  206.1160  115.0920 C.ar      1 BLZ301      0.0000 
     17 C17       -14.7140  207.3320  115.6260 C.ar      1 BLZ301      0.0000 
     18 C18       -13.5500  207.4380  116.3510 C.ar      1 BLZ301      0.0000 
     19 C19       -12.7560  206.3290  116.5350 C.ar      1 BLZ301      0.0000 
     20 C20       -13.1120  205.1120  115.9960 C.ar      1 BLZ301      0.0000 
     21 CL2       -12.1910  203.9660  116.2420 Cl        1 BLZ301      0.0000 
     22 C22       -15.9110  205.4310  111.8600 C.2       1 BLZ301      0.0000 
     23 S23       -15.1110  206.4580  110.7460 S.3       1 BLZ301      0.0000 
     24 C24       -17.3270  205.5410  111.9970 C.2       1 BLZ301      0.0000 
     25 O25       -18.0030  206.4200  111.4850 O.2       1 BLZ301      0.0000 
     26 N26       -17.8470  204.5600  112.7920 N.am      1 BLZ301      0.0000 
     27 C27       -11.2730  206.6590  111.1190 C.ar      1 BLZ301      0.0000 
     28 C28       -10.8290  206.4950  112.4160 C.ar      1 BLZ301      0.0000 
     29 C29        -9.5370  206.9270  112.6530 C.ar      1 BLZ301      0.0000 
     30 O30        -8.9230  206.8410  113.8990 O.3       1 BLZ301      0.0000 
     31 C31        -9.8050  206.2620  114.8470 C.3       1 BLZ301      0.0000 
     32 H          -8.6351  208.0440  109.6507 H         1 BLZ301      0.0000 
     33 H         -13.1258  206.6212  108.5742 H         1 BLZ301      0.0000 
     34 H         -12.9277  204.3082  112.4572 H         1 BLZ301      0.0000 
     35 H         -13.8090  203.0482  114.5329 H         1 BLZ301      0.0000 
     36 H         -15.9586  206.0366  114.5479 H         1 BLZ301      0.0000 
     37 H         -15.3131  208.1582  115.4834 H         1 BLZ301      0.0000 
     38 H         -13.2727  208.3455  116.7557 H         1 BLZ301      0.0000 
     39 H         -11.8800  206.4095  117.0853 H         1 BLZ301      0.0000 
     40 H         -17.1863  203.9389  113.2136 H         1 BLZ301      0.0000 
     41 H         -18.8428  204.5489  112.8828 H         1 BLZ301      0.0000 
     42 H         -11.3980  206.0942  113.1308 H         1 BLZ301      0.0000 
     43 H          -5.8625  208.6874  111.1903 H         1 BLZ301      0.0000 
     44 H          -6.7085  207.7398  110.2041 H         1 BLZ301      0.0000 
     45 H          -7.2565  209.2048  110.5777 H         1 BLZ301      0.0000 
     46 H         -15.1122  202.8708  116.5608 H         1 BLZ301      0.0000 
     47 H         -16.4327  203.4225  115.8271 H         1 BLZ301      0.0000 
     48 H         -15.7889  202.0195  115.3760 H         1 BLZ301      0.0000 
     49 H          -9.3841  206.1918  115.7514 H         1 BLZ301      0.0000 
     50 H         -10.6410  206.8003  114.9537 H         1 BLZ301      0.0000 
     51 H         -10.0827  205.3390  114.5806 H         1 BLZ301      0.0000 
@<TRIPOS>BOND
     1    2    1 1    
     2   43    1 1    
     3   44    1 1    
     4   45    1 1    
     5    3    2 1    
     6    4    3 ar   
     7   29    3 ar   
     8    5    4 ar   
     9   32    4 1    
    10    6    5 1    
    11   27    5 ar   
    12    7    6 2    
    13    8    7 1    
    14   33    7 1    
    15    9    8 1    
    16   27    8 1    
    17   10    9 2    
    18   23    9 1    
    19   11   10 1    
    20   34   10 1    
    21   12   11 1    
    22   22   11 2    
    23   13   12 1    
    24   14   13 1    
    25   15   13 1    
    26   35   13 1    
    27   46   14 1    
    28   47   14 1    
    29   48   14 1    
    30   16   15 ar   
    31   20   15 ar   
    32   17   16 ar   
    33   36   16 1    
    34   18   17 ar   
    35   37   17 1    
    36   19   18 ar   
    37   38   18 1    
    38   20   19 ar   
    39   39   19 1    
    40   21   20 1    
    41   23   22 1    
    42   24   22 1    
    43   25   24 2    
    44   26   24 am   
    45   40   26 1    
    46   41   26 1    
    47   28   27 ar   
    48   29   28 ar   
    49   42   28 1    
    50   30   29 1    
    51   31   30 1    
    52   49   31 1    
    53   50   31 1    
    54   51   31 1    
@<TRIPOS>SUBSTRUCTURE
     1 BLZ301      1 GROUP   
@<TRIPOS>SET

