#    Name: 1iim_TTP_2_INTS_M
#    Modification time : Tue Mar 25 07:07:21 2014

@<TRIPOS>MOLECULE
1iim_TTP_2_INTS_M
   43     0     9     0     0
SMALL
NO_CHARGES


@<TRIPOS>ATOM
      1 N          23.1825   88.8935   48.1140 N.am      2 SEC2        0.0000 
      2 N          24.1700   87.5500   47.6220 N.am      8 SEL2        0.0000 
      3 N          22.1950   90.2370   48.6060 N.am      5 SEP2        0.0000 
      4 N          26.3830   88.6335   45.2765 N.am      2 SEC2        0.0000 
      5 N          26.3710   88.4290   46.6610 N.am      8 SEL2        0.0000 
      6 N          26.3950   88.8380   43.8920 N.am      5 SEP2        0.0000 
      7 N          28.5510   86.0270   45.1170 N.am      2 SEC2        0.0000 
      8 N          28.5120   84.7210   45.7620 N.am      8 SEL2        0.0000 
      9 N          28.5900   87.3330   44.4720 N.am      5 SEP2        0.0000 
     10 CA         23.2025   89.3045   46.0095 C.3       3 GLC5        0.0000 
     11 CA         23.0270   87.3640   45.2680 C.3       9 GLL5        0.0000 
     12 CA         23.3780   91.2450   46.7510 C.3       6 GLP5        0.0000 
     13 CA         22.8780   88.1650   42.0835 C.3       3 GLC5        0.0000 
     14 CA         22.4350   87.2260   43.8670 C.3       9 GLL5        0.0000 
     15 CA         23.3210   89.1040   40.3000 C.3       6 GLP5        0.0000 
     16 CA         19.4655   88.1730   45.1345 C.3       3 GLC5        0.0000 
     17 CA         20.9040   87.1030   44.0600 C.3       9 GLL5        0.0000 
     18 CA         18.0270   89.2430   46.2090 C.3       6 GLP5        0.0000 
     19 N          20.4365   89.5330   43.0225 N.am      2 SEC2        0.0000 
     20 N          20.3200   88.1230   43.2600 N.am      8 SEL2        0.0000 
     21 N          20.5530   90.9430   42.7850 N.am      5 SEP2        0.0000 
     22 CA         23.6775   84.9710   42.5045 C.3       3 GLC5        0.0000 
     23 CA         21.7140   85.3940   42.6870 C.3       9 GLL5        0.0000 
     24 CA         25.6410   84.5480   42.3220 C.3       6 GLP5        0.0000 
     25 N          20.8085   83.2290   39.5700 N.am      2 SEC2        0.0000 
     26 N          21.2280   83.4070   40.9720 N.am      8 SEL2        0.0000 
     27 N          20.3890   83.0510   38.1680 N.am      5 SEP2        0.0000 
     28 O          22.3530   81.1735   40.7100 O.2       1 ALC1        0.0000 
     29 O          22.2260   81.7750   42.0020 O.2       7 ALL1        0.0000 
     30 O          22.4800   80.5720   39.4180 O.2       4 ALP1        0.0000 
     31 CA         24.3720   79.8665   45.0040 C.3       3 GLC5        0.0000 
     32 CA         23.4010   81.7020   45.0480 C.3       9 GLL5        0.0000 
     33 CA         25.3430   78.0310   44.9600 C.3       6 GLP5        0.0000 
     34 CA         24.5100   86.4635   43.8773 C.3       3 GLC5        0.0000 
     35 CA         26.2890   85.6320   43.1870 C.3       6 GLP5        0.0000 
     36 CA         24.0430   88.5675   44.1587 C.3       3 GLC5        0.0000 
     37 CA         25.3550   89.8400   43.7500 C.3       6 GLP5        0.0000 
     38 CA         19.5425   84.5677   43.6532 C.3       3 GLC5        0.0000 
     39 CA         17.9520   83.5760   44.1800 C.3       6 GLP5        0.0000 
     40 CA         20.7315   82.2145   44.9420 C.3       3 GLC5        0.0000 
     41 CA         22.4780   83.3480   44.1870 C.3       9 GLL5        0.0000 
     42 CA         18.7370   81.7280   45.6630 C.3       6 GLP5        0.0000 
     43 CA         24.1835   83.6245   43.2715 C.3       3 GLC5        0.0000 
@<TRIPOS>BOND
@<TRIPOS>SUBSTRUCTURE
     1 ALC1       28 GROUP        1 X    ALC  0     ROOT ALC X 1
     2 SEC2        1 GROUP        1 X    SEC  0     **** SEC X 2
     3 GLC5       10 GROUP        1 X    GLC  0     **** GLC X 6
     4 ALP1       30 GROUP        1 Y    ALP  0     ROOT ALP Y 8
     5 SEP2        3 GROUP        1 Y    SEP  0     **** SEP Y 9
     6 GLP5       12 GROUP        1 Y    GLP  0     **** GLP Y 13
     7 ALL1       29 GROUP        1 Z    ALL  0     ROOT ALL Z 15
     8 SEL2        2 GROUP        1 Z    SEL  0     **** SEL Z 16
     9 GLL5       11 GROUP        1 Z    GLL  0     **** GLL Z 20
@<TRIPOS>SET

