#    Name: 1iim_TTP_2_ligand
#    Modification time : Tue Mar 25 07:07:21 2014

@<TRIPOS>MOLECULE
1iim_TTP_2_ligand
   42    43     1     0     0
SMALL
NO_CHARGES


@<TRIPOS>ATOM
      1 PA         23.1380   86.2960   47.5450 P.3       1 TTP504      0.0000 
      2 O1A        23.8140   85.1950   47.3240 O.co2     1 TTP504      0.0000 
      3 O2A        22.5540   85.9450   48.9400 O.co2     1 TTP504      0.0000 
      4 O3A        24.1700   87.5500   47.6220 O.3       1 TTP504      0.0000 
      5 PB         25.8230   87.1920   47.4710 P.3       1 TTP504      0.0000 
      6 O1B        26.3720   87.1380   48.9340 O.co2     1 TTP504      0.0000 
      7 O2B        26.3710   88.4290   46.6610 O.co2     1 TTP504      0.0000 
      8 O3B        26.2170   85.7750   46.6800 O.3       1 TTP504      0.0000 
      9 PG         27.6060   84.8600   47.0520 P.3       1 TTP504      0.0000 
     10 O1G        28.5120   84.7210   45.7620 O.co2     1 TTP504      0.0000 
     11 O2G        27.1030   83.4420   47.4910 O.co2     1 TTP504      0.0000 
     12 O3G        28.4210   85.5300   48.2310 O.co2     1 TTP504      0.0000 
     13 O5'        22.4520   86.3700   46.3960 O.3       1 TTP504      0.0000 
     14 C5'        23.0270   87.3640   45.2680 C.3       1 TTP504      0.0000 
     15 C4'        22.4350   87.2260   43.8670 C.3       1 TTP504      0.0000 
     16 O4'        22.8540   86.0080   43.2490 O.3       1 TTP504      0.0000 
     17 C3'        20.9040   87.1030   44.0600 C.3       1 TTP504      0.0000 
     18 O3'        20.3200   88.1230   43.2600 O.3       1 TTP504      0.0000 
     19 C2'        20.5520   85.7250   43.5660 C.3       1 TTP504      0.0000 
     20 C1'        21.7140   85.3940   42.6870 C.3       1 TTP504      0.0000 
     21 N1         21.8730   83.8740   43.0850 N.am      1 TTP504      0.0000 
     22 C2         21.7720   83.0350   42.0100 C.2       1 TTP504      0.0000 
     23 O2         21.2280   83.4070   40.9720 O.2       1 TTP504      0.0000 
     24 N3         22.2260   81.7750   42.0020 N.am      1 TTP504      0.0000 
     25 C4         22.8170   81.2650   43.0880 C.2       1 TTP504      0.0000 
     26 O4         23.2280   80.0090   43.0010 O.2       1 TTP504      0.0000 
     27 C5         22.9740   82.0540   44.2550 C.2       1 TTP504      0.0000 
     28 C5M        23.4010   81.7020   45.0480 C.3       1 TTP504      0.0000 
     29 C6         22.4780   83.3480   44.1870 C.2       1 TTP504      0.0000 
     30 H          24.1214   87.2053   45.2320 H         1 TTP504      0.0000 
     31 H          22.8727   88.3936   45.6426 H         1 TTP504      0.0000 
     32 H          22.6295   88.0793   43.3017 H         1 TTP504      0.0000 
     33 H          20.7017   87.1937   45.0834 H         1 TTP504      0.0000 
     34 H          19.6565   85.7619   42.9977 H         1 TTP504      0.0000 
     35 H          20.5014   85.0495   44.3829 H         1 TTP504      0.0000 
     36 H          21.5357   85.4759   41.7340 H         1 TTP504      0.0000 
     37 H          22.1174   81.1876   41.1418 H         1 TTP504      0.0000 
     38 H          22.5808   83.9566   45.0501 H         1 TTP504      0.0000 
     39 H          24.3414   81.4143   44.8668 H         1 TTP504      0.0000 
     40 H          23.4382   82.3802   45.7819 H         1 TTP504      0.0000 
     41 H          22.9154   80.9059   45.4090 H         1 TTP504      0.0000 
     42 H          20.8123   88.0835   42.3904 H         1 TTP504      0.0000 
@<TRIPOS>BOND
     1    2    1 ar   
     2    3    1 ar   
     3    4    1 1    
     4   13    1 1    
     5    5    4 1    
     6    6    5 ar   
     7    7    5 ar   
     8    8    5 1    
     9    9    8 1    
    10   10    9 ar   
    11   11    9 ar   
    12   12    9 ar   
    13   14   13 1    
    14   15   14 1    
    15   30   14 1    
    16   31   14 1    
    17   16   15 1    
    18   17   15 1    
    19   32   15 1    
    20   20   16 1    
    21   18   17 1    
    22   19   17 1    
    23   33   17 1    
    24   42   18 1    
    25   20   19 1    
    26   34   19 1    
    27   35   19 1    
    28   21   20 1    
    29   36   20 1    
    30   22   21 1    
    31   29   21 1    
    32   23   22 2    
    33   24   22 1    
    34   25   24 1    
    35   37   24 1    
    36   26   25 2    
    37   27   25 1    
    38   28   27 1    
    39   29   27 2    
    40   39   28 1    
    41   40   28 1    
    42   41   28 1    
    43   38   29 1    
@<TRIPOS>SUBSTRUCTURE
     1 TTP504      1 GROUP   
@<TRIPOS>SET

