#    Name: 2ien_017_1_INTS_M
#    Modification time : Tue Mar 25 17:48:00 2014

@<TRIPOS>MOLECULE
2ien_017_1_INTS_M
   79     0     9     0     0
SMALL
NO_CHARGES


@<TRIPOS>ATOM
      1 O          19.7035   29.5315   13.6795 O.2       1 ALC1        0.0000 
      2 O          21.0910   28.7350   14.0670 O.2       7 ALL1        0.0000 
      3 O          18.3160   30.3280   13.2920 O.2       4 ALP1        0.0000 
      4 CA         16.8160   25.6270   13.6385 C.3       3 GLC5        0.0000 
      5 CA         18.6260   26.1600   14.6750 C.3       9 GLL5        0.0000 
      6 CA         15.0060   25.0940   12.6020 C.3       6 GLP5        0.0000 
      7 CA         16.9720   21.5635   21.3230 C.3       3 GLC5        0.0000 
      8 CA         18.3680   22.3520   19.8930 C.3       9 GLL5        0.0000 
      9 CA         15.5760   20.7750   22.7530 C.3       6 GLP5        0.0000 
     10 CA         18.8300   25.6110   22.2345 C.3       3 GLC5        0.0000 
     11 CA         19.5030   24.3350   20.9200 C.3       9 GLL5        0.0000 
     12 CA         18.1570   26.8870   23.5490 C.3       6 GLP5        0.0000 
     13 CA         20.0240   24.0280   22.7490 C.3       3 GLC5        0.0000 
     14 CA         20.5450   23.7210   24.5780 C.3       6 GLP5        0.0000 
     15 CA         18.2850   23.5730   22.5650 C.3       3 GLC5        0.0000 
     16 CA         17.0670   22.8110   24.2100 C.3       6 GLP5        0.0000 
     17 CA         16.6165   26.8675   16.8920 C.3       3 GLC5        0.0000 
     18 CA         16.5050   24.8940   17.5640 C.3       9 GLL5        0.0000 
     19 CA         16.7280   28.8410   16.2200 C.3       6 GLP5        0.0000 
     20 N          14.1130   25.5830   17.4080 N.am      2 SEC2        0.0000 
     21 N          14.2320   24.7640   18.4090 N.am      8 SEL2        0.0000 
     22 N          13.9940   26.4020   16.4070 N.am      5 SEP2        0.0000 
     23 O          13.7835   25.3170   19.5965 O.2       1 ALC1        0.0000 
     24 O          14.2320   24.7640   18.4090 O.2       7 ALL1        0.0000 
     25 O          13.3350   25.8700   20.7840 O.2       4 ALP1        0.0000 
     26 O          14.4875   24.5530   19.9595 O.2       1 ALC1        0.0000 
     27 O          14.7430   24.3420   21.5100 O.2       4 ALP1        0.0000 
     28 O          12.6230   22.4590   17.8770 O.2       1 ALC1        0.0000 
     29 O          14.1320   21.9410   17.8870 O.2       7 ALL1        0.0000 
     30 O          11.1140   22.9770   17.8670 O.2       4 ALP1        0.0000 
     31 CA         15.4320   18.1960   19.9570 C.3       3 GLC5        0.0000 
     32 CA         13.5050   18.6020   19.1020 C.3       9 GLL5        0.0000 
     33 CA         17.3590   17.7900   20.8120 C.3       6 GLP5        0.0000 
     34 CA         12.3705   20.2070   21.1260 C.3       3 GLC5        0.0000 
     35 CA         12.8390   18.3510   20.4850 C.3       9 GLL5        0.0000 
     36 CA         11.9020   22.0630   21.7670 C.3       6 GLP5        0.0000 
     37 CA         13.7240   17.6630   22.1635 C.3       3 GLC5        0.0000 
     38 CA         14.6090   16.9750   23.8420 C.3       6 GLP5        0.0000 
     39 CA         13.8795   16.5655   20.8855 C.3       3 GLC5        0.0000 
     40 CA         14.9200   14.7800   21.2860 C.3       6 GLP5        0.0000 
     41 CA         14.2075   19.5630   21.6190 C.3       3 GLC5        0.0000 
     42 N          10.2580   18.7000   21.4405 N.am      2 SEC2        0.0000 
     43 N          11.4120   18.4700   20.2840 N.am      8 SEL2        0.0000 
     44 N           9.1040   18.9300   22.5970 N.am      5 SEP2        0.0000 
     45 CA         11.0955   20.0515   19.7645 C.3       3 GLC5        0.0000 
     46 CA         11.2200   17.9780   18.9680 C.3       9 GLL5        0.0000 
     47 CA         10.9710   22.1250   20.5610 C.3       6 GLP5        0.0000 
     48 CA          9.3300   18.4010   19.4520 C.3       3 GLC5        0.0000 
     49 CA          7.4400   18.8240   19.9360 C.3       6 GLP5        0.0000 
     50 N           9.7060   19.6730   19.3380 N.am      2 SEC2        0.0000 
     51 N          10.2970   18.8060   18.2910 N.am      8 SEL2        0.0000 
     52 N           9.1150   20.5400   20.3850 N.am      5 SEP2        0.0000 
     53 CA         11.0065   20.7845   18.9010 C.3       3 GLC5        0.0000 
     54 CA         11.0420   19.4440   17.2410 C.3       9 GLL5        0.0000 
     55 CA         12.9835   15.8380   18.8045 C.3       3 GLC5        0.0000 
     56 CA         12.4700   17.8870   18.2130 C.3       9 GLL5        0.0000 
     57 CA         13.4970   13.7890   19.3960 C.3       6 GLP5        0.0000 
     58 CA         11.3245   23.3275   14.8390 C.3       3 GLC5        0.0000 
     59 CA         12.5490   21.7500   14.8810 C.3       9 GLL5        0.0000 
     60 CA         10.1000   24.9050   14.7970 C.3       6 GLP5        0.0000 
     61 CA         18.9755   25.1977   13.2778 C.3       3 GLC5        0.0000 
     62 CA         19.1880   27.3330   14.2100 C.3       9 GLL5        0.0000 
     63 CA         19.0440   23.6490   12.1130 C.3       6 GLP5        0.0000 
     64 CA         17.9865   27.8229   15.3699 C.3       3 GLC5        0.0000 
     65 CA         19.1980   27.2889   12.7124 C.3       3 GLC5        0.0000 
     66 CA         19.1510   27.7730   10.9050 C.3       6 GLP5        0.0000 
     67 CA         19.5457   24.4843   13.8230 C.3       3 GLC5        0.0000 
     68 CA         19.3840   25.2160   15.3450 C.3       9 GLL5        0.0000 
     69 CA         21.3053   26.4644   12.9951 C.3       3 GLC5        0.0000 
     70 CA         22.0470   25.8810   11.1620 C.3       6 GLP5        0.0000 
     71 CA         14.5190   19.4778   11.8315 C.3       3 GLC5        0.0000 
     72 CA         13.1190   19.9330   13.3910 C.3       9 GLL5        0.0000 
     73 CA         15.2430   18.8690   10.2090 C.3       6 GLP5        0.0000 
     74 CA         11.8179   20.9226   12.3825 C.3       3 GLC5        0.0000 
     75 CA         10.9020   21.2760   10.8320 C.3       6 GLP5        0.0000 
     76 CA         14.7425   23.5534   13.7375 C.3       3 GLC5        0.0000 
     77 CA         14.8600   21.3260   14.3140 C.3       9 GLL5        0.0000 
     78 CA         15.3867   19.2671   14.4290 C.3       3 GLC5        0.0000 
     79 CA         16.4460   17.8280   14.9740 C.3       6 GLP5        0.0000 
@<TRIPOS>BOND
@<TRIPOS>SUBSTRUCTURE
     1 ALC1        1 GROUP        1 X    ALC  0     ROOT ALC X 1
     2 SEC2       20 GROUP        1 X    SEC  0     **** SEC X 2
     3 GLC5        4 GROUP        1 X    GLC  0     **** GLC X 6
     4 ALP1        3 GROUP        1 Y    ALP  0     ROOT ALP Y 8
     5 SEP2       22 GROUP        1 Y    SEP  0     **** SEP Y 9
     6 GLP5        6 GROUP        1 Y    GLP  0     **** GLP Y 13
     7 ALL1        2 GROUP        1 Z    ALL  0     ROOT ALL Z 15
     8 SEL2       21 GROUP        1 Z    SEL  0     **** SEL Z 16
     9 GLL5        5 GROUP        1 Z    GLL  0     **** GLL Z 20
@<TRIPOS>SET

