#    Name: 2ien_017_1_ligand
#    Modification time : Tue Mar 25 17:48:00 2014

@<TRIPOS>MOLECULE
2ien_017_1_ligand
   75    78     1     0     0
SMALL
NO_CHARGES


@<TRIPOS>ATOM
      1 N1         21.0910   28.7350   14.0670 N.pl3     1 017402      0.0000 
      2 C2         20.5400   27.5660   14.5190 C.ar      1 017402      0.0000 
      3 C3         19.1880   27.3330   14.2100 C.ar      1 017402      0.0000 
      4 C4         18.6260   26.1600   14.6750 C.ar      1 017402      0.0000 
      5 C5         19.3840   25.2160   15.3450 C.ar      1 017402      0.0000 
      6 C6         20.7110   25.4230   15.7210 C.ar      1 017402      0.0000 
      7 C7         21.2630   26.6460   15.2920 C.ar      1 017402      0.0000 
      8 S8         18.4500   23.7990   15.9930 S.o2      1 017402      0.0000 
      9 O9         17.2570   23.4660   15.0690 O.2       1 017402      0.0000 
     10 O10        19.4810   22.6380   16.2400 O.2       1 017402      0.0000 
     11 N11        17.7940   24.1570   17.5840 N.pl3     1 017402      0.0000 
     12 C12        18.7830   24.4260   18.6320 C.3       1 017402      0.0000 
     13 C13        18.4000   23.8560   20.0060 C.3       1 017402      0.0000 
     14 C14        18.3680   22.3520   19.8930 C.3       1 017402      0.0000 
     15 C15        19.5030   24.3350   20.9200 C.3       1 017402      0.0000 
     16 C16        16.5050   24.8940   17.5640 C.3       1 017402      0.0000 
     17 C17        15.3940   23.9640   18.1580 C.3       1 017402      0.0000 
     18 O18        14.2320   24.7640   18.4090 O.3       1 017402      0.0000 
     19 C19        15.0130   22.8280   17.1770 C.3       1 017402      0.0000 
     20 N20        14.1320   21.9410   17.8870 N.am      1 017402      0.0000 
     21 C21        14.4880   20.6750   18.2230 C.2       1 017402      0.0000 
     22 O22        15.5870   20.0860   17.9550 O.2       1 017402      0.0000 
     23 O23        13.4210   20.0660   18.9520 O.3       1 017402      0.0000 
     24 C24        13.5050   18.6020   19.1020 C.3       1 017402      0.0000 
     25 C25        12.8390   18.3510   20.4850 C.3       1 017402      0.0000 
     26 O26        11.4120   18.4700   20.2840 O.3       1 017402      0.0000 
     27 C27        11.2200   17.9780   18.9680 C.3       1 017402      0.0000 
     28 O28        10.2970   18.8060   18.2910 O.3       1 017402      0.0000 
     29 C29        11.0420   19.4440   17.2410 C.3       1 017402      0.0000 
     30 C30        12.1310   18.4320   16.8180 C.3       1 017402      0.0000 
     31 C31        12.4700   17.8870   18.2130 C.3       1 017402      0.0000 
     32 C32        14.2940   23.2850   15.8960 C.3       1 017402      0.0000 
     33 C33        12.5490   21.7500   14.8810 C.ar      1 017402      0.0000 
     34 C34        12.1480   20.6610   14.0690 C.ar      1 017402      0.0000 
     35 C35        13.1190   19.9330   13.3910 C.ar      1 017402      0.0000 
     36 C36        14.4710   20.2400   13.5170 C.ar      1 017402      0.0000 
     37 C37        14.8600   21.3260   14.3140 C.ar      1 017402      0.0000 
     38 C38        13.9020   22.1140   14.9680 C.ar      1 017402      0.0000 
     39 H          22.0482   28.8929   14.3095 H         1 017402      0.0000 
     40 H          20.4880   29.3285   13.5339 H         1 017402      0.0000 
     41 H          18.6609   28.0019   13.6706 H         1 017402      0.0000 
     42 H          17.6133   25.9819   14.5190 H         1 017402      0.0000 
     43 H          21.2299   24.7669   16.2475 H         1 017402      0.0000 
     44 H          22.2423   26.8723   15.5596 H         1 017402      0.0000 
     45 H          18.9367   25.5167   18.7500 H         1 017402      0.0000 
     46 H          19.7683   24.0029   18.3538 H         1 017402      0.0000 
     47 H          17.4794   24.2509   20.2922 H         1 017402      0.0000 
     48 H          16.2184   25.1497   16.5549 H         1 017402      0.0000 
     49 H          16.5551   25.7826   18.1754 H         1 017402      0.0000 
     50 H          15.7721   23.5292   19.0580 H         1 017402      0.0000 
     51 H          15.9151   22.3023   16.9020 H         1 017402      0.0000 
     52 H          13.1906   22.3163   18.1383 H         1 017402      0.0000 
     53 H          14.3969   18.1900   19.0717 H         1 017402      0.0000 
     54 H          13.2157   19.0948   21.1690 H         1 017402      0.0000 
     55 H          13.1219   17.3622   20.8094 H         1 017402      0.0000 
     56 H          10.7901   16.9546   19.0296 H         1 017402      0.0000 
     57 H          11.5379   20.3395   17.5789 H         1 017402      0.0000 
     58 H          10.4323   19.6521   16.3768 H         1 017402      0.0000 
     59 H          12.9453   18.9391   16.4265 H         1 017402      0.0000 
     60 H          11.7071   17.6856   16.2377 H         1 017402      0.0000 
     61 H          12.7270   16.8401   18.1396 H         1 017402      0.0000 
     62 H          14.9481   23.9692   15.3437 H         1 017402      0.0000 
     63 H          13.3873   23.8353   16.1720 H         1 017402      0.0000 
     64 H          11.8413   22.2732   15.4073 H         1 017402      0.0000 
     65 H          11.1620   20.4248   13.9910 H         1 017402      0.0000 
     66 H          12.8317   19.1463   12.7797 H         1 017402      0.0000 
     67 H          15.1778   19.6811   13.0343 H         1 017402      0.0000 
     68 H          15.8598   21.5474   14.4203 H         1 017402      0.0000 
     69 H          19.2570   21.9807   19.6250 H         1 017402      0.0000 
     70 H          18.1190   21.9197   20.7596 H         1 017402      0.0000 
     71 H          17.7044   22.0448   19.2109 H         1 017402      0.0000 
     72 H          20.3993   24.0029   20.6262 H         1 017402      0.0000 
     73 H          19.5550   25.3333   20.9478 H         1 017402      0.0000 
     74 H          19.3683   24.0222   21.8602 H         1 017402      0.0000 
     75 H          14.1796   24.8386   19.4048 H         1 017402      0.0000 
@<TRIPOS>BOND
     1    2    1 1    
     2   39    1 1    
     3   40    1 1    
     4    3    2 ar   
     5    7    2 ar   
     6    4    3 ar   
     7   41    3 1    
     8    5    4 ar   
     9   42    4 1    
    10    6    5 ar   
    11    8    5 1    
    12    7    6 ar   
    13   43    6 1    
    14   44    7 1    
    15    9    8 2    
    16   10    8 2    
    17   11    8 1    
    18   12   11 1    
    19   16   11 1    
    20   13   12 1    
    21   45   12 1    
    22   46   12 1    
    23   14   13 1    
    24   15   13 1    
    25   47   13 1    
    26   69   14 1    
    27   70   14 1    
    28   71   14 1    
    29   72   15 1    
    30   73   15 1    
    31   74   15 1    
    32   17   16 1    
    33   48   16 1    
    34   49   16 1    
    35   18   17 1    
    36   19   17 1    
    37   50   17 1    
    38   75   18 1    
    39   20   19 1    
    40   32   19 1    
    41   51   19 1    
    42   21   20 am   
    43   52   20 1    
    44   22   21 2    
    45   23   21 1    
    46   24   23 1    
    47   25   24 1    
    48   31   24 1    
    49   53   24 1    
    50   26   25 1    
    51   54   25 1    
    52   55   25 1    
    53   27   26 1    
    54   28   27 1    
    55   31   27 1    
    56   56   27 1    
    57   29   28 1    
    58   30   29 1    
    59   57   29 1    
    60   58   29 1    
    61   31   30 1    
    62   59   30 1    
    63   60   30 1    
    64   61   31 1    
    65   38   32 1    
    66   62   32 1    
    67   63   32 1    
    68   34   33 ar   
    69   38   33 ar   
    70   64   33 1    
    71   35   34 ar   
    72   65   34 1    
    73   36   35 ar   
    74   66   35 1    
    75   37   36 ar   
    76   67   36 1    
    77   38   37 ar   
    78   68   37 1    
@<TRIPOS>SUBSTRUCTURE
     1 017402      1 GROUP   
@<TRIPOS>SET

