#    Name: 4fks_46K_1_INTS_M
#    Modification time : Mon Mar 24 20:14:12 2014

@<TRIPOS>MOLECULE
4fks_46K_1_INTS_M
   63     0     9     0     0
SMALL
NO_CHARGES


@<TRIPOS>ATOM
      1 CA          2.7980  -12.0755  -30.6780 C.3       3 GLC5        0.0000 
      2 CA          4.8960  -12.5290  -30.4370 C.3       9 GLL5        0.0000 
      3 CA          0.7000  -11.6220  -30.9190 C.3       6 GLP5        0.0000 
      4 O           3.8485   -5.8030  -29.5590 O.2       1 ALC1        0.0000 
      5 O           2.7140   -6.7870  -28.8050 O.2       7 ALL1        0.0000 
      6 O           4.9830   -4.8190  -30.3130 O.2       4 ALP1        0.0000 
      7 CA         -2.4095   -8.2360  -26.5065 C.3       3 GLC5        0.0000 
      8 CA         -0.6680   -7.7500  -25.5030 C.3       9 GLL5        0.0000 
      9 CA         -4.1510   -8.7220  -27.5100 C.3       6 GLP5        0.0000 
     10 O          -0.0425   -2.3290  -29.0940 O.2       1 ALC1        0.0000 
     11 O          -0.0380   -3.5820  -28.3810 O.2       7 ALL1        0.0000 
     12 O          -0.0470   -1.0760  -29.8070 O.2       4 ALP1        0.0000 
     13 N           7.7110   -9.1225  -26.7590 N.am      2 SEC2        0.0000 
     14 N           7.7460  -10.4270  -27.5770 N.am      8 SEL2        0.0000 
     15 N           7.6760   -7.8180  -25.9410 N.am      5 SEP2        0.0000 
     16 N          -4.1920   -6.5885  -24.3400 N.am      2 SEC2        0.0000 
     17 N          -2.7810   -6.4720  -24.5860 N.am      8 SEL2        0.0000 
     18 N          -5.6030   -6.7050  -24.0940 N.am      5 SEP2        0.0000 
     19 N           2.8180   -3.3630  -30.0360 N.am      2 SEC2        0.0000 
     20 N           1.8340   -4.2940  -29.5920 N.am      8 SEL2        0.0000 
     21 N           3.8020   -2.4320  -30.4800 N.am      5 SEP2        0.0000 
     22 CA          2.8535   -9.0545  -30.5460 C.3       3 GLC5        0.0000 
     23 CA          4.5780   -7.9440  -29.8980 C.3       9 GLL5        0.0000 
     24 CA          1.1290  -10.1650  -31.1940 C.3       6 GLP5        0.0000 
     25 CA          2.0265   -7.7785  -30.0585 C.3       3 GLC5        0.0000 
     26 CA          3.6810   -7.8110  -28.8290 C.3       9 GLL5        0.0000 
     27 CA          0.3720   -7.7460  -31.2880 C.3       6 GLP5        0.0000 
     28 CA          2.6535   -6.0945  -26.4705 C.3       3 GLC5        0.0000 
     29 CA          1.6660   -6.6810  -27.9320 C.3       9 GLL5        0.0000 
     30 CA          3.6410   -5.5080  -25.0090 C.3       6 GLP5        0.0000 
     31 CA         -3.1610   -7.1720  -26.5235 C.3       3 GLC5        0.0000 
     32 CA         -2.1710   -5.6220  -25.5370 C.3       9 GLL5        0.0000 
     33 CA          6.6115   -8.3400  -27.9090 C.3       3 GLC5        0.0000 
     34 CA          4.7900   -9.6430  -27.7080 C.3       9 GLL5        0.0000 
     35 CA          8.4330   -7.0370  -28.1100 C.3       6 GLP5        0.0000 
     36 CA          6.2912   -6.8138  -30.6015 C.3       3 GLC5        0.0000 
     37 CA          5.5570   -8.9290  -29.8800 C.3       9 GLL5        0.0000 
     38 CA          7.5150   -5.1910  -31.3140 C.3       6 GLP5        0.0000 
     39 CA          6.7654   -7.8450  -28.8592 C.3       3 GLC5        0.0000 
     40 CA          3.6947   -6.8727  -26.6375 C.3       3 GLC5        0.0000 
     41 CA          0.8100   -6.9588  -29.6085 C.3       3 GLC5        0.0000 
     42 CA         -0.7645   -4.9245  -29.2270 C.3       3 GLC5        0.0000 
     43 CA          0.8300   -5.6620  -27.9260 C.3       9 GLL5        0.0000 
     44 CA         -1.7710   -4.2830  -30.9460 C.3       6 GLP5        0.0000 
     45 CA         -1.5790   -4.0835  -29.0098 C.3       3 GLC5        0.0000 
     46 CA         -0.8510   -4.1690  -27.3870 C.3       9 GLL5        0.0000 
     47 CA         -0.7690   -1.9985  -26.7177 C.3       3 GLC5        0.0000 
     48 CA         -0.1510   -0.1130  -26.3620 C.3       6 GLP5        0.0000 
     49 CA         -2.4410   -2.5285  -27.9893 C.3       3 GLC5        0.0000 
     50 CA         -1.9230   -3.5990  -26.7600 C.3       9 GLL5        0.0000 
     51 CA         -3.4950   -1.1730  -28.9050 C.3       6 GLP5        0.0000 
     52 CA          0.5275   -3.7095  -26.4803 C.3       3 GLC5        0.0000 
     53 CA          2.4420   -3.5350  -25.8870 C.3       6 GLP5        0.0000 
     54 CA         -1.3453   -3.6850  -24.5613 C.3       3 GLC5        0.0000 
     55 CA         -0.4110   -3.3900  -22.8390 C.3       6 GLP5        0.0000 
     56 CA         -1.0048   -4.6470  -24.3385 C.3       3 GLC5        0.0000 
     57 CA         -1.8435   -6.7410  -28.0243 C.3       3 GLC5        0.0000 
     58 CA         -1.0260   -6.1860  -26.1390 C.3       9 GLL5        0.0000 
     59 CA         -3.0010   -7.6540  -29.4340 C.3       6 GLP5        0.0000 
     60 CA          1.0250   -4.7055  -26.3552 C.3       3 GLC5        0.0000 
     61 CA          5.1400   -8.7858  -25.9408 C.3       3 GLC5        0.0000 
     62 CA          3.8160   -8.6640  -27.7030 C.3       9 GLL5        0.0000 
     63 CA          5.9770   -8.4180  -24.1760 C.3       6 GLP5        0.0000 
@<TRIPOS>BOND
@<TRIPOS>SUBSTRUCTURE
     1 ALC1        4 GROUP        1 X    ALC  0     ROOT ALC X 1
     2 SEC2       13 GROUP        1 X    SEC  0     **** SEC X 2
     3 GLC5        1 GROUP        1 X    GLC  0     **** GLC X 6
     4 ALP1        6 GROUP        1 Y    ALP  0     ROOT ALP Y 8
     5 SEP2       15 GROUP        1 Y    SEP  0     **** SEP Y 9
     6 GLP5        3 GROUP        1 Y    GLP  0     **** GLP Y 13
     7 ALL1        5 GROUP        1 Z    ALL  0     ROOT ALL Z 15
     8 SEL2       14 GROUP        1 Z    SEL  0     **** SEL Z 16
     9 GLL5        2 GROUP        1 Z    GLL  0     **** GLL Z 20
@<TRIPOS>SET

