#    Name: 4fks_46K_1_ligand
#    Modification time : Mon Mar 24 20:14:12 2014

@<TRIPOS>MOLECULE
4fks_46K_1_ligand
   42    45     1     0     0
SMALL
NO_CHARGES


@<TRIPOS>ATOM
      1 C1          4.8960  -12.5290  -30.4370 C.3       1 46K301      0.0000 
      2 N1          6.1690  -12.3040  -28.2470 N.am      1 46K301      0.0000 
      3 O1          4.7340  -14.0630  -28.5830 O.2       1 46K301      0.0000 
      4 S1          6.9450  -10.8830  -28.6660 S.o2      1 46K301      0.0000 
      5 C2          5.2250  -13.0370  -29.0550 C.2       1 46K301      0.0000 
      6 N2          2.7140   -6.7870  -28.8050 N.pl3     1 46K301      0.0000 
      7 O2          7.5600  -10.9490  -29.9580 O.2       1 46K301      0.0000 
      8 S2         -0.6680   -7.7500  -25.5030 S.3       1 46K301      0.0000 
      9 C3          5.6780   -9.7950  -28.7580 C.ar      1 46K301      0.0000 
     10 N3         -0.0380   -3.5820  -28.3810 N.am      1 46K301      0.0000 
     11 O3          7.7460  -10.4270  -27.5770 O.2       1 46K301      0.0000 
     12 C4          5.5570   -8.9290  -29.8800 C.ar      1 46K301      0.0000 
     13 N4         -2.7810   -6.4720  -24.5860 N.2       1 46K301      0.0000 
     14 O4          1.8340   -4.2940  -29.5920 O.2       1 46K301      0.0000 
     15 C5          4.5780   -7.9440  -29.8980 C.ar      1 46K301      0.0000 
     16 C6          3.6810   -7.8110  -28.8290 C.ar      1 46K301      0.0000 
     17 C7          1.6660   -6.6810  -27.9320 C.2       1 46K301      0.0000 
     18 C8          0.8300   -5.6620  -27.9260 C.2       1 46K301      0.0000 
     19 C9          0.9640   -4.4550  -28.7410 C.2       1 46K301      0.0000 
     20 C10        -0.8510   -4.1690  -27.3870 C.ar      1 46K301      0.0000 
     21 C11        -1.9230   -3.5990  -26.7600 C.ar      1 46K301      0.0000 
     22 C12        -2.6360   -4.3610  -25.8070 C.ar      1 46K301      0.0000 
     23 C13        -2.1710   -5.6220  -25.5370 C.ar      1 46K301      0.0000 
     24 C14        -2.0880   -7.5600  -24.4930 C.2       1 46K301      0.0000 
     25 C15        -1.0260   -6.1860  -26.1390 C.ar      1 46K301      0.0000 
     26 C16        -0.3460   -5.4700  -27.0900 C.ar      1 46K301      0.0000 
     27 C17         3.8160   -8.6640  -27.7030 C.ar      1 46K301      0.0000 
     28 C18         4.7900   -9.6430  -27.7080 C.ar      1 46K301      0.0000 
     29 H           6.4480  -12.6170  -27.3073 H         1 46K301      0.0000 
     30 H           2.8236   -6.0218  -29.5513 H         1 46K301      0.0000 
     31 H          -0.1789   -2.7050  -28.7391 H         1 46K301      0.0000 
     32 H           6.2002   -9.0441  -30.6687 H         1 46K301      0.0000 
     33 H           4.5057   -7.3026  -30.7015 H         1 46K301      0.0000 
     34 H           1.5367   -7.4731  -27.2294 H         1 46K301      0.0000 
     35 H          -2.2198   -2.6443  -26.9607 H         1 46K301      0.0000 
     36 H          -3.4510   -3.9748  -25.3552 H         1 46K301      0.0000 
     37 H          -2.1851   -8.3793  -23.9339 H         1 46K301      0.0000 
     38 H           3.1908   -8.5413  -26.9055 H         1 46K301      0.0000 
     39 H           4.8596  -10.2925  -26.8902 H         1 46K301      0.0000 
     40 H           5.7066  -12.4905  -31.0213 H         1 46K301      0.0000 
     41 H           4.2293  -13.1141  -30.8988 H         1 46K301      0.0000 
     42 H           4.5091  -11.6072  -30.4115 H         1 46K301      0.0000 
@<TRIPOS>BOND
     1    5    1 1    
     2   40    1 1    
     3   41    1 1    
     4   42    1 1    
     5    4    2 1    
     6    5    2 am   
     7   29    2 1    
     8    5    3 2    
     9    7    4 2    
    10    9    4 1    
    11   11    4 2    
    12   16    6 1    
    13   17    6 1    
    14   30    6 1    
    15   24    8 1    
    16   25    8 1    
    17   12    9 ar   
    18   28    9 ar   
    19   19   10 am   
    20   20   10 1    
    21   31   10 1    
    22   15   12 ar   
    23   32   12 1    
    24   23   13 1    
    25   24   13 2    
    26   19   14 2    
    27   16   15 ar   
    28   33   15 1    
    29   27   16 ar   
    30   18   17 2    
    31   34   17 1    
    32   19   18 1    
    33   26   18 1    
    34   21   20 ar   
    35   26   20 ar   
    36   22   21 ar   
    37   35   21 1    
    38   23   22 ar   
    39   36   22 1    
    40   25   23 ar   
    41   37   24 1    
    42   26   25 ar   
    43   28   27 ar   
    44   38   27 1    
    45   39   28 1    
@<TRIPOS>SUBSTRUCTURE
     1 46K301      1 GROUP   
@<TRIPOS>SET

