#    Name: 3lbk_K23_1_INTS_M
#    Modification time : Mon Mar 24 21:21:05 2014

@<TRIPOS>MOLECULE
3lbk_K23_1_INTS_M
   64     0     9     0     0
SMALL
NO_CHARGES


@<TRIPOS>ATOM
      1 CA         20.5115   12.7600    5.7570 C.3       3 GLC5        0.0000 
      2 CA         19.8380   13.7230    4.2620 C.3       9 GLL5        0.0000 
      3 CA         21.1850   11.7970    7.2520 C.3       6 GLP5        0.0000 
      4 CA         20.1650   14.4545    6.1905 C.3       3 GLC5        0.0000 
      5 CA         20.4920   15.1860    8.1190 C.3       6 GLP5        0.0000 
      6 CA         21.8085   13.8825    3.9445 C.3       3 GLC5        0.0000 
      7 CA         23.7790   14.0420    3.6270 C.3       6 GLP5        0.0000 
      8 CA         21.3105   12.4935    3.1290 C.3       3 GLC5        0.0000 
      9 CA         22.7830   11.2640    1.9960 C.3       6 GLP5        0.0000 
     10 CA         21.6505   16.7545    4.4265 C.3       3 GLC5        0.0000 
     11 CA         19.6630   16.3950    3.7780 C.3       9 GLL5        0.0000 
     12 CA         23.6380   17.1140    5.0750 C.3       6 GLP5        0.0000 
     13 CA         19.3505   18.9675    4.3725 C.3       3 GLC5        0.0000 
     14 CA         19.2800   17.4870    3.0140 C.3       9 GLL5        0.0000 
     15 CA         19.4210   20.4480    5.7310 C.3       6 GLP5        0.0000 
     16 O          17.4555   14.7275   -0.0760 O.2       1 ALC1        0.0000 
     17 O          17.7030   16.0300    0.2640 O.2       7 ALL1        0.0000 
     18 O          17.2080   13.4250   -0.4160 O.2       4 ALP1        0.0000 
     19 CA         16.1835   16.2270    1.0695 C.3       3 GLC5        0.0000 
     20 CA         17.5480   17.2960   -0.1130 C.3       9 GLL5        0.0000 
     21 CA         14.8190   15.1580    2.2520 C.3       6 GLP5        0.0000 
     22 N          14.9340   16.2785   -1.6370 N.am      2 SEC2        0.0000 
     23 N          16.1340   16.6590   -1.9010 N.am      8 SEL2        0.0000 
     24 N          13.7340   15.8980   -1.3730 N.am      5 SEP2        0.0000 
     25 CA         19.0435   20.6610    3.3055 C.3       3 GLC5        0.0000 
     26 CA         17.5110   20.4480    1.7510 C.3       9 GLL5        0.0000 
     27 CA         20.5760   20.8740    4.8600 C.3       6 GLP5        0.0000 
     28 CA         25.9375   17.4155    1.8090 C.3       3 GLC5        0.0000 
     29 CA         24.4730   16.6010    1.2070 C.3       9 GLL5        0.0000 
     30 CA         27.4020   18.2300    2.4110 C.3       6 GLP5        0.0000 
     31 CA         24.1260   15.3215    2.4170 C.3       3 GLC5        0.0000 
     32 CA         25.4790   15.2655    0.5590 C.3       3 GLC5        0.0000 
     33 CA         26.4850   13.9300   -0.0890 C.3       6 GLP5        0.0000 
     34 CA         21.1380   20.1395    2.8465 C.3       3 GLC5        0.0000 
     35 CA         21.7000   19.4050    0.8330 C.3       9 GLL5        0.0000 
     36 CA         18.0907   16.1460    4.6250 C.3       3 GLC5        0.0000 
     37 CA         16.7100   15.3510    5.8540 C.3       6 GLP5        0.0000 
     38 CA         20.2163   14.6602    0.9636 C.3       3 GLC5        0.0000 
     39 CA         18.3430   15.9980    1.4010 C.3       9 GLL5        0.0000 
     40 CA         21.7300   13.8110   -0.1550 C.3       6 GLP5        0.0000 
     41 CA         18.2436   13.0774    2.7116 C.3       3 GLC5        0.0000 
     42 CA         18.7350   14.9180    2.1640 C.3       9 GLL5        0.0000 
     43 CA         17.3130   11.4840    2.4350 C.3       6 GLP5        0.0000 
     44 CA         16.7116   15.4698    2.0690 C.3       3 GLC5        0.0000 
     45 CA         17.9421   15.0109    4.4211 C.3       3 GLC5        0.0000 
     46 CA         17.7503   20.5566    4.9096 C.3       3 GLC5        0.0000 
     47 CA         16.5290   20.2190    2.7060 C.3       9 GLL5        0.0000 
     48 CA         14.3978   18.1468    5.5965 C.3       3 GLC5        0.0000 
     49 CA         14.5390   19.9150    4.6420 C.3       9 GLL5        0.0000 
     50 CA         14.2900   16.7190    7.1550 C.3       6 GLP5        0.0000 
     51 CA         12.6948   19.6378    4.3055 C.3       3 GLC5        0.0000 
     52 CA         10.8840   19.7010    4.5730 C.3       6 GLP5        0.0000 
     53 CA         14.8927   17.2353    2.6027 C.3       3 GLC5        0.0000 
     54 CA         14.4720   19.2340    3.4340 C.3       9 GLL5        0.0000 
     55 CA         21.8325   15.6275   -0.4235 C.3       3 GLC5        0.0000 
     56 CA         21.4040   17.8070   -0.9410 C.3       9 GLL5        0.0000 
     57 CA         24.1450   18.6597    0.2413 C.3       3 GLC5        0.0000 
     58 CA         22.4660   17.0810   -0.4430 C.3       9 GLL5        0.0000 
     59 CA         25.4900   20.0230    0.3700 C.3       6 GLP5        0.0000 
     60 CA         22.7668   15.4337    0.3912 C.3       3 GLC5        0.0000 
     61 CA         23.1340   17.5120    0.6680 C.3       9 GLL5        0.0000 
     62 CA         23.2960   17.6055    3.0362 C.3       3 GLC5        0.0000 
     63 CA         23.8635   19.5332    0.7250 C.3       3 GLC5        0.0000 
     64 CA         22.7740   18.6820    1.3270 C.3       9 GLL5        0.0000 
@<TRIPOS>BOND
@<TRIPOS>SUBSTRUCTURE
     1 ALC1       16 GROUP        1 X    ALC  0     ROOT ALC X 1
     2 SEC2       22 GROUP        1 X    SEC  0     **** SEC X 2
     3 GLC5        1 GROUP        1 X    GLC  0     **** GLC X 6
     4 ALP1       18 GROUP        1 Y    ALP  0     ROOT ALP Y 8
     5 SEP2       24 GROUP        1 Y    SEP  0     **** SEP Y 9
     6 GLP5        3 GROUP        1 Y    GLP  0     **** GLP Y 13
     7 ALL1       17 GROUP        1 Z    ALL  0     ROOT ALL Z 15
     8 SEL2       23 GROUP        1 Z    SEL  0     **** SEL Z 16
     9 GLL5        2 GROUP        1 Z    GLL  0     **** GLL Z 20
@<TRIPOS>SET

