#    Name: 3lbk_K23_1_ligand
#    Modification time : Mon Mar 24 21:21:05 2014

@<TRIPOS>MOLECULE
3lbk_K23_1_ligand
   48    52     1     0     0
SMALL
NO_CHARGES


@<TRIPOS>ATOM
      1 C1         19.3890   15.1240    3.3630 C.ar      1 K231        0.0000 
      2 CL2        19.8380   13.7230    4.2620 Cl        1 K231        0.0000 
      3 C3         19.6630   16.3950    3.7780 C.ar      1 K231        0.0000 
      4 C4         19.2800   17.4870    3.0140 C.ar      1 K231        0.0000 
      5 C5         18.6040   17.2920    1.8150 C.ar      1 K231        0.0000 
      6 C6         18.3430   15.9980    1.4010 C.ar      1 K231        0.0000 
      7 C7         18.7350   14.9180    2.1640 C.ar      1 K231        0.0000 
      8 N8         17.7030   16.0300    0.2640 N.pl3     1 K231        0.0000 
      9 C9         17.5480   17.2960   -0.1130 C.2       1 K231        0.0000 
     10 C10        16.8080   17.5960   -1.4360 C.2       1 K231        0.0000 
     11 O11        16.1340   16.6590   -1.9010 O.co2     1 K231        0.0000 
     12 O12        16.8590   18.7050   -1.9680 O.co2     1 K231        0.0000 
     13 C13        18.0530   18.1340    0.8610 C.2       1 K231        0.0000 
     14 C14        18.1610   19.5260    0.9100 C.2       1 K231        0.0000 
     15 C15        17.5110   20.4480    1.7510 C.2       1 K231        0.0000 
     16 C16        16.5290   20.2190    2.7060 C.ar      1 K231        0.0000 
     17 C17        16.5750   20.9180    3.8990 C.ar      1 K231        0.0000 
     18 C18        15.6070   20.7620    4.8740 C.ar      1 K231        0.0000 
     19 C19        14.5390   19.9150    4.6420 C.ar      1 K231        0.0000 
     20 C20        14.4720   19.2340    3.4340 C.ar      1 K231        0.0000 
     21 C21        15.4610   19.3910    2.4730 C.ar      1 K231        0.0000 
     22 N22        17.9720   21.6750    1.4750 N.2       1 K231        0.0000 
     23 C23        18.8840   21.5630    0.5100 C.2       1 K231        0.0000 
     24 N24        19.0050   20.2670    0.1910 N.pl3     1 K231        0.0000 
     25 C25        19.8810   19.7410   -0.8460 C.3       1 K231        0.0000 
     26 C26        21.0330   18.9670   -0.2960 C.ar      1 K231        0.0000 
     27 C27        21.4040   17.8070   -0.9410 C.ar      1 K231        0.0000 
     28 C28        22.4660   17.0810   -0.4430 C.ar      1 K231        0.0000 
     29 C29        23.1340   17.5120    0.6680 C.ar      1 K231        0.0000 
     30 CL30       24.4730   16.6010    1.2070 Cl        1 K231        0.0000 
     31 C31        22.7740   18.6820    1.3270 C.ar      1 K231        0.0000 
     32 C32        21.7000   19.4050    0.8330 C.ar      1 K231        0.0000 
     33 H          20.1629   16.5561    4.6734 H         1 K231        0.0000 
     34 H          19.4951   18.4410    3.3327 H         1 K231        0.0000 
     35 H          18.5407   13.9586    1.8408 H         1 K231        0.0000 
     36 H          17.3814   15.2524   -0.2432 H         1 K231        0.0000 
     37 H          17.3627   21.5817    4.0676 H         1 K231        0.0000 
     38 H          15.6807   21.2709    5.7630 H         1 K231        0.0000 
     39 H          13.8090   19.7904    5.3471 H         1 K231        0.0000 
     40 H          13.6744   18.6013    3.2479 H         1 K231        0.0000 
     41 H          15.3853   18.8772    1.5782 H         1 K231        0.0000 
     42 H          19.3788   22.2928    0.1043 H         1 K231        0.0000 
     43 H          20.2749   20.5693   -1.4704 H         1 K231        0.0000 
     44 H          19.3084   19.0855   -1.5342 H         1 K231        0.0000 
     45 H          20.9012   17.4895   -1.7742 H         1 K231        0.0000 
     46 H          22.7536   16.2062   -0.9177 H         1 K231        0.0000 
     47 H          23.2849   18.9961    2.1469 H         1 K231        0.0000 
     48 H          21.3997   20.2686    1.3080 H         1 K231        0.0000 
@<TRIPOS>BOND
     1    2    1 1    
     2    3    1 ar   
     3    7    1 ar   
     4    4    3 ar   
     5   33    3 1    
     6    5    4 ar   
     7   34    4 1    
     8    6    5 ar   
     9   13    5 1    
    10    7    6 ar   
    11    8    6 1    
    12   35    7 1    
    13    9    8 1    
    14   36    8 1    
    15   10    9 1    
    16   13    9 2    
    17   11   10 ar   
    18   12   10 ar   
    19   14   13 1    
    20   15   14 2    
    21   24   14 1    
    22   16   15 1    
    23   22   15 1    
    24   17   16 ar   
    25   21   16 ar   
    26   18   17 ar   
    27   37   17 1    
    28   19   18 ar   
    29   38   18 1    
    30   20   19 ar   
    31   39   19 1    
    32   21   20 ar   
    33   40   20 1    
    34   41   21 1    
    35   23   22 2    
    36   24   23 1    
    37   42   23 1    
    38   25   24 1    
    39   26   25 1    
    40   43   25 1    
    41   44   25 1    
    42   27   26 ar   
    43   32   26 ar   
    44   28   27 ar   
    45   45   27 1    
    46   29   28 ar   
    47   46   28 1    
    48   30   29 1    
    49   31   29 ar   
    50   32   31 ar   
    51   47   31 1    
    52   48   32 1    
@<TRIPOS>SUBSTRUCTURE
     1 K231        1 GROUP   
@<TRIPOS>SET

