#    Name: 2ZT7_1_CAVITY_N1_6.mol2
#    Modification time : Tue Mar 11 06:21:49 2014

@<TRIPOS>MOLECULE
2ZT7_1_CAVITY_N1_6.mol2
  156     0     7     0     0
SMALL
NO_CHARGES


@<TRIPOS>ATOM
      1 N          27.0746  -13.7703   79.6902 N.2       2 ALA2        0.0000 
      2 NZ         27.4939  -14.6725   78.5676 N.2       4 LYS4        0.0000 
      3 NZ         28.1194  -14.3800   76.5618 N.2       4 LYS4        0.0000 
      4 N          28.3258  -13.1852   75.6787 N.2       2 ALA2        0.0000 
      5 O          28.5321  -11.9904   74.7955 O.2       2 ALA2        0.0000 
      6 NZ         28.5386  -15.2822   75.4392 N.2       4 LYS4        0.0000 
      7 O          28.7450  -14.0874   74.5561 O.2       2 ALA2        0.0000 
      8 O          28.9513  -12.8927   73.6729 O.2       2 ALA2        0.0000 
      9 CA         28.9579  -16.1844   74.3166 C.3       6 GLY6        0.0000 
     10 O          29.1642  -14.9896   73.4335 O.2       2 ALA2        0.0000 
     11 O          29.3705  -13.7949   72.5503 O.2       2 ALA2        0.0000 
     12 O          29.7898  -14.6971   71.4277 O.2       2 ALA2        0.0000 
     13 CZ         29.9961  -13.5023   70.5445 C.ar      5 PHE5        0.0000 
     14 O          30.4153  -14.4046   69.4219 O.2       2 ALA2        0.0000 
     15 NZ         26.6940  -14.4724   76.1038 N.2       4 LYS4        0.0000 
     16 OG         26.9004  -13.2776   75.2206 O.2       1 SER1        0.0000 
     17 CA         27.1067  -12.0828   74.3375 C.3       6 GLY6        0.0000 
     18 NZ         27.1133  -15.3746   74.9812 N.2       4 LYS4        0.0000 
     19 DU         27.3196  -14.1798   74.0980 H         7 CUB7        0.0000 
     20 CZ         27.5259  -12.9851   73.2149 C.ar      5 PHE5        0.0000 
     21 CA         27.5325  -16.2768   73.8586 C.3       6 GLY6        0.0000 
     22 OD1        27.7388  -15.0820   72.9754 O.3       3 ASP3        0.0000 
     23 CZ         27.9452  -13.8873   72.0923 C.ar      5 PHE5        0.0000 
     24 O          28.3644  -14.7895   70.9697 O.2       2 ALA2        0.0000 
     25 CZ         28.5707  -13.5947   70.0865 C.ar      5 PHE5        0.0000 
     26 O          28.9899  -14.4970   68.9639 O.2       2 ALA2        0.0000 
     27 CA         29.1963  -13.3022   68.0807 C.3       6 GLY6        0.0000 
     28 N          25.4750  -13.3700   74.7626 N.2       2 ALA2        0.0000 
     29 CA         25.6879  -15.4670   74.5232 C.3       6 GLY6        0.0000 
     30 CA         25.8942  -14.2722   73.6400 C.3       6 GLY6        0.0000 
     31 CA         26.1006  -13.0774   72.7569 C.3       6 GLY6        0.0000 
     32 CA         26.3135  -15.1744   72.5174 C.3       6 GLY6        0.0000 
     33 CA         26.5198  -13.9797   71.6343 C.3       6 GLY6        0.0000 
     34 CZ         26.7261  -12.7849   70.7511 C.ar      5 PHE5        0.0000 
     35 O          27.1454  -13.6871   69.6285 O.2       2 ALA2        0.0000 
     36 CZ         27.3517  -12.4924   68.7453 C.ar      5 PHE5        0.0000 
     37 O          27.5646  -14.5894   68.5059 O.2       2 ALA2        0.0000 
     38 CA         27.7709  -13.3946   67.6227 C.3       6 GLY6        0.0000 
     39 O          24.4689  -14.3646   73.1820 O.2       2 ALA2        0.0000 
     40 CA         25.0944  -14.0721   71.1762 C.3       6 GLY6        0.0000 
     41 CA         25.7200  -13.7795   69.1705 C.3       6 GLY6        0.0000 
     42 CZ         25.9263  -12.5848   68.2873 C.ar      5 PHE5        0.0000 
     43 N          26.3455  -13.4870   67.1647 N.2       2 ALA2        0.0000 
     44 CA         26.5519  -12.2922   66.2815 C.3       6 GLY6        0.0000 
     45 CA         29.5127  -15.9750   82.3726 C.3       6 GLY6        0.0000 
     46 OG         29.7190  -14.7802   81.4894 O.2       1 SER1        0.0000 
     47 DU         30.1383  -15.6825   80.3668 H         7 CUB7        0.0000 
     48 OG         30.3446  -14.4877   79.4836 O.2       1 SER1        0.0000 
     49 OG         30.5509  -13.2929   78.6005 O.2       1 SER1        0.0000 
     50 NZ         30.5575  -16.5847   79.2442 N.2       4 LYS4        0.0000 
     51 NZ         30.7638  -15.3899   78.3610 N.2       4 LYS4        0.0000 
     52 O          30.9702  -14.1952   77.4779 O.2       2 ALA2        0.0000 
     53 NZ         30.7704  -18.6817   79.0047 N.2       4 LYS4        0.0000 
     54 NZ         30.9767  -17.4869   78.1216 N.2       4 LYS4        0.0000 
     55 NZ         31.1830  -16.2922   77.2384 N.2       4 LYS4        0.0000 
     56 O          31.3894  -15.0974   76.3553 O.2       2 ALA2        0.0000 
     57 O          30.9832  -20.7787   78.7653 O.2       2 ALA2        0.0000 
     58 NZ         31.1896  -19.5839   77.8821 N.2       4 LYS4        0.0000 
     59 NZ         31.6023  -17.1944   76.1158 N.2       4 LYS4        0.0000 
     60 O          31.8086  -15.9996   75.2326 O.2       2 ALA2        0.0000 
     61 O          32.2278  -16.9018   74.1100 O.2       2 ALA2        0.0000 
     62 O          32.4342  -15.7071   73.2269 O.2       2 ALA2        0.0000 
     63 O          32.6405  -14.5123   72.3437 O.2       2 ALA2        0.0000 
     64 CA         27.8745  -13.9704   82.1540 C.3       6 GLY6        0.0000 
     65 OG         28.0808  -12.7757   81.2708 O.2       1 SER1        0.0000 
     66 CA         28.2937  -14.8726   81.0314 C.3       6 GLY6        0.0000 
     67 N          28.5000  -13.6779   80.1482 N.2       2 ALA2        0.0000 
     68 NZ         28.7129  -15.7749   79.9088 N.2       4 LYS4        0.0000 
     69 NZ         28.9192  -14.5801   79.0256 N.2       4 LYS4        0.0000 
     70 N          29.1256  -13.3853   78.1425 N.2       2 ALA2        0.0000 
     71 NZ         29.3384  -15.4823   77.9030 N.2       4 LYS4        0.0000 
     72 NZ         29.5448  -14.2876   77.0198 N.2       4 LYS4        0.0000 
     73 O          29.7511  -13.0928   76.1367 O.2       2 ALA2        0.0000 
     74 O          29.9640  -15.1898   75.8972 O.2       2 ALA2        0.0000 
     75 O          30.3832  -16.0920   74.7746 O.2       2 ALA2        0.0000 
     76 O          30.5896  -14.8973   73.8915 O.2       2 ALA2        0.0000 
     77 O          30.8024  -16.9942   73.6520 O.2       2 ALA2        0.0000 
     78 O          31.0088  -15.7995   72.7689 O.2       2 ALA2        0.0000 
     79 O          31.2151  -14.6047   71.8857 O.2       2 ALA2        0.0000 
     80 O          31.4215  -13.4100   71.0025 O.2       2 ALA2        0.0000 
     81 O          31.6343  -15.5069   70.7631 O.2       2 ALA2        0.0000 
     82 NZ         31.8407  -14.3122   69.8799 N.2       4 LYS4        0.0000 
     83 CZ         34.4078  -12.1135   81.0971 C.ar      5 PHE5        0.0000 
     84 CA         34.6207  -14.2105   80.8577 C.3       6 GLY6        0.0000 
     85 CZ         34.8271  -13.0158   79.9745 C.ar      5 PHE5        0.0000 
     86 N          34.6272  -17.5023   81.5014 N.2       2 ALA2        0.0000 
     87 CA         34.8336  -16.3075   80.6182 C.3       6 GLY6        0.0000 
     88 DU         35.0399  -15.1127   79.7351 H         7 CUB7        0.0000 
     89 CZ         35.2463  -13.9180   78.8519 C.ar      5 PHE5        0.0000 
     90 N          35.0465  -18.4045   80.3788 N.2       2 ALA2        0.0000 
     91 DU         35.4591  -16.0150   78.6125 H         7 CUB7        0.0000 
     92 CZ         35.6655  -14.8202   77.7293 C.ar      5 PHE5        0.0000 
     93 CZ         35.8718  -13.6254   76.8462 C.ar      5 PHE5        0.0000 
     94 DU         35.4657  -19.3067   79.2562 H         7 CUB7        0.0000 
     95 DU         35.6720  -18.1120   78.3730 H         7 CUB7        0.0000 
     96 NZ         35.8784  -16.9172   77.4899 N.2       4 LYS4        0.0000 
     97 NZ         36.0847  -15.7224   76.6067 N.2       4 LYS4        0.0000 
     98 CA         36.2910  -14.5277   75.7236 C.3       6 GLY6        0.0000 
     99 NZ         35.6786  -21.4037   79.0167 N.2       4 LYS4        0.0000 
    100 NZ         35.8849  -20.2089   78.1336 N.2       4 LYS4        0.0000 
    101 O          36.0912  -19.0142   77.2504 O.2       2 ALA2        0.0000 
    102 NZ         36.2976  -17.8194   76.3673 N.2       4 LYS4        0.0000 
    103 O          36.3041  -21.1112   77.0110 O.2       2 ALA2        0.0000 
    104 O          32.7827  -16.6924   82.1660 O.2       2 ALA2        0.0000 
    105 CA         32.9890  -15.4977   81.2828 C.3       6 GLY6        0.0000 
    106 CA         33.1953  -14.3029   80.3997 C.3       6 GLY6        0.0000 
    107 OG         33.4017  -13.1082   79.5165 O.2       1 SER1        0.0000 
    108 CZ         33.6080  -11.9134   78.6334 C.ar      5 PHE5        0.0000 
    109 N          33.2019  -17.5947   81.0434 N.2       2 ALA2        0.0000 
    110 DU         33.4082  -16.3999   80.1602 H         7 CUB7        0.0000 
    111 DU         33.6146  -15.2051   79.2771 H         7 CUB7        0.0000 
    112 CZ         33.8209  -14.0104   78.3939 C.ar      5 PHE5        0.0000 
    113 N          33.4147  -19.6916   80.8039 N.2       2 ALA2        0.0000 
    114 N          33.6211  -18.4969   79.9208 N.2       2 ALA2        0.0000 
    115 DU         33.8274  -17.3021   79.0376 H         7 CUB7        0.0000 
    116 DU         34.2401  -14.9126   77.2713 H         7 CUB7        0.0000 
    117 CZ         34.4465  -13.7178   76.3881 C.ar      5 PHE5        0.0000 
    118 CA         33.8340  -20.5939   79.6813 C.3       6 GLY6        0.0000 
    119 DU         34.0403  -19.3991   78.7982 H         7 CUB7        0.0000 
    120 DU         34.2466  -18.2043   77.9150 H         7 CUB7        0.0000 
    121 DU         34.4530  -17.0096   77.0318 H         7 CUB7        0.0000 
    122 DU         34.6593  -15.8148   76.1487 H         7 CUB7        0.0000 
    123 CA         34.8657  -14.6201   75.2655 C.3       6 GLY6        0.0000 
    124 NZ         34.4595  -20.3013   77.6756 N.2       4 LYS4        0.0000 
    125 O          34.6659  -19.1066   76.7924 O.2       2 ALA2        0.0000 
    126 NZ         35.0785  -16.7171   75.0261 N.2       4 LYS4        0.0000 
    127 CA         35.2849  -15.5223   74.1429 C.3       6 GLY6        0.0000 
    128 NZ         34.8787  -21.2036   76.5529 N.2       4 LYS4        0.0000 
    129 CA         30.9381  -15.8826   82.8306 C.3       6 GLY6        0.0000 
    130 O          31.3573  -16.7848   81.7080 O.2       2 ALA2        0.0000 
    131 CA         31.5636  -15.5901   80.8248 C.3       6 GLY6        0.0000 
    132 OG         31.7700  -14.3953   79.9417 O.2       1 SER1        0.0000 
    133 OG         31.9763  -13.2006   79.0585 O.2       1 SER1        0.0000 
    134 OG         32.1827  -12.0058   78.1753 O.2       1 SER1        0.0000 
    135 N          31.7765  -17.6871   80.5854 N.2       2 ALA2        0.0000 
    136 DU         31.9828  -16.4923   79.7022 H         7 CUB7        0.0000 
    137 DU         32.1892  -15.2975   78.8190 H         7 CUB7        0.0000 
    138 O          32.3955  -14.1028   77.9359 O.2       2 ALA2        0.0000 
    139 O          32.6019  -12.9080   77.0527 O.2       2 ALA2        0.0000 
    140 CA         31.9894  -19.7840   80.3459 C.3       6 GLY6        0.0000 
    141 DU         32.1957  -18.5893   79.4628 H         7 CUB7        0.0000 
    142 DU         32.4021  -17.3945   78.5796 H         7 CUB7        0.0000 
    143 DU         32.6084  -16.1998   77.6964 H         7 CUB7        0.0000 
    144 O          32.8147  -15.0050   76.8133 O.2       2 ALA2        0.0000 
    145 NZ         32.4086  -20.6863   79.2233 N.2       4 LYS4        0.0000 
    146 DU         32.6149  -19.4915   78.3401 H         7 CUB7        0.0000 
    147 DU         32.8213  -18.2967   77.4570 H         7 CUB7        0.0000 
    148 DU         33.0276  -17.1020   76.5738 H         7 CUB7        0.0000 
    149 O          33.2340  -15.9072   75.6907 O.2       2 ALA2        0.0000 
    150 O          33.4468  -18.0042   75.4512 O.2       2 ALA2        0.0000 
    151 O          33.6532  -16.8094   74.5681 O.2       2 ALA2        0.0000 
    152 O          33.8595  -15.6147   73.6849 O.2       2 ALA2        0.0000 
    153 CZ         36.6716  -13.8256   79.3099 C.ar      5 PHE5        0.0000 
    154 N          36.8845  -15.9226   79.0705 N.2       2 ALA2        0.0000 
    155 N          37.0909  -14.7278   78.1873 N.2       2 ALA2        0.0000 
    156 N          37.3037  -16.8248   77.9479 N.2       2 ALA2        0.0000 
@<TRIPOS>BOND
@<TRIPOS>SUBSTRUCTURE
     1 SER1       16 GROUP   
     2 ALA2        1 GROUP   
     3 ASP3       22 GROUP   
     4 LYS4        2 GROUP   
     5 PHE5       13 GROUP   
     6 GLY6        9 GROUP   
     7 CUB7       19 GROUP   
@<TRIPOS>SET

