#    Name: 2zt7_ATP_1_INTS_M
#    Modification time : Tue Mar 25 11:03:17 2014

@<TRIPOS>MOLECULE
2zt7_ATP_1_INTS_M
   61     0    12     0     0
SMALL
NO_CHARGES


@<TRIPOS>ATOM
      1 NZ         32.0950  -18.7085   71.2695 N.4       3 LYC4        0.0000 
      2 NZ         30.9910  -18.5650   72.5610 N.4      11 LYL4        0.0000 
      3 NZ         33.1990  -18.8520   69.9780 N.4       7 LYP4        0.0000 
      4 NZ         29.5730  -18.4290   72.1600 N.4       3 LYC4        0.0000 
      5 NZ         28.4920  -17.5170   70.7400 N.4       7 LYP4        0.0000 
      6 N          29.5730  -18.4290   72.1600 N.am      2 SEC2        0.0000 
      7 N          30.9910  -18.5650   72.5610 N.am     10 SEL2        0.0000 
      8 N          28.1550  -18.2930   71.7590 N.am      6 SEP2        0.0000 
      9 N          30.3770  -17.8820   71.5535 N.am      2 SEC2        0.0000 
     10 N          29.7630  -17.1990   70.5460 N.am      6 SEP2        0.0000 
     11 NZ         33.0815  -18.0675   71.7775 N.4       3 LYC4        0.0000 
     12 NZ         32.9640  -17.2830   73.5770 N.4      11 LYL4        0.0000 
     13 N          32.1735  -14.2815   75.1485 N.am      2 SEC2        0.0000 
     14 N          32.5360  -15.7180   75.6260 N.am     10 SEL2        0.0000 
     15 N          31.8110  -12.8450   74.6710 N.am      6 SEP2        0.0000 
     16 N          31.3200  -13.1425   76.1910 N.am      2 SEC2        0.0000 
     17 N          30.8290  -13.4400   77.7110 N.am     10 SEL2        0.0000 
     18 N          28.1775  -16.0860   77.6640 N.am      2 SEC2        0.0000 
     19 N          29.0490  -15.2470   78.0840 N.am     10 SEL2        0.0000 
     20 N          27.3060  -16.9250   77.2440 N.am      6 SEP2        0.0000 
     21 N          30.9495  -13.8900   75.2155 N.am      2 SEC2        0.0000 
     22 N          30.0880  -14.9350   75.7600 N.am     10 SEL2        0.0000 
     23 CA         25.8710  -12.3325   77.3745 C.3       4 GLC5        0.0000 
     24 CA         27.1510  -13.5220   76.3500 C.3      12 GLL5        0.0000 
     25 CA         24.5910  -11.1430   78.3990 C.3       8 GLP5        0.0000 
     26 O          26.4370  -16.4065   76.1850 O.2       1 ALC1        0.0000 
     27 O          25.5680  -15.8880   75.1260 O.2       9 ALL1        0.0000 
     28 O          27.3060  -16.9250   77.2440 O.2       5 ALP1        0.0000 
     29 CA         26.1905  -16.1145   71.5200 C.3       4 GLC5        0.0000 
     30 CA         26.2500  -14.8990   72.9910 C.3      12 GLL5        0.0000 
     31 CA         26.1310  -17.3300   70.0490 C.3       8 GLP5        0.0000 
     32 O          23.6600  -15.3450   72.9430 O.2       1 ALC1        0.0000 
     33 O          25.0830  -14.9940   72.1720 O.2       9 ALL1        0.0000 
     34 O          22.2370  -15.6960   73.7140 O.2       5 ALP1        0.0000 
     35 CA         27.4265  -11.9825   71.8250 C.3       4 GLC5        0.0000 
     36 CA         26.9860  -13.5890   72.6920 C.3      12 GLL5        0.0000 
     37 CA         27.8670  -10.3760   70.9580 C.3       8 GLP5        0.0000 
     38 CA         30.5370  -15.4105   67.3965 C.3       4 GLC5        0.0000 
     39 CA         30.0430  -14.0950   68.9530 C.3      12 GLL5        0.0000 
     40 CA         31.0310  -16.7260   65.8400 C.3       8 GLP5        0.0000 
     41 CA         29.6275  -13.0850   67.2360 C.3       4 GLC5        0.0000 
     42 CA         29.2120  -12.0750   65.5190 C.3       8 GLP5        0.0000 
     43 O          31.8120  -13.3240   67.6390 O.2       1 ALC1        0.0000 
     44 O          31.3240  -14.2280   68.6200 O.2       9 ALL1        0.0000 
     45 O          32.3000  -12.4200   66.6580 O.2       5 ALP1        0.0000 
     46 N          30.0585  -14.1720   66.6940 N.am      2 SEC2        0.0000 
     47 N          29.0990  -13.9870   68.0060 N.am     10 SEL2        0.0000 
     48 N          31.0180  -14.3570   65.3820 N.am      6 SEP2        0.0000 
     49 CA         28.5190  -12.9540   66.9235 C.3       4 GLC5        0.0000 
     50 CA         27.8260  -13.8330   68.3280 C.3      12 GLL5        0.0000 
     51 CA         27.5010  -11.8155   67.7965 C.3       4 GLC5        0.0000 
     52 CA         27.1760   -9.7980   67.2650 C.3       8 GLP5        0.0000 
     53 CA         26.5760  -15.2485   68.6365 C.3       4 GLC5        0.0000 
     54 CA         25.3260  -16.6640   68.9450 C.3       8 GLP5        0.0000 
     55 CA         27.2250  -15.6020   70.3175 C.3       4 GLC5        0.0000 
     56 CA         28.3190  -13.8740   70.5860 C.3      12 GLL5        0.0000 
     57 CA         26.6286  -16.5544   74.6606 C.3       4 GLC5        0.0000 
     58 CA         26.8850  -18.4760   75.4850 C.3       8 GLP5        0.0000 
     59 CA         24.8974  -13.3092   72.4674 C.3       4 GLC5        0.0000 
     60 CA         25.8330  -14.6610   74.4400 C.3      12 GLL5        0.0000 
     61 CA         23.2810  -12.4340   71.7310 C.3       8 GLP5        0.0000 
@<TRIPOS>BOND
@<TRIPOS>SUBSTRUCTURE
     1 ALC1       26 GROUP        1 X    ALC  0     ROOT ALC X 1
     2 SEC2        6 GROUP        1 X    SEC  0     **** SEC X 2
     3 LYC4        1 GROUP        1 X    LYC  0     **** LYC X 4
     4 GLC5       23 GROUP        1 X    GLC  0     **** GLC X 6
     5 ALP1       28 GROUP        1 Y    ALP  0     ROOT ALP Y 8
     6 SEP2        8 GROUP        1 Y    SEP  0     **** SEP Y 9
     7 LYP4        3 GROUP        1 Y    LYP  0     **** LYP Y 11
     8 GLP5       25 GROUP        1 Y    GLP  0     **** GLP Y 13
     9 ALL1       27 GROUP        1 Z    ALL  0     ROOT ALL Z 15
    10 SEL2        7 GROUP        1 Z    SEL  0     **** SEL Z 16
    11 LYL4        2 GROUP        1 Z    LYL  0     **** LYL Z 18
    12 GLL5       24 GROUP        1 Z    GLL  0     **** GLL Z 20
@<TRIPOS>SET

