#    Name: 2zt7_ATP_1_ligand
#    Modification time : Tue Mar 25 11:03:17 2014

@<TRIPOS>MOLECULE
2zt7_ATP_1_ligand
   43    45     1     0     0
SMALL
NO_CHARGES


@<TRIPOS>ATOM
      1 PG         31.7460  -18.0630   73.8900 P.3       1 ATP1200     0.0000 
      2 O1G        30.9910  -18.5650   72.5610 O.co2     1 ATP1200     0.0000 
      3 O2G        32.9640  -17.2830   73.5770 O.co2     1 ATP1200     0.0000 
      4 O3G        32.0830  -19.3930   74.7300 O.co2     1 ATP1200     0.0000 
      5 PB         31.1380  -16.1550   75.8340 P.3       1 ATP1200     0.0000 
      6 O1B        30.9110  -16.8500   77.2690 O.co2     1 ATP1200     0.0000 
      7 O2B        32.5360  -15.7180   75.6260 O.co2     1 ATP1200     0.0000 
      8 O3B        30.6600  -17.2430   74.7490 O.3       1 ATP1200     0.0000 
      9 PA         29.5650  -14.2470   77.1210 P.3       1 ATP1200     0.0000 
     10 O1A        30.8290  -13.4400   77.7110 O.co2     1 ATP1200     0.0000 
     11 O2A        29.0490  -15.2470   78.0840 O.co2     1 ATP1200     0.0000 
     12 O3A        30.0880  -14.9350   75.7600 O.3       1 ATP1200     0.0000 
     13 O5'        28.4740  -13.1280   76.7260 O.3       1 ATP1200     0.0000 
     14 C5'        27.1510  -13.5220   76.3500 C.3       1 ATP1200     0.0000 
     15 C4'        27.1560  -14.0720   74.9230 C.3       1 ATP1200     0.0000 
     16 O4'        27.3430  -13.0190   73.9650 O.3       1 ATP1200     0.0000 
     17 C3'        25.8330  -14.6610   74.4400 C.3       1 ATP1200     0.0000 
     18 O3'        25.5680  -15.8880   75.1260 O.3       1 ATP1200     0.0000 
     19 C2'        26.2500  -14.8990   72.9910 C.3       1 ATP1200     0.0000 
     20 O2'        25.0830  -14.9940   72.1720 O.3       1 ATP1200     0.0000 
     21 C1'        26.9860  -13.5890   72.6920 C.3       1 ATP1200     0.0000 
     22 N9         28.2180  -13.8360   71.9110 N.pl3     1 ATP1200     0.0000 
     23 C8         29.4390  -13.9860   72.4230 C.2       1 ATP1200     0.0000 
     24 N7         30.3250  -14.1110   71.4390 N.2       1 ATP1200     0.0000 
     25 C5         29.6630  -14.0430   70.2860 C.ar      1 ATP1200     0.0000 
     26 C6         30.0430  -14.0950   68.9530 C.ar      1 ATP1200     0.0000 
     27 N6         31.3240  -14.2280   68.6200 N.pl3     1 ATP1200     0.0000 
     28 N1         29.0990  -13.9870   68.0060 N.ar      1 ATP1200     0.0000 
     29 C2         27.8260  -13.8330   68.3280 C.ar      1 ATP1200     0.0000 
     30 N3         27.4300  -13.7750   69.5880 N.ar      1 ATP1200     0.0000 
     31 C4         28.3190  -13.8740   70.5860 C.ar      1 ATP1200     0.0000 
     32 H          26.4522  -12.6775   76.3802 H         1 ATP1200     0.0000 
     33 H          26.7585  -14.3057   77.0088 H         1 ATP1200     0.0000 
     34 H          27.9152  -14.8120   74.8007 H         1 ATP1200     0.0000 
     35 H          25.1106  -13.9365   74.4757 H         1 ATP1200     0.0000 
     36 H          26.9064  -15.6849   72.9418 H         1 ATP1200     0.0000 
     37 H          26.3236  -12.9448   72.1607 H         1 ATP1200     0.0000 
     38 H          29.6508  -14.0017   73.3804 H         1 ATP1200     0.0000 
     39 H          31.8879  -14.7659   69.2466 H         1 ATP1200     0.0000 
     40 H          31.6075  -13.7781   67.7731 H         1 ATP1200     0.0000 
     41 H          27.1024  -13.7538   67.5540 H         1 ATP1200     0.0000 
     42 H          26.3395  -16.0067   75.7511 H         1 ATP1200     0.0000 
     43 H          24.3413  -15.2196   72.8037 H         1 ATP1200     0.0000 
@<TRIPOS>BOND
     1    2    1 ar   
     2    3    1 ar   
     3    4    1 ar   
     4    8    1 1    
     5    6    5 ar   
     6    7    5 ar   
     7    8    5 1    
     8   12    5 1    
     9   10    9 ar   
    10   11    9 ar   
    11   12    9 1    
    12   13    9 1    
    13   14   13 1    
    14   15   14 1    
    15   32   14 1    
    16   33   14 1    
    17   16   15 1    
    18   17   15 1    
    19   34   15 1    
    20   21   16 1    
    21   18   17 1    
    22   19   17 1    
    23   35   17 1    
    24   42   18 1    
    25   20   19 1    
    26   21   19 1    
    27   36   19 1    
    28   43   20 1    
    29   22   21 1    
    30   37   21 1    
    31   23   22 1    
    32   31   22 1    
    33   24   23 2    
    34   38   23 1    
    35   25   24 1    
    36   26   25 ar   
    37   31   25 ar   
    38   27   26 1    
    39   28   26 ar   
    40   39   27 1    
    41   40   27 1    
    42   29   28 ar   
    43   30   29 ar   
    44   41   29 1    
    45   31   30 ar   
@<TRIPOS>SUBSTRUCTURE
     1 ATP1200     1 GROUP   
@<TRIPOS>SET

