#    Name: 3jqb_DX6_2_INTS_M
#    Modification time : Tue Mar 25 17:44:15 2014

@<TRIPOS>MOLECULE
3jqb_DX6_2_INTS_M
   35     0     6     0     0
SMALL
NO_CHARGES


@<TRIPOS>ATOM
      1 CA         35.7470   18.1370   33.3265 C.3       2 GLC5        0.0000 
      2 CA         34.7760   17.6010   31.3780 C.3       6 GLL5        0.0000 
      3 CA         36.7180   18.6730   35.2750 C.3       4 GLP5        0.0000 
      4 CA         34.1905   13.2935   32.6440 C.3       2 GLC5        0.0000 
      5 CA         34.6750   15.1900   32.1230 C.3       6 GLL5        0.0000 
      6 CA         33.7060   11.3970   33.1650 C.3       4 GLP5        0.0000 
      7 CA         37.7980   15.0360   32.3330 C.3       2 GLC5        0.0000 
      8 CA         35.7890   14.8950   33.1350 C.3       6 GLL5        0.0000 
      9 CA         39.8070   15.1770   31.5310 C.3       4 GLP5        0.0000 
     10 CA         36.2535   16.7840   34.2050 C.3       2 GLC5        0.0000 
     11 CA         34.9635   13.1770   33.8125 C.3       2 GLC5        0.0000 
     12 CA         34.1380   11.4590   34.4900 C.3       4 GLP5        0.0000 
     13 O          37.3830   10.5280   31.2585 O.2       1 ALC1        0.0000 
     14 O          37.0760   11.6880   31.8870 O.2       5 ALL1        0.0000 
     15 O          37.6900    9.3680   30.6300 O.2       3 ALP1        0.0000 
     16 CA         39.8570   12.0100   32.9090 C.3       2 GLC5        0.0000 
     17 CA         37.7840   11.7510   33.0110 C.3       6 GLL5        0.0000 
     18 CA         41.9300   12.2690   32.8070 C.3       4 GLP5        0.0000 
     19 CA         37.4735   10.0485   33.9855 C.3       2 GLC5        0.0000 
     20 CA         37.1630    8.3460   34.9600 C.3       4 GLP5        0.0000 
     21 O          39.7510   12.2770   36.4605 O.2       1 ALC1        0.0000 
     22 O          38.9800   12.3620   35.4100 O.2       5 ALL1        0.0000 
     23 O          40.5220   12.1920   37.5110 O.2       3 ALP1        0.0000 
     24 O          40.6710    9.0860   34.6060 O.2       1 ALC1        0.0000 
     25 O          40.1810   10.3410   35.2060 O.2       5 ALL1        0.0000 
     26 O          41.1610    7.8310   34.0060 O.2       3 ALP1        0.0000 
     27 O          40.3515   11.2665   36.3585 O.2       1 ALC1        0.0000 
     28 CA         36.2400   16.6545   27.6809 C.3       2 GLC5        0.0000 
     29 CA         35.9050   15.9360   30.0380 C.3       6 GLL5        0.0000 
     30 CA         36.4370   15.9630   25.8730 C.3       4 GLP5        0.0000 
     31 CA         33.9405   18.6867   32.4262 C.3       2 GLC5        0.0000 
     32 CA         35.1960   18.5920   30.4930 C.3       6 GLL5        0.0000 
     33 CA         32.8950   19.2770   33.9170 C.3       4 GLP5        0.0000 
     34 CA         35.4849   19.9146   31.2978 C.3       2 GLC5        0.0000 
     35 CA         35.7900   21.8160   31.9380 C.3       4 GLP5        0.0000 
@<TRIPOS>BOND
@<TRIPOS>SUBSTRUCTURE
     1 ALC1       13 GROUP        1 X    ALC  0     ROOT ALC X 1
     2 GLC5        1 GROUP        1 X    GLC  0     **** GLC X 6
     3 ALP1       15 GROUP        1 Y    ALP  0     ROOT ALP Y 8
     4 GLP5        3 GROUP        1 Y    GLP  0     **** GLP Y 13
     5 ALL1       14 GROUP        1 Z    ALL  0     ROOT ALL Z 15
     6 GLL5        2 GROUP        1 Z    GLL  0     **** GLL Z 20
@<TRIPOS>SET

