#    Name: 3jqb_DX6_2_ligand
#    Modification time : Tue Mar 25 17:44:15 2014

@<TRIPOS>MOLECULE
3jqb_DX6_2_ligand
   33    35     1     0     0
SMALL
NO_CHARGES


@<TRIPOS>ATOM
      1 CAF        35.9050   15.9360   30.0380 C.ar      1 DX6270      0.0000 
      2 CAD        36.3250   16.9300   29.1550 C.ar      1 DX6270      0.0000 
      3 CAC        35.9710   18.2590   29.3810 C.ar      1 DX6270      0.0000 
      4 CAE        35.1960   18.5920   30.4930 C.ar      1 DX6270      0.0000 
      5 CAG        34.7760   17.6010   31.3780 C.ar      1 DX6270      0.0000 
      6 CAN        35.1310   16.2740   31.1490 C.ar      1 DX6270      0.0000 
      7 CAI        34.6750   15.1900   32.1230 C.3       1 DX6270      0.0000 
      8 CAJ        35.7890   14.8950   33.1350 C.3       1 DX6270      0.0000 
      9 CAP        36.4900   13.5560   32.8550 C.2       1 DX6270      0.0000 
     10 CAH        36.3030   12.7710   31.7890 C.2       1 DX6270      0.0000 
     11 NAL        37.0760   11.6880   31.8870 N.pl3     1 DX6270      0.0000 
     12 CAR        37.7840   11.7510   33.0110 C.2       1 DX6270      0.0000 
     13 NAK        38.6920   10.9160   33.5400 N.2       1 DX6270      0.0000 
     14 CAS        37.4370   12.9310   33.6600 C.2       1 DX6270      0.0000 
     15 CAQ        38.0400   13.2480   34.8780 C.2       1 DX6270      0.0000 
     16 OAB        37.7670   14.2810   35.4870 O.2       1 DX6270      0.0000 
     17 NAM        38.9800   12.3620   35.4100 N.am      1 DX6270      0.0000 
     18 CAO        39.2890   11.1880   34.7110 C.2       1 DX6270      0.0000 
     19 NAA        40.1810   10.3410   35.2060 N.pl3     1 DX6270      0.0000 
     20 H          36.1643   14.9572   29.8717 H         1 DX6270      0.0000 
     21 H          36.8957   16.6824   28.3374 H         1 DX6270      0.0000 
     22 H          36.2789   18.9914   28.7321 H         1 DX6270      0.0000 
     23 H          34.9344   19.5729   30.6590 H         1 DX6270      0.0000 
     24 H          34.2074   17.8484   32.1951 H         1 DX6270      0.0000 
     25 H          34.4437   14.2844   31.5733 H         1 DX6270      0.0000 
     26 H          33.7921   15.5290   32.6534 H         1 DX6270      0.0000 
     27 H          35.3616   14.8692   34.1408 H         1 DX6270      0.0000 
     28 H          36.5291   15.6987   33.0974 H         1 DX6270      0.0000 
     29 H          35.6910   12.9632   31.0492 H         1 DX6270      0.0000 
     30 H          37.1143   10.9616   31.2323 H         1 DX6270      0.0000 
     31 H          39.4381   12.5665   36.2991 H         1 DX6270      0.0000 
     32 H          40.5708   10.5821   36.0948 H         1 DX6270      0.0000 
     33 H          40.3833    9.5378   34.6457 H         1 DX6270      0.0000 
@<TRIPOS>BOND
     1    2    1 ar   
     2    6    1 ar   
     3   20    1 1    
     4    3    2 ar   
     5   21    2 1    
     6    4    3 ar   
     7   22    3 1    
     8    5    4 ar   
     9   23    4 1    
    10    6    5 ar   
    11   24    5 1    
    12    7    6 1    
    13    8    7 1    
    14   25    7 1    
    15   26    7 1    
    16    9    8 1    
    17   27    8 1    
    18   28    8 1    
    19   10    9 2    
    20   14    9 1    
    21   11   10 1    
    22   29   10 1    
    23   12   11 1    
    24   30   11 1    
    25   13   12 1    
    26   14   12 2    
    27   18   13 2    
    28   15   14 1    
    29   16   15 2    
    30   17   15 am   
    31   18   17 1    
    32   31   17 1    
    33   19   18 1    
    34   32   19 1    
    35   33   19 1    
@<TRIPOS>SUBSTRUCTURE
     1 DX6270      1 GROUP   
@<TRIPOS>SET

