#    Name: 3SVL_2_CAVITY_N1_ALL.mol2
#    Modification time : Tue Mar 11 01:18:18 2014

@<TRIPOS>MOLECULE
3SVL_2_CAVITY_N1_ALL.mol2
  131     0     7     0     0
SMALL
NO_CHARGES


@<TRIPOS>ATOM
      1 OD1        63.9143   41.9901   20.8867 O.3       3 ASP3        0.0000 
      2 CA         63.9060   41.2384   15.5308 C.3       6 GLY6        0.0000 
      3 CA         64.2885   40.1771   16.5194 C.3       6 GLY6        0.0000 
      4 CA         64.5407   39.2190   15.3932 C.3       6 GLY6        0.0000 
      5 O          63.2629   42.5062   10.3127 O.2       2 ALA2        0.0000 
      6 CA         63.0024   42.7126    6.0831 C.3       6 GLY6        0.0000 
      7 CA         64.7079   44.4630   20.9585 C.3       6 GLY6        0.0000 
      8 DU         64.5776   44.5662   18.8437 H         7 CUB7        0.0000 
      9 CA         64.9601   43.5049   19.8322 C.3       6 GLY6        0.0000 
     10 CA         65.3426   42.4436   20.8208 C.3       6 GLY6        0.0000 
     11 O          65.2124   42.5468   18.7060 O.2       2 ALA2        0.0000 
     12 DU         64.6996   43.7113   15.6026 H         7 CUB7        0.0000 
     13 DU         65.0821   42.6500   16.5912 H         7 CUB7        0.0000 
     14 O          65.4646   41.5886   17.5798 O.2       2 ALA2        0.0000 
     15 DU         64.5693   43.8145   13.4878 H         7 CUB7        0.0000 
     16 DU         64.9518   42.7532   14.4764 H         7 CUB7        0.0000 
     17 DU         65.3343   41.6919   15.4650 H         7 CUB7        0.0000 
     18 DU         65.7168   40.6305   16.4536 H         7 CUB7        0.0000 
     19 O          66.0993   39.5692   17.4421 O.2       2 ALA2        0.0000 
     20 DU         64.0565   44.9790   10.3845 H         7 CUB7        0.0000 
     21 OG         64.4390   43.9177   11.3730 O.2       1 SER1        0.0000 
     22 OG         64.8215   42.8564   12.3616 O.2       1 SER1        0.0000 
     23 O          65.2040   41.7951   13.3502 O.2       2 ALA2        0.0000 
     24 CA         65.5865   40.7337   14.3388 C.3       6 GLY6        0.0000 
     25 CA         65.9691   39.6724   15.3273 C.3       6 GLY6        0.0000 
     26 CZ         66.3516   38.6111   16.3159 C.ar      5 PHE5        0.0000 
     27 OG         64.3087   44.0209    9.2582 O.2       1 SER1        0.0000 
     28 OG         64.6912   42.9596   10.2468 O.2       1 SER1        0.0000 
     29 CA         66.2213   38.7143   14.2011 C.3       6 GLY6        0.0000 
     30 CA         66.6038   37.6530   15.1897 C.3       6 GLY6        0.0000 
     31 DU         64.1784   44.1241    7.1434 H         7 CUB7        0.0000 
     32 CA         64.5610   43.0628    8.1320 C.3       6 GLY6        0.0000 
     33 CA         64.4307   43.1660    6.0172 C.3       6 GLY6        0.0000 
     34 CA         64.8132   42.1047    7.0058 C.3       6 GLY6        0.0000 
     35 O          64.6829   42.2079    4.8910 O.2       2 ALA2        0.0000 
     36 CA         65.3712   47.0391   18.9154 C.3       6 GLY6        0.0000 
     37 DU         66.0059   45.0196   18.7778 H         7 CUB7        0.0000 
     38 CA         66.3884   43.9583   19.7664 C.3       6 GLY6        0.0000 
     39 CA         66.7710   42.8970   20.7549 C.3       6 GLY6        0.0000 
     40 O          65.8756   45.1228   16.6630 O.2       2 ALA2        0.0000 
     41 DU         66.6407   43.0002   18.6401 H         7 CUB7        0.0000 
     42 O          67.0232   41.9389   19.6287 O.2       2 ALA2        0.0000 
     43 O          65.3629   46.2874   13.5596 O.2       2 ALA2        0.0000 
     44 O          65.7454   45.2260   14.5482 O.2       2 ALA2        0.0000 
     45 DU         66.1279   44.1647   15.5368 H         7 CUB7        0.0000 
     46 DU         66.5104   43.1034   16.5253 H         7 CUB7        0.0000 
     47 DU         66.8929   42.0421   17.5139 H         7 CUB7        0.0000 
     48 O          67.2754   40.9808   18.5025 O.2       2 ALA2        0.0000 
     49 CZ         65.2326   46.3906   11.4448 C.ar      5 PHE5        0.0000 
     50 DU         65.6151   45.3292   12.4334 H         7 CUB7        0.0000 
     51 DU         65.9976   44.2679   13.4220 H         7 CUB7        0.0000 
     52 DU         66.3801   43.2066   14.4105 H         7 CUB7        0.0000 
     53 DU         66.7626   42.1453   15.3991 H         7 CUB7        0.0000 
     54 DU         67.1451   41.0840   16.3877 H         7 CUB7        0.0000 
     55 O          67.5276   40.0226   17.3763 O.2       2 ALA2        0.0000 
     56 O          67.9102   38.9613   18.3648 O.2       2 ALA2        0.0000 
     57 DU         65.4848   45.4325   10.3186 H         7 CUB7        0.0000 
     58 OG         65.8673   44.3711   11.3072 O.2       1 SER1        0.0000 
     59 OG         66.2498   43.3098   12.2957 O.2       1 SER1        0.0000 
     60 OG         66.6323   42.2485   13.2843 O.2       1 SER1        0.0000 
     61 DU         67.0149   41.1872   14.2729 H         7 CUB7        0.0000 
     62 CA         67.3974   40.1258   15.2615 C.3       6 GLY6        0.0000 
     63 O          67.7799   39.0645   16.2500 O.2       2 ALA2        0.0000 
     64 O          68.1624   38.0032   17.2386 O.2       2 ALA2        0.0000 
     65 DU         65.3545   45.5357    8.2038 H         7 CUB7        0.0000 
     66 DU         65.7370   44.4743    9.1924 H         7 CUB7        0.0000 
     67 OG         66.1195   43.4130   10.1809 O.2       1 SER1        0.0000 
     68 CA         67.2671   40.2290   13.1467 C.3       6 GLY6        0.0000 
     69 N          67.6496   39.1677   14.1352 N.2       2 ALA2        0.0000 
     70 O          68.0321   38.1064   15.1238 O.2       2 ALA2        0.0000 
     71 O          65.2242   45.6389    6.0890 O.2       2 ALA2        0.0000 
     72 O          65.6068   44.5775    7.0776 O.2       2 ALA2        0.0000 
     73 OG         65.9893   43.5162    8.0661 O.2       1 SER1        0.0000 
     74 O          65.4765   44.6807    4.9628 O.2       2 ALA2        0.0000 
     75 O          65.8590   43.6194    5.9513 O.2       2 ALA2        0.0000 
     76 O          66.2415   42.5581    6.9399 O.2       2 ALA2        0.0000 
     77 CA         67.0517   46.5344   17.7234 C.3       6 GLY6        0.0000 
     78 OG         67.4342   45.4731   18.7119 O.2       1 SER1        0.0000 
     79 CZ         67.8168   44.4117   19.7005 C.ar      5 PHE5        0.0000 
     80 O          67.3040   45.5763   16.5971 O.2       2 ALA2        0.0000 
     81 CZ         67.6865   44.5150   17.5857 C.ar      5 PHE5        0.0000 
     82 OG         68.0690   43.4536   18.5743 O.2       1 SER1        0.0000 
     83 OG         68.4515   42.3923   19.5628 O.2       1 SER1        0.0000 
     84 CZ         66.4087   47.8021   12.5052 C.ar      5 PHE5        0.0000 
     85 O          66.7912   46.7408   13.4938 O.2       2 ALA2        0.0000 
     86 O          67.1737   45.6795   14.4823 O.2       2 ALA2        0.0000 
     87 CZ         67.5562   44.6182   15.4709 C.ar      5 PHE5        0.0000 
     88 CZ         67.9387   43.5568   16.4595 C.ar      5 PHE5        0.0000 
     89 CZ         68.3212   42.4955   17.4481 C.ar      5 PHE5        0.0000 
     90 OG         68.7037   41.4342   18.4366 O.2       1 SER1        0.0000 
     91 OG         69.0862   40.3729   19.4252 O.2       1 SER1        0.0000 
     92 CZ         66.6609   46.8440   11.3790 C.ar      5 PHE5        0.0000 
     93 N          67.0434   45.7827   12.3675 N.2       2 ALA2        0.0000 
     94 N          67.4259   44.7214   13.3561 N.2       2 ALA2        0.0000 
     95 N          67.8084   43.6600   14.3447 N.2       2 ALA2        0.0000 
     96 CZ         68.1909   42.5987   15.3333 C.ar      5 PHE5        0.0000 
     97 CA         68.5734   41.5374   16.3218 C.3       6 GLY6        0.0000 
     98 CA         68.9560   40.4761   17.3104 C.3       6 GLY6        0.0000 
     99 OG         69.3385   39.4147   18.2990 O.2       1 SER1        0.0000 
    100 CZ         66.5306   46.9472    9.2642 C.ar      5 PHE5        0.0000 
    101 CZ         66.9131   45.8859   10.2527 C.ar      5 PHE5        0.0000 
    102 N          67.2956   44.8246   11.2413 N.2       2 ALA2        0.0000 
    103 N          67.6781   43.7632   12.2299 N.2       2 ALA2        0.0000 
    104 N          68.0606   42.7019   13.2185 N.2       2 ALA2        0.0000 
    105 CA         68.4432   41.6406   14.2070 C.3       6 GLY6        0.0000 
    106 CZ         66.7828   45.9891    8.1379 C.ar      5 PHE5        0.0000 
    107 NZ         67.1653   44.9278    9.1265 N.2       4 LYS4        0.0000 
    108 N          67.5479   43.8664   10.1151 N.2       2 ALA2        0.0000 
    109 N          67.9304   42.8051   11.1037 N.2       2 ALA2        0.0000 
    110 N          68.3129   41.7438   12.0922 N.2       2 ALA2        0.0000 
    111 O          67.0351   45.0310    7.0117 O.2       2 ALA2        0.0000 
    112 NZ         67.4176   43.9696    8.0003 N.2       4 LYS4        0.0000 
    113 NZ         67.8001   42.9083    8.9889 N.2       4 LYS4        0.0000 
    114 O          67.6698   43.0115    6.8741 O.2       2 ALA2        0.0000 
    115 CA         68.4800   46.9878   17.6575 C.3       6 GLY6        0.0000 
    116 CZ         68.8625   45.9265   18.6461 C.ar      5 PHE5        0.0000 
    117 OD1        68.3498   47.0910   15.5427 O.3       3 ASP3        0.0000 
    118 CZ         68.7323   46.0297   16.5313 C.ar      5 PHE5        0.0000 
    119 CZ         69.1148   44.9684   17.5198 C.ar      5 PHE5        0.0000 
    120 O          68.2195   47.1942   13.4279 O.2       2 ALA2        0.0000 
    121 CZ         68.6020   46.1329   14.4165 C.ar      5 PHE5        0.0000 
    122 CZ         68.9845   45.0716   15.4050 C.ar      5 PHE5        0.0000 
    123 N          68.4717   46.2361   12.3017 N.2       2 ALA2        0.0000 
    124 O          68.3414   46.3393   10.1869 O.2       2 ALA2        0.0000 
    125 NZ         68.5937   45.3812    9.0606 N.2       4 LYS4        0.0000 
    126 N          68.9762   44.3199   10.0492 N.2       2 ALA2        0.0000 
    127 O          69.5258   48.5026   16.6031 O.2       2 ALA2        0.0000 
    128 CA         69.9083   47.4413   17.5916 C.3       6 GLY6        0.0000 
    129 CZ         69.7781   47.5445   15.4768 C.ar      5 PHE5        0.0000 
    130 CZ         70.1606   46.4831   16.4654 C.ar      5 PHE5        0.0000 
    131 CA         70.0303   46.5863   14.3506 C.3       6 GLY6        0.0000 
@<TRIPOS>BOND
@<TRIPOS>SUBSTRUCTURE
     1 SER1       21 GROUP   
     2 ALA2        5 GROUP   
     3 ASP3        1 GROUP   
     4 LYS4      107 GROUP   
     5 PHE5       26 GROUP   
     6 GLY6        2 GROUP   
     7 CUB7        8 GROUP   
@<TRIPOS>SET

