#    Name: 3svl_FMN_2_INTS_M
#    Modification time : Mon Mar 24 18:38:29 2014

@<TRIPOS>MOLECULE
3svl_FMN_2_INTS_M
   64     0    12     0     0
SMALL
NO_CHARGES


@<TRIPOS>ATOM
      1 N          66.5540   41.7385    9.6430 N.am      2 SEC2        0.0000 
      2 N          67.2290   42.9070    9.1650 N.am     10 SEL2        0.0000 
      3 N          65.8790   40.5700   10.1210 N.am      6 SEP2        0.0000 
      4 N          67.6515   42.3290    7.9175 N.am      2 SEC2        0.0000 
      5 N          68.0740   41.7510    6.6700 N.am      6 SEP2        0.0000 
      6 O          69.2425   44.5555    8.3125 O.2       1 ALC1        0.0000 
      7 O          68.3650   44.8420    9.3450 O.2       9 ALL1        0.0000 
      8 O          70.1200   44.2690    7.2800 O.2       5 ALP1        0.0000 
      9 N          70.6280   47.2245    9.1470 N.am      2 SEC2        0.0000 
     10 N          69.4810   46.8000    9.6060 N.am     10 SEL2        0.0000 
     11 N          71.7750   47.6490    8.6880 N.am      6 SEP2        0.0000 
     12 N          69.9630   47.4825   11.9755 N.am      2 SEC2        0.0000 
     13 N          68.6320   47.1030   12.4160 N.am     10 SEL2        0.0000 
     14 N          71.2940   47.8620   11.5350 N.am      6 SEP2        0.0000 
     15 CA         71.1660   46.8375   15.0730 C.3       4 GLC5        0.0000 
     16 CA         69.4290   47.4300   15.9950 C.3      12 GLL5        0.0000 
     17 CA         72.9030   46.2450   14.1510 C.3       8 GLP5        0.0000 
     18 CA         72.0865   49.0500   17.2120 C.3       4 GLC5        0.0000 
     19 CA         70.3700   48.2640   16.8390 C.3      12 GLL5        0.0000 
     20 CA         73.8030   49.8360   17.5850 C.3       8 GLP5        0.0000 
     21 CA         71.4395   46.8485   16.1095 C.3       4 GLC5        0.0000 
     22 CA         72.5090   45.4330   15.3800 C.3       8 GLP5        0.0000 
     23 CA         69.3085   46.2110   19.5675 C.3       4 GLC5        0.0000 
     24 CA         68.6350   45.9720   18.0390 C.3      12 GLL5        0.0000 
     25 CA         69.9820   46.4500   21.0960 C.3       8 GLP5        0.0000 
     26 CA         69.9055   44.8430   17.2550 C.3       4 GLC5        0.0000 
     27 CA         71.1760   43.7140   16.4710 C.3       8 GLP5        0.0000 
     28 CA         64.0710   40.6775   14.6955 C.3       4 GLC5        0.0000 
     29 CA         65.7930   41.9590   15.3000 C.3      12 GLL5        0.0000 
     30 CA         62.3490   39.3960   14.0910 C.3       8 GLP5        0.0000 
     31 CA         69.3945   40.3990   15.6130 C.3       4 GLC5        0.0000 
     32 CA         67.7430   40.8240   16.5490 C.3      12 GLL5        0.0000 
     33 CA         71.0460   39.9740   14.6770 C.3       8 GLP5        0.0000 
     34 CA         69.4595   42.2690   16.5100 C.3       4 GLC5        0.0000 
     35 NZ         65.8105   38.3245   18.8405 N.4       3 LYC4        0.0000 
     36 NZ         66.9360   38.2390   17.9080 N.4      11 LYL4        0.0000 
     37 NZ         65.1390   38.9700   20.8870 N.4       7 LYP4        0.0000 
     38 N          66.6040   38.9530   19.3825 N.am      2 SEC2        0.0000 
     39 N          66.9360   38.2390   17.9080 N.am     10 SEL2        0.0000 
     40 N          66.2720   39.6670   20.8570 N.am      6 SEP2        0.0000 
     41 N          65.8105   38.3245   18.8405 N.am      2 SEC2        0.0000 
     42 N          64.6850   38.4100   19.7730 N.am      6 SEP2        0.0000 
     43 N          67.0910   36.7835   18.3215 N.am      2 SEC2        0.0000 
     44 N          67.2460   35.3280   18.7350 N.am      6 SEP2        0.0000 
     45 N          69.7360   36.7665   18.7345 N.am      2 SEC2        0.0000 
     46 N          69.3080   37.4780   17.8430 N.am     10 SEL2        0.0000 
     47 N          70.1640   36.0550   19.6260 N.am      6 SEP2        0.0000 
     48 N          69.2380   35.9720   17.4130 N.am      2 SEC2        0.0000 
     49 N          69.1680   34.4660   16.9830 N.am      6 SEP2        0.0000 
     50 N          69.8060   37.2190   16.4485 N.am      2 SEC2        0.0000 
     51 N          70.3040   36.9600   15.0540 N.am      6 SEP2        0.0000 
     52 NZ         67.4385   39.6475   20.0155 N.4       3 LYC4        0.0000 
     53 NZ         68.6050   39.6280   19.1740 N.4      11 LYL4        0.0000 
     54 N          69.8600   39.4210   19.7940 N.am      2 SEC2        0.0000 
     55 N          68.6050   39.6280   19.1740 N.am     10 SEL2        0.0000 
     56 N          71.1150   39.2140   20.4140 N.am      6 SEP2        0.0000 
     57 N          67.4385   39.6475   20.0155 N.am      2 SEC2        0.0000 
     58 CA         70.5238   46.6568   13.5150 C.3       4 GLC5        0.0000 
     59 CA         68.5150   46.9280   13.7300 C.3      12 GLL5        0.0000 
     60 CA         72.0970   45.9990   12.8630 C.3       8 GLP5        0.0000 
     61 CA         68.4503   48.6895   17.2870 C.3       4 GLC5        0.0000 
     62 CA         67.0010   49.5320   18.1570 C.3       8 GLP5        0.0000 
     63 CA         67.8038   47.8502   17.7312 C.3       4 GLC5        0.0000 
     64 CA         68.5780   46.3650   16.5720 C.3      12 GLL5        0.0000 
@<TRIPOS>BOND
@<TRIPOS>SUBSTRUCTURE
     1 ALC1        6 GROUP        1 X    ALC  0     ROOT ALC X 1
     2 SEC2        1 GROUP        1 X    SEC  0     **** SEC X 2
     3 LYC4       35 GROUP        1 X    LYC  0     **** LYC X 4
     4 GLC5       15 GROUP        1 X    GLC  0     **** GLC X 6
     5 ALP1        8 GROUP        1 Y    ALP  0     ROOT ALP Y 8
     6 SEP2        3 GROUP        1 Y    SEP  0     **** SEP Y 9
     7 LYP4       37 GROUP        1 Y    LYP  0     **** LYP Y 11
     8 GLP5       17 GROUP        1 Y    GLP  0     **** GLP Y 13
     9 ALL1        7 GROUP        1 Z    ALL  0     ROOT ALL Z 15
    10 SEL2        2 GROUP        1 Z    SEL  0     **** SEL Z 16
    11 LYL4       36 GROUP        1 Z    LYL  0     **** LYL Z 18
    12 GLL5       16 GROUP        1 Z    GLL  0     **** GLL Z 20
@<TRIPOS>SET

