#    Name: 3svl_FMN_2_ligand
#    Modification time : Mon Mar 24 18:38:29 2014

@<TRIPOS>MOLECULE
3svl_FMN_2_ligand
   50    52     1     0     0
SMALL
NO_CHARGES


@<TRIPOS>ATOM
      1 N1         67.0850   43.9010   11.1320 N.2       1 FMN200      0.0000 
      2 C2         67.5500   43.8570    9.8670 C.2       1 FMN200      0.0000 
      3 O2         67.2290   42.9070    9.1650 O.2       1 FMN200      0.0000 
      4 N3         68.3650   44.8420    9.3450 N.am      1 FMN200      0.0000 
      5 C4         68.7690   45.9490   10.0910 C.2       1 FMN200      0.0000 
      6 O4         69.4810   46.8000    9.6060 O.2       1 FMN200      0.0000 
      7 C4A        68.2870   46.0520   11.5200 C.2       1 FMN200      0.0000 
      8 N5         68.6320   47.1030   12.4160 N.2       1 FMN200      0.0000 
      9 C5A        68.5150   46.9280   13.7300 C.ar      1 FMN200      0.0000 
     10 C6         69.3860   47.7010   14.6040 C.ar      1 FMN200      0.0000 
     11 C7         69.4290   47.4300   15.9950 C.ar      1 FMN200      0.0000 
     12 C7M        70.3700   48.2640   16.8390 C.3       1 FMN200      0.0000 
     13 C8         68.5780   46.3650   16.5720 C.ar      1 FMN200      0.0000 
     14 C8M        68.6350   45.9720   18.0390 C.3       1 FMN200      0.0000 
     15 C9         67.7460   45.6030   15.7320 C.ar      1 FMN200      0.0000 
     16 C9A        67.6680   45.8580   14.3180 C.ar      1 FMN200      0.0000 
     17 N10        66.9070   44.9320   13.3130 N.pl3     1 FMN200      0.0000 
     18 C10        67.3900   44.9060   11.9930 C.2       1 FMN200      0.0000 
     19 C1'        65.8930   43.9470   13.7590 C.3       1 FMN200      0.0000 
     20 C2'        66.5920   42.6430   14.1570 C.3       1 FMN200      0.0000 
     21 O2'        66.7040   41.7970   13.0180 O.3       1 FMN200      0.0000 
     22 C3'        65.7930   41.9590   15.3000 C.3       1 FMN200      0.0000 
     23 O3'        65.6970   42.8400   16.4440 O.3       1 FMN200      0.0000 
     24 C4'        66.4480   40.6110   15.7380 C.3       1 FMN200      0.0000 
     25 O4'        65.4030   39.7270   16.1310 O.3       1 FMN200      0.0000 
     26 C5'        67.7430   40.8240   16.5490 C.3       1 FMN200      0.0000 
     27 O5'        68.5840   39.6560   16.5200 O.3       1 FMN200      0.0000 
     28 P          68.3330   38.7420   17.8670 P.3       1 FMN200      0.0000 
     29 O1P        66.9360   38.2390   17.9080 O.co2     1 FMN200      0.0000 
     30 O2P        69.3080   37.4780   17.8430 O.co2     1 FMN200      0.0000 
     31 O3P        68.6050   39.6280   19.1740 O.co2     1 FMN200      0.0000 
     32 H          68.6941   44.7603    8.3558 H         1 FMN200      0.0000 
     33 H          69.9594   48.4348   14.1988 H         1 FMN200      0.0000 
     34 H          67.1747   44.8428   16.1243 H         1 FMN200      0.0000 
     35 H          65.1902   43.7325   12.9575 H         1 FMN200      0.0000 
     36 H          65.3470   44.3241   14.6204 H         1 FMN200      0.0000 
     37 H          67.5659   42.9049   14.5556 H         1 FMN200      0.0000 
     38 H          64.8029   41.7263   14.9180 H         1 FMN200      0.0000 
     39 H          66.8297   40.2167   14.6880 H         1 FMN200      0.0000 
     40 H          67.4484   41.0841   17.5774 H         1 FMN200      0.0000 
     41 H          68.2558   41.7015   16.1259 H         1 FMN200      0.0000 
     42 H          71.3202   48.1657   16.5432 H         1 FMN200      0.0000 
     43 H          70.1474   49.2377   16.7913 H         1 FMN200      0.0000 
     44 H          70.3347   48.0021   17.8035 H         1 FMN200      0.0000 
     45 H          69.5454   45.6534   18.3030 H         1 FMN200      0.0000 
     46 H          68.4079   46.7397   18.6382 H         1 FMN200      0.0000 
     47 H          67.9935   45.2348   18.2512 H         1 FMN200      0.0000 
     48 H          66.4450   42.3722   12.2421 H         1 FMN200      0.0000 
     49 H          65.0714   42.3792   17.0736 H         1 FMN200      0.0000 
     50 H          65.8342   39.0803   16.7602 H         1 FMN200      0.0000 
@<TRIPOS>BOND
     1    2    1 1    
     2   18    1 2    
     3    3    2 2    
     4    4    2 am   
     5    5    4 am   
     6   32    4 1    
     7    6    5 2    
     8    7    5 1    
     9    8    7 2    
    10   18    7 1    
    11    9    8 1    
    12   10    9 ar   
    13   16    9 ar   
    14   11   10 ar   
    15   33   10 1    
    16   12   11 1    
    17   13   11 ar   
    18   42   12 1    
    19   43   12 1    
    20   44   12 1    
    21   14   13 1    
    22   15   13 ar   
    23   45   14 1    
    24   46   14 1    
    25   47   14 1    
    26   16   15 ar   
    27   34   15 1    
    28   17   16 1    
    29   18   17 1    
    30   19   17 1    
    31   20   19 1    
    32   35   19 1    
    33   36   19 1    
    34   21   20 1    
    35   22   20 1    
    36   37   20 1    
    37   48   21 1    
    38   23   22 1    
    39   24   22 1    
    40   38   22 1    
    41   49   23 1    
    42   25   24 1    
    43   26   24 1    
    44   39   24 1    
    45   50   25 1    
    46   27   26 1    
    47   40   26 1    
    48   41   26 1    
    49   28   27 1    
    50   29   28 ar   
    51   30   28 ar   
    52   31   28 ar   
@<TRIPOS>SUBSTRUCTURE
     1 FMN200      1 GROUP   
@<TRIPOS>SET

