#    Name: 1bl7_SB4_1_INTS_M
#    Modification time : Mon Mar 24 19:37:26 2014

@<TRIPOS>MOLECULE
1bl7_SB4_1_INTS_M
   60     0     6     0     0
SMALL
NO_CHARGES


@<TRIPOS>ATOM
      1 CA         -0.7745   13.5085   33.2370 C.3       2 GLC5        0.0000 
      2 CA         -0.7150   13.9340   31.0480 C.3       6 GLL5        0.0000 
      3 CA         -0.8340   13.0830   35.4260 C.3       4 GLP5        0.0000 
      4 CA          8.3045   13.0935   32.2950 C.3       2 GLC5        0.0000 
      5 CA          6.9400   12.1690   31.1760 C.3       6 GLL5        0.0000 
      6 CA          9.6690   14.0180   33.4140 C.3       4 GLP5        0.0000 
      7 CA         10.1340   10.4060   31.2490 C.3       2 GLC5        0.0000 
      8 CA          8.5510   10.6150   30.3030 C.3       6 GLL5        0.0000 
      9 CA         11.7170   10.1970   32.1950 C.3       4 GLP5        0.0000 
     10 CA          7.6510    9.3150   31.2010 C.3       2 GLC5        0.0000 
     11 CA          6.7510    8.0150   32.0990 C.3       4 GLP5        0.0000 
     12 CA          1.3205   10.8085   32.5410 C.3       2 GLC5        0.0000 
     13 CA          2.2910   10.5090   30.5950 C.3       6 GLL5        0.0000 
     14 CA          0.3500   11.1080   34.4870 C.3       4 GLP5        0.0000 
     15 CA          1.2705   10.6195   26.9635 C.3       2 GLC5        0.0000 
     16 CA          0.3490    9.8990   28.7720 C.3       6 GLL5        0.0000 
     17 CA          2.1920   11.3400   25.1550 C.3       4 GLP5        0.0000 
     18 CA          1.9440    9.0420   28.1325 C.3       2 GLC5        0.0000 
     19 CA          3.5390    8.1850   27.4930 C.3       4 GLP5        0.0000 
     20 CA          0.4045    8.0470   27.7180 C.3       2 GLC5        0.0000 
     21 CA          0.4600    6.1950   26.6640 C.3       4 GLP5        0.0000 
     22 N           0.2325    7.5750   30.0805 N.am      1 SEC2        0.0000 
     23 N           0.7740    8.9170   29.5640 N.am      5 SEL2        0.0000 
     24 N          -0.3090    6.2330   30.5970 N.am      3 SEP2        0.0000 
     25 CA          1.6030    7.1535   29.9325 C.3       2 GLC5        0.0000 
     26 CA          1.7370    9.2020   30.4730 C.3       6 GLL5        0.0000 
     27 CA          1.4690    5.1050   29.3920 C.3       4 GLP5        0.0000 
     28 N           4.8615   15.5155   29.7040 N.am      1 SEC2        0.0000 
     29 N           3.6240   14.7740   29.7430 N.am      5 SEL2        0.0000 
     30 N           6.0990   16.2570   29.6650 N.am      3 SEP2        0.0000 
     31 CA         -0.5612   16.4708   27.4410 C.3       2 GLC5        0.0000 
     32 CA         -0.6460   15.4360   28.9680 C.3       6 GLL5        0.0000 
     33 CA          0.2960   17.4170   25.9020 C.3       4 GLP5        0.0000 
     34 CA          4.7572    9.7948   28.2150 C.3       2 GLC5        0.0000 
     35 CA          5.3620   11.7460   28.8610 C.3       6 GLL5        0.0000 
     36 CA          6.4888   12.5412   27.6310 C.3       2 GLC5        0.0000 
     37 CA          7.0020   13.6780   26.3250 C.3       4 GLP5        0.0000 
     38 CA          5.7198   10.0107   30.2550 C.3       2 GLC5        0.0000 
     39 CA          5.4640    8.6170   31.5730 C.3       4 GLP5        0.0000 
     40 CA          6.3102   10.1692   31.1215 C.3       2 GLC5        0.0000 
     41 CA          7.3730   11.2740   30.1640 C.3       6 GLL5        0.0000 
     42 CA          6.5738   14.0233   29.8410 C.3       2 GLC5        0.0000 
     43 CA          6.8220   15.5340   28.5790 C.3       4 GLP5        0.0000 
     44 CA          5.7298   11.9713   32.7385 C.3       2 GLC5        0.0000 
     45 CA          5.7110   12.8560   31.0300 C.3       6 GLL5        0.0000 
     46 CA          5.1340   11.4300   34.3740 C.3       4 GLP5        0.0000 
     47 CA          5.3820   10.6880   31.0113 C.3       2 GLC5        0.0000 
     48 CA          5.5450   14.2758   29.1953 C.3       2 GLC5        0.0000 
     49 CA          4.8890   12.6620   29.8690 C.3       6 GLL5        0.0000 
     50 CA          9.1604   11.8134   29.5608 C.3       2 GLC5        0.0000 
     51 CA         10.5650   12.4850   28.7790 C.3       4 GLP5        0.0000 
     52 CA          8.6600    9.4764   29.1894 C.3       2 GLC5        0.0000 
     53 CA          9.5540    8.0610   28.4330 C.3       4 GLP5        0.0000 
     54 CA          3.7390    9.2363   31.0535 C.3       2 GLC5        0.0000 
     55 CA          1.0605    8.7587   31.8335 C.3       2 GLC5        0.0000 
     56 CA          0.1070    7.6620   33.1330 C.3       4 GLP5        0.0000 
     57 CA          2.7109    9.1453   28.9000 C.3       2 GLC5        0.0000 
     58 CA          2.8605   13.4210   27.6495 C.3       2 GLC5        0.0000 
     59 CA          2.2430   12.8750   29.6980 C.3       6 GLL5        0.0000 
     60 CA          2.7760   13.7180   25.5730 C.3       4 GLP5        0.0000 
@<TRIPOS>BOND
@<TRIPOS>SUBSTRUCTURE
     1 SEC2       22 GROUP        1 X    SEC  0     ROOT SEC X 2
     2 GLC5        1 GROUP        1 X    GLC  0     **** GLC X 6
     3 SEP2       24 GROUP        1 Y    SEP  0     ROOT SEP Y 9
     4 GLP5        3 GROUP        1 Y    GLP  0     **** GLP Y 13
     5 SEL2       23 GROUP        1 Z    SEL  0     ROOT SEL Z 16
     6 GLL5        2 GROUP        1 Z    GLL  0     **** GLL Z 20
@<TRIPOS>SET

