#    Name: 1bl7_SB4_1_ligand
#    Modification time : Mon Mar 24 19:37:26 2014

@<TRIPOS>MOLECULE
1bl7_SB4_1_ligand
   43    46     1     0     0
SMALL
NO_CHARGES


@<TRIPOS>ATOM
      1 CA1        -0.7150   13.9340   31.0480 C.3       1 SB4800      0.0000 
      2 CA2        -2.2560   14.0530   31.0450 C.3       1 SB4800      0.0000 
      3 NA3        -2.7750   15.2930   30.3480 N.4       1 SB4800      0.0000 
      4 CA4        -2.1910   15.6130   28.9920 C.3       1 SB4800      0.0000 
      5 CA5        -0.6460   15.4360   28.9680 C.3       1 SB4800      0.0000 
      6 CA6        -0.1460   14.1020   29.6150 C.3       1 SB4800      0.0000 
      7 CB1         5.3620   11.7460   28.8610 C.ar      1 SB4800      0.0000 
      8 CB2         6.5890   11.0630   29.0130 C.ar      1 SB4800      0.0000 
      9 CB3         7.3730   11.2740   30.1640 C.ar      1 SB4800      0.0000 
     10 CB4         6.9400   12.1690   31.1760 C.ar      1 SB4800      0.0000 
     11 CB5         5.7110   12.8560   31.0300 C.ar      1 SB4800      0.0000 
     12 CB6         4.8890   12.6620   29.8690 C.ar      1 SB4800      0.0000 
     13 FB7         8.5510   10.6150   30.3030 F         1 SB4800      0.0000 
     14 CC1         2.2910   10.5090   30.5950 C.ar      1 SB4800      0.0000 
     15 CC2         1.7660   11.5090   29.6870 C.ar      1 SB4800      0.0000 
     16 NC3         0.7890   11.1550   28.7880 N.ar      1 SB4800      0.0000 
     17 CC4         0.3490    9.8990   28.7720 C.ar      1 SB4800      0.0000 
     18 NC5         0.7740    8.9170   29.5640 N.ar      1 SB4800      0.0000 
     19 CC6         1.7370    9.2020   30.4730 C.ar      1 SB4800      0.0000 
     20 NC7        -0.5830    9.6050   27.9020 N.pl3     1 SB4800      0.0000 
     21 ND1         1.3580   13.9970   29.6610 N.pl3     1 SB4800      0.0000 
     22 CD2         2.2980   15.0140   29.6890 C.2       1 SB4800      0.0000 
     23 ND3         3.6240   14.7740   29.7430 N.2       1 SB4800      0.0000 
     24 CD4         3.6470   13.3730   29.7540 C.2       1 SB4800      0.0000 
     25 CD5         2.2430   12.8750   29.6980 C.2       1 SB4800      0.0000 
     26 H          -0.4333   12.9581   31.4273 H         1 SB4800      0.0000 
     27 H          -0.2989   14.7060   31.6856 H         1 SB4800      0.0000 
     28 H          -2.6055   14.0444   32.0899 H         1 SB4800      0.0000 
     29 H          -2.6711   13.1559   30.5582 H         1 SB4800      0.0000 
     30 H          -2.4207   16.6461   28.7207 H         1 SB4800      0.0000 
     31 H          -2.6221   14.9540   28.2346 H         1 SB4800      0.0000 
     32 H          -0.1849   16.2752   29.5013 H         1 SB4800      0.0000 
     33 H          -0.3018   15.4683   27.9280 H         1 SB4800      0.0000 
     34 H          -0.5394   13.2767   29.0163 H         1 SB4800      0.0000 
     35 H           4.7893   11.5966   28.0250 H         1 SB4800      0.0000 
     36 H           6.9058   10.4172   28.2882 H         1 SB4800      0.0000 
     37 H           7.5129   12.3159   32.0049 H         1 SB4800      0.0000 
     38 H           5.3959   13.5028   31.7584 H         1 SB4800      0.0000 
     39 H           2.9887   10.7312   31.2527 H         1 SB4800      0.0000 
     40 H           2.1024    8.4665   31.1138 H         1 SB4800      0.0000 
     41 H          -0.8964   10.3569   27.3219 H         1 SB4800      0.0000 
     42 H          -0.8964    8.6554   27.8969 H         1 SB4800      0.0000 
     43 H           1.9482   16.0076   29.6667 H         1 SB4800      0.0000 
@<TRIPOS>BOND
     1    2    1 1    
     2    6    1 1    
     3   26    1 1    
     4   27    1 1    
     5    3    2 1    
     6   28    2 1    
     7   29    2 1    
     8    4    3 1    
     9    5    4 1    
    10   30    4 1    
    11   31    4 1    
    12    6    5 1    
    13   32    5 1    
    14   33    5 1    
    15   21    6 1    
    16   34    6 1    
    17    8    7 ar   
    18   12    7 ar   
    19   35    7 1    
    20    9    8 ar   
    21   36    8 1    
    22   10    9 ar   
    23   13    9 1    
    24   11   10 ar   
    25   37   10 1    
    26   12   11 ar   
    27   38   11 1    
    28   24   12 1    
    29   15   14 ar   
    30   19   14 ar   
    31   39   14 1    
    32   16   15 ar   
    33   25   15 1    
    34   17   16 ar   
    35   18   17 ar   
    36   20   17 1    
    37   19   18 ar   
    38   40   19 1    
    39   41   20 1    
    40   42   20 1    
    41   22   21 1    
    42   25   21 1    
    43   23   22 2    
    44   43   22 1    
    45   24   23 1    
    46   25   24 2    
@<TRIPOS>SUBSTRUCTURE
     1 SB4800      1 GROUP   
@<TRIPOS>SET

