#    Name: 4HGD_4_CAVITY_N1_6.mol2
#    Modification time : Tue Mar 11 02:21:31 2014

@<TRIPOS>MOLECULE
4HGD_4_CAVITY_N1_6.mol2
   96     0     7     0     0
SMALL
NO_CHARGES


@<TRIPOS>ATOM
      1 OG          1.9791   -7.1615   -9.7933 O.2       1 SER1        0.0000 
      2 N           1.4107   -5.9286  -10.4313 N.2       2 ALA2        0.0000 
      3 CZ          2.0676   -9.2157  -10.3150 C.ar      5 PHE5        0.0000 
      4 N           1.4992   -7.9829  -10.9530 N.2       2 ALA2        0.0000 
      5 CA          9.9315   -3.5204   -9.8427 C.3       6 GLY6        0.0000 
      6 N          11.7537   -8.8011  -14.6170 N.2       2 ALA2        0.0000 
      7 N          11.1853   -7.5682  -15.2550 N.2       2 ALA2        0.0000 
      8 NZ          5.6325   -7.1022   -9.4070 N.2       4 LYS4        0.0000 
      9 NZ          5.0641   -5.8693  -10.0450 N.2       4 LYS4        0.0000 
     10 NZ          4.4957   -4.6365  -10.6830 N.2       4 LYS4        0.0000 
     11 CZ          5.1526   -7.9236  -10.5667 C.ar      5 PHE5        0.0000 
     12 O           4.5842   -6.6907  -11.2047 O.2       2 ALA2        0.0000 
     13 N           4.0158   -5.4579  -11.8427 N.2       2 ALA2        0.0000 
     14 CA          4.6727   -8.7450  -11.7265 C.3       6 GLY6        0.0000 
     15 O           4.1043   -7.5122  -12.3644 O.2       2 ALA2        0.0000 
     16 O           7.6692   -5.3986  -11.4564 O.2       2 ALA2        0.0000 
     17 CA          7.1007   -4.1658  -12.0944 C.3       6 GLY6        0.0000 
     18 CA          6.5323   -2.9329  -12.7324 C.3       6 GLY6        0.0000 
     19 O           8.8945   -9.9185  -10.7022 O.2       2 ALA2        0.0000 
     20 CA          8.3261   -8.6857  -11.3402 C.3       6 GLY6        0.0000 
     21 O           7.7577   -7.4529  -11.9781 O.2       2 ALA2        0.0000 
     22 CA          7.8462   -9.5071  -12.4999 C.3       6 GLY6        0.0000 
     23 NZ          8.6290   -3.7558   -9.1370 N.2       4 LYS4        0.0000 
     24 N           8.0606   -2.5230   -9.7749 N.2       2 ALA2        0.0000 
     25 CA          8.7175   -5.8100   -9.6587 C.3       6 GLY6        0.0000 
     26 NZ          8.1491   -4.5772  -10.2967 N.2       4 LYS4        0.0000 
     27 N           7.5807   -3.3444  -10.9347 N.2       2 ALA2        0.0000 
     28 CA          7.0122   -2.1115  -11.5726 C.3       6 GLY6        0.0000 
     29 CA          8.8060   -7.8643  -10.1804 C.3       6 GLY6        0.0000 
     30 CA          8.2376   -6.6315  -10.8184 C.3       6 GLY6        0.0000 
     31 N          12.0680  -10.6807  -11.4756 N.2       2 ALA2        0.0000 
     32 DU         11.4995   -9.4478  -12.1136 H         7 CUB7        0.0000 
     33 DU         10.9311   -8.2150  -12.7516 H         7 CUB7        0.0000 
     34 DU         10.3627   -6.9822  -13.3896 H         7 CUB7        0.0000 
     35 O           9.7943   -5.7493  -14.0275 O.2       2 ALA2        0.0000 
     36 CA         11.0196  -10.2693  -13.2733 C.3       6 GLY6        0.0000 
     37 CA         10.4512   -9.0364  -13.9113 C.3       6 GLY6        0.0000 
     38 O           9.8828   -7.8036  -14.5493 O.2       2 ALA2        0.0000 
     39 O           9.3144   -6.5707  -15.1873 O.2       2 ALA2        0.0000 
     40 CA          9.9713   -9.8578  -15.0710 C.3       6 GLY6        0.0000 
     41 CA          9.4029   -8.6250  -15.7090 C.3       6 GLY6        0.0000 
     42 OG         11.2340   -3.2851  -10.5484 O.2       1 SER1        0.0000 
     43 OG         11.3225   -5.3393  -11.0701 O.2       1 SER1        0.0000 
     44 OG         10.7541   -4.1065  -11.7081 O.2       1 SER1        0.0000 
     45 N          10.1857   -2.8737  -12.3461 N.2       2 ALA2        0.0000 
     46 OG         11.9795   -8.6264  -10.9539 O.2       1 SER1        0.0000 
     47 OG         11.4110   -7.3936  -11.5919 O.2       1 SER1        0.0000 
     48 OG         10.8426   -6.1607  -12.2298 O.2       1 SER1        0.0000 
     49 OG         10.2742   -4.9279  -12.8678 O.2       1 SER1        0.0000 
     50 CA          9.7058   -3.6951  -13.5058 C.3       6 GLY6        0.0000 
     51 NZ          6.2781   -3.5797  -10.2289 N.2       4 LYS4        0.0000 
     52 NZ          5.7097   -2.3469  -10.8669 N.2       4 LYS4        0.0000 
     53 CA          6.9350   -6.8668  -10.1127 C.3       6 GLY6        0.0000 
     54 NZ          6.3666   -5.6340  -10.7507 N.2       4 LYS4        0.0000 
     55 NZ          5.7982   -4.4011  -11.3887 N.2       4 LYS4        0.0000 
     56 CA          5.2298   -3.1683  -12.0266 C.3       6 GLY6        0.0000 
     57 CA          7.0235   -8.9211  -10.6345 C.3       6 GLY6        0.0000 
     58 O           6.4551   -7.6882  -11.2724 O.2       2 ALA2        0.0000 
     59 O           5.8867   -6.4554  -11.9104 O.2       2 ALA2        0.0000 
     60 O           5.3183   -5.2226  -12.5484 O.2       2 ALA2        0.0000 
     61 CA          5.9752   -8.5096  -12.4322 C.3       6 GLY6        0.0000 
     62 OG          0.6766   -7.3968   -9.0876 O.2       1 SER1        0.0000 
     63 CZ          0.1967   -8.2182  -10.2473 C.ar      5 PHE5        0.0000 
     64 CZ         -0.3717   -6.9854  -10.8853 C.ar      5 PHE5        0.0000 
     65 O          -0.2832   -9.0396  -11.4070 O.2       2 ALA2        0.0000 
     66 OD1         3.7616   -6.1047   -9.3393 O.3       3 ASP3        0.0000 
     67 CA          3.8501   -8.1589   -9.8610 C.3       6 GLY6        0.0000 
     68 N           3.2816   -6.9261  -10.4990 N.2       2 ALA2        0.0000 
     69 N           2.7132   -5.6933  -11.1370 N.2       2 ALA2        0.0000 
     70 N           2.8017   -7.7475  -11.6587 N.2       2 ALA2        0.0000 
     71 CZ         -0.5374   -9.6864   -8.9036 C.ar      5 PHE5        0.0000 
     72 CZ         -1.1059   -8.4536   -9.5416 C.ar      5 PHE5        0.0000 
     73 OG         12.6251   -5.1040  -11.7758 O.2       1 SER1        0.0000 
     74 OG         12.0567   -3.8711  -12.4138 O.2       1 SER1        0.0000 
     75 CA         13.2820   -8.3911  -11.6596 C.3       6 GLY6        0.0000 
     76 OG         12.7136   -7.1582  -12.2976 O.2       1 SER1        0.0000 
     77 OG         12.1452   -5.9254  -12.9355 O.2       1 SER1        0.0000 
     78 CA         12.2337   -7.9796  -13.4573 C.3       6 GLY6        0.0000 
     79 N          11.6652   -6.7468  -14.0953 N.2       2 ALA2        0.0000 
     80 OG         10.5884   -6.8075   -9.7264 O.2       1 SER1        0.0000 
     81 OG         10.0200   -5.5747  -10.3644 O.2       1 SER1        0.0000 
     82 N           9.4516   -4.3419  -11.0024 N.2       2 ALA2        0.0000 
     83 N           8.8832   -3.1090  -11.6404 N.2       2 ALA2        0.0000 
     84 N          10.6769   -8.8618  -10.2482 N.2       2 ALA2        0.0000 
     85 CA         10.1085   -7.6289  -10.8862 C.3       6 GLY6        0.0000 
     86 DU          9.5401   -6.3961  -11.5241 H         7 CUB7        0.0000 
     87 O           8.9717   -5.1633  -12.1621 O.2       2 ALA2        0.0000 
     88 CA          8.4033   -3.9304  -12.8001 C.3       6 GLY6        0.0000 
     89 N          10.7654  -10.9160  -10.7699 N.2       2 ALA2        0.0000 
     90 N          10.1970   -9.6832  -11.4079 N.2       2 ALA2        0.0000 
     91 DU          9.6286   -8.4504  -12.0459 H         7 CUB7        0.0000 
     92 O           9.0602   -7.2175  -12.6839 O.2       2 ALA2        0.0000 
     93 O          10.2855  -11.7374  -11.9296 O.2       2 ALA2        0.0000 
     94 CA          9.7171  -10.5046  -12.5676 C.3       6 GLY6        0.0000 
     95 CA          9.1487   -9.2718  -13.2056 C.3       6 GLY6        0.0000 
     96 O           8.5803   -8.0389  -13.8436 O.2       2 ALA2        0.0000 
@<TRIPOS>BOND
@<TRIPOS>SUBSTRUCTURE
     1 SER1        1 GROUP   
     2 ALA2        2 GROUP   
     3 ASP3       66 GROUP   
     4 LYS4        8 GROUP   
     5 PHE5        3 GROUP   
     6 GLY6        5 GROUP   
     7 CUB7       32 GROUP   
@<TRIPOS>SET

