#    Name: 4hgd_KGT_4_INTS_M
#    Modification time : Tue Mar 25 01:00:43 2014

@<TRIPOS>MOLECULE
4hgd_KGT_4_INTS_M
   64     0    12     0     0
SMALL
NO_CHARGES


@<TRIPOS>ATOM
      1 CA         -0.4850   -7.5565   -7.4585 C.3       4 GLC5        0.0000 
      2 CA         -0.2480   -8.0470   -9.4670 C.3      12 GLL5        0.0000 
      3 CA         -0.7220   -7.0660   -5.4500 C.3       8 GLP5        0.0000 
      4 CA         -2.0240   -7.5960   -9.6705 C.3       4 GLC5        0.0000 
      5 CA         -3.8000   -7.1450   -9.8740 C.3       8 GLP5        0.0000 
      6 CA         -0.3130   -6.9265  -11.9720 C.3       4 GLC5        0.0000 
      7 CA          0.6390   -7.0970  -10.2500 C.3      12 GLL5        0.0000 
      8 CA         -1.2650   -6.7560  -13.6940 C.3       8 GLP5        0.0000 
      9 N           2.9590   -6.1355   -7.7855 N.am      2 SEC2        0.0000 
     10 N           2.3920   -7.2370   -8.6650 N.am     10 SEL2        0.0000 
     11 N           3.5260   -5.0340   -6.9060 N.am      6 SEP2        0.0000 
     12 O           2.2320   -6.2710  -12.0390 O.2       1 ALC1        0.0000 
     13 O           3.0390   -6.5590  -10.8160 O.2       9 ALL1        0.0000 
     14 O           1.4250   -5.9830  -13.2620 O.2       5 ALP1        0.0000 
     15 CA          4.3460   -8.0035   -9.1010 C.3       4 GLC5        0.0000 
     16 CA          4.4580   -6.4500  -10.5280 C.3      12 GLL5        0.0000 
     17 CA          4.2340   -9.5570   -7.6740 C.3       8 GLP5        0.0000 
     18 CA          4.4865   -9.3540  -10.3325 C.3       4 GLC5        0.0000 
     19 CA          5.0940   -7.7570  -10.9300 C.3      12 GLL5        0.0000 
     20 CA          3.8790  -10.9510   -9.7350 C.3       8 GLP5        0.0000 
     21 CA          5.5125   -8.8170   -9.1115 C.3       4 GLC5        0.0000 
     22 CA          6.7910   -8.0770  -10.5490 C.3      12 GLL5        0.0000 
     23 CA          7.4520   -8.1865   -8.8140 C.3       4 GLC5        0.0000 
     24 CA          8.1130   -8.2960   -7.0790 C.3       8 GLP5        0.0000 
     25 N           5.6770   -5.7355  -13.3635 N.am      2 SEC2        0.0000 
     26 N           4.8880   -4.8650  -12.2390 N.am     10 SEL2        0.0000 
     27 N           6.4660   -6.6060  -14.4880 N.am      6 SEP2        0.0000 
     28 N           4.5380   -5.7625  -13.4890 N.am      2 SEC2        0.0000 
     29 N           4.1880   -6.6600  -14.7390 N.am      6 SEP2        0.0000 
     30 O           6.3790   -4.8100   -8.9370 O.2       1 ALC1        0.0000 
     31 O           6.2320   -4.6190  -10.3510 O.2       9 ALL1        0.0000 
     32 O           6.5260   -5.0010   -7.5230 O.2       5 ALP1        0.0000 
     33 CA          6.4810   -1.6495  -12.0735 C.3       4 GLC5        0.0000 
     34 CA          6.9700   -3.4940  -10.9100 C.3      12 GLL5        0.0000 
     35 CA          5.9920    0.1950  -13.2370 C.3       8 GLP5        0.0000 
     36 CA          6.9250   -3.1650  -13.0585 C.3       4 GLC5        0.0000 
     37 CA          6.8800   -2.8360  -15.2070 C.3       8 GLP5        0.0000 
     38 N           9.3145   -1.8075  -11.4925 N.am      2 SEC2        0.0000 
     39 N           9.0710   -3.0750  -11.9980 N.am     10 SEL2        0.0000 
     40 N           9.5580   -0.5400  -10.9870 N.am      6 SEP2        0.0000 
     41 NZ         -3.4140  -11.8255   -9.3295 N.4       3 LYC4        0.0000 
     42 NZ         -2.2750  -11.1840   -9.8260 N.4      11 LYL4        0.0000 
     43 NZ         -4.5330  -12.4280   -7.5080 N.4       7 LYP4        0.0000 
     44 N          -2.9285  -11.4625   -8.3510 N.am      2 SEC2        0.0000 
     45 N          -2.2750  -11.1840   -9.8260 N.am     10 SEL2        0.0000 
     46 N          -3.5820  -11.7410   -6.8760 N.am      6 SEP2        0.0000 
     47 N          -3.4140  -11.8255   -9.3295 N.am      2 SEC2        0.0000 
     48 N          -4.5530  -12.4670   -8.8330 N.am      6 SEP2        0.0000 
     49 N          -2.4065  -11.4805  -11.1530 N.am      2 SEC2        0.0000 
     50 N          -2.5380  -11.7770  -12.4800 N.am      6 SEP2        0.0000 
     51 NZ         -2.7650  -10.7960   -7.4920 N.4       3 LYC4        0.0000 
     52 NZ         -1.9480   -9.8510   -8.1080 N.4      11 LYL4        0.0000 
     53 N          -2.7650  -10.7960   -7.4920 N.am      2 SEC2        0.0000 
     54 N          -1.9480   -9.8510   -8.1080 N.am     10 SEL2        0.0000 
     55 N          -0.6405   -9.2185  -12.9450 N.am      2 SEC2        0.0000 
     56 N          -0.6720   -9.4970  -11.3460 N.am     10 SEL2        0.0000 
     57 N          -0.6090   -8.9400  -14.5440 N.am      6 SEP2        0.0000 
     58 N          -1.6050  -10.6370  -11.9130 N.am      2 SEC2        0.0000 
     59 CA          1.1433   -9.1845   -9.0053 C.3       4 GLC5        0.0000 
     60 CA          2.0910  -10.7970   -8.1520 C.3       8 GLP5        0.0000 
     61 CA         -0.0812   -5.9195   -9.1678 C.3       4 GLC5        0.0000 
     62 CA         -0.3580   -4.2670   -8.4770 C.3       8 GLP5        0.0000 
     63 CA          5.7492   -9.5035  -11.9333 C.3       4 GLC5        0.0000 
     64 CA          5.5560  -11.0900  -13.1270 C.3       8 GLP5        0.0000 
@<TRIPOS>BOND
@<TRIPOS>SUBSTRUCTURE
     1 ALC1       12 GROUP        1 X    ALC  0     ROOT ALC X 1
     2 SEC2        9 GROUP        1 X    SEC  0     **** SEC X 2
     3 LYC4       41 GROUP        1 X    LYC  0     **** LYC X 4
     4 GLC5        1 GROUP        1 X    GLC  0     **** GLC X 6
     5 ALP1       14 GROUP        1 Y    ALP  0     ROOT ALP Y 8
     6 SEP2       11 GROUP        1 Y    SEP  0     **** SEP Y 9
     7 LYP4       43 GROUP        1 Y    LYP  0     **** LYP Y 11
     8 GLP5        3 GROUP        1 Y    GLP  0     **** GLP Y 13
     9 ALL1       13 GROUP        1 Z    ALL  0     ROOT ALL Z 15
    10 SEL2       10 GROUP        1 Z    SEL  0     **** SEL Z 16
    11 LYL4       42 GROUP        1 Z    LYL  0     **** LYL Z 18
    12 GLL5        2 GROUP        1 Z    GLL  0     **** GLL Z 20
@<TRIPOS>SET

