#    Name: 4hgd_KGT_4_ligand
#    Modification time : Tue Mar 25 01:00:43 2014

@<TRIPOS>MOLECULE
4hgd_KGT_4_ligand
   31    30     1     0     0
SMALL
NO_CHARGES


@<TRIPOS>ATOM
      1 C01        -0.2480   -8.0470   -9.4670 C.3       1 KGT405      0.0000 
      2 C02         0.6390   -7.0970  -10.2500 C.3       1 KGT405      0.0000 
      3 C03         2.0780   -6.9860   -9.8130 C.2       1 KGT405      0.0000 
      4 O04         2.3920   -7.2370   -8.6650 O.2       1 KGT405      0.0000 
      5 N05         3.0390   -6.5590  -10.8160 N.am      1 KGT405      0.0000 
      6 C06         4.4580   -6.4500  -10.5280 C.3       1 KGT405      0.0000 
      7 C07         5.0940   -7.7570  -10.9300 C.3       1 KGT405      0.0000 
      8 S08         6.7910   -8.0770  -10.5490 S.3       1 KGT405      0.0000 
      9 C09         5.1770   -5.2590  -11.1230 C.2       1 KGT405      0.0000 
     10 O10         4.8880   -4.8650  -12.2390 O.2       1 KGT405      0.0000 
     11 N11         6.2320   -4.6190  -10.3510 N.am      1 KGT405      0.0000 
     12 C12         6.9700   -3.4940  -10.9100 C.3       1 KGT405      0.0000 
     13 C13         8.2000   -3.9240  -11.6550 C.2       1 KGT405      0.0000 
     14 O14         9.0710   -3.0750  -11.9980 O.co2     1 KGT405      0.0000 
     15 O15         8.3590   -5.1480  -11.9280 O.co2     1 KGT405      0.0000 
     16 C16        -0.8660   -9.2470  -10.1590 C.2       1 KGT405      0.0000 
     17 C17        -1.7460  -10.1490   -9.3190 C.2       1 KGT405      0.0000 
     18 O18        -2.2750  -11.1840   -9.8260 O.co2     1 KGT405      0.0000 
     19 O19        -1.9480   -9.8510   -8.1080 O.co2     1 KGT405      0.0000 
     20 O20        -0.6720   -9.4970  -11.3460 O.2       1 KGT405      0.0000 
     21 H          -1.0814   -7.4435   -8.9955 H         1 KGT405      0.0000 
     22 H           0.3366   -8.4182   -8.5717 H         1 KGT405      0.0000 
     23 H           0.1751   -6.0785  -10.2258 H         1 KGT405      0.0000 
     24 H           0.6116   -7.3950  -11.3287 H         1 KGT405      0.0000 
     25 H           2.7046   -6.3279  -11.7548 H         1 KGT405      0.0000 
     26 H           4.5801   -6.3934   -9.4139 H         1 KGT405      0.0000 
     27 H           5.0589   -7.9241  -12.0306 H         1 KGT405      0.0000 
     28 H           4.5769   -8.6353  -10.4809 H         1 KGT405      0.0000 
     29 H           6.4532   -4.9547   -9.4267 H         1 KGT405      0.0000 
     30 H           7.2714   -2.7946  -10.1062 H         1 KGT405      0.0000 
     31 H           6.3248   -2.9155  -11.5993 H         1 KGT405      0.0000 
@<TRIPOS>BOND
     1    2    1 1    
     2   16    1 1    
     3   21    1 1    
     4   22    1 1    
     5    3    2 1    
     6   23    2 1    
     7   24    2 1    
     8    4    3 2    
     9    5    3 am   
    10    6    5 1    
    11   25    5 1    
    12    7    6 1    
    13    9    6 1    
    14   26    6 1    
    15    8    7 1    
    16   27    7 1    
    17   28    7 1    
    18   10    9 2    
    19   11    9 am   
    20   12   11 1    
    21   29   11 1    
    22   13   12 1    
    23   30   12 1    
    24   31   12 1    
    25   14   13 ar   
    26   15   13 ar   
    27   17   16 1    
    28   20   16 2    
    29   18   17 ar   
    30   19   17 ar   
@<TRIPOS>SUBSTRUCTURE
     1 KGT405      1 GROUP   
@<TRIPOS>SET

