#    Name: 2p1t_3TN_1_INTS_M
#    Modification time : Mon Mar 24 18:09:46 2014

@<TRIPOS>MOLECULE
2p1t_3TN_1_INTS_M
   92     0     9     0     0
SMALL
NO_CHARGES


@<TRIPOS>ATOM
      1 CA         -2.0140  -21.0720   30.9360 C.3       3 GLC5        0.0000 
      2 CA         -0.8760  -20.7740   29.3230 C.3       9 GLL5        0.0000 
      3 CA         -3.1520  -21.3700   32.5490 C.3       6 GLP5        0.0000 
      4 CA         -0.5785  -22.5720   29.3925 C.3       3 GLC5        0.0000 
      5 CA         -0.2810  -24.3700   29.4620 C.3       6 GLP5        0.0000 
      6 CA         -2.7765  -20.8795   28.2240 C.3       3 GLC5        0.0000 
      7 CA         -4.6770  -20.9850   27.1250 C.3       6 GLP5        0.0000 
      8 CA          0.6295  -21.5465   28.1140 C.3       3 GLC5        0.0000 
      9 CA          2.1350  -22.3190   26.9050 C.3       6 GLP5        0.0000 
     10 CA          1.2005  -22.3960   34.9765 C.3       3 GLC5        0.0000 
     11 CA          0.8200  -20.4760   34.3520 C.3       9 GLL5        0.0000 
     12 CA          1.5810  -24.3160   35.6010 C.3       6 GLP5        0.0000 
     13 CA         -1.0390  -21.2405   35.0340 C.3       3 GLC5        0.0000 
     14 CA         -2.8980  -22.0050   35.7160 C.3       6 GLP5        0.0000 
     15 CA          1.4205  -20.6150   36.3045 C.3       3 GLC5        0.0000 
     16 CA          2.0210  -20.7540   38.2570 C.3       6 GLP5        0.0000 
     17 CA          2.4080  -21.3350   33.6005 C.3       3 GLC5        0.0000 
     18 CA          3.9960  -22.1940   32.8490 C.3       6 GLP5        0.0000 
     19 CA          2.6150  -17.2630   34.9220 C.3       3 GLC5        0.0000 
     20 CA          2.1180  -18.5540   33.3860 C.3       9 GLL5        0.0000 
     21 CA          3.1120  -15.9720   36.4580 C.3       6 GLP5        0.0000 
     22 CA          2.3160  -16.8805   31.9745 C.3       3 GLC5        0.0000 
     23 CA          2.5140  -15.2070   30.5630 C.3       6 GLP5        0.0000 
     24 CA          3.6730  -18.5705   32.6605 C.3       3 GLC5        0.0000 
     25 CA          5.2280  -18.5870   31.9350 C.3       6 GLP5        0.0000 
     26 CA          3.0570  -20.3740   33.1175 C.3       3 GLC5        0.0000 
     27 CA          1.9095  -19.0455   36.5590 C.3       3 GLC5        0.0000 
     28 CA          0.5610  -18.1440   35.2780 C.3       9 GLL5        0.0000 
     29 CA          3.2580  -19.9470   37.8400 C.3       6 GLP5        0.0000 
     30 CA          1.8365  -17.0580   35.8680 C.3       3 GLC5        0.0000 
     31 CA         -1.8860  -20.1085   35.7650 C.3       3 GLC5        0.0000 
     32 CA         -0.8740  -18.2120   35.8140 C.3       9 GLL5        0.0000 
     33 CA         -3.5810  -15.6115   33.8740 C.3       3 GLC5        0.0000 
     34 CA         -1.7540  -16.0390   34.8490 C.3       9 GLL5        0.0000 
     35 CA         -5.4080  -15.1840   32.8990 C.3       6 GLP5        0.0000 
     36 CA         -2.1750  -14.2785   35.2465 C.3       3 GLC5        0.0000 
     37 CA         -2.5960  -12.5180   35.6440 C.3       6 GLP5        0.0000 
     38 CA         -0.7455  -15.2780   33.4475 C.3       3 GLC5        0.0000 
     39 CA          0.2630  -14.5170   32.0460 C.3       6 GLP5        0.0000 
     40 CA         -3.0915  -19.9870   35.4985 C.3       3 GLC5        0.0000 
     41 CA         -3.2850  -17.9690   35.2810 C.3       9 GLL5        0.0000 
     42 CA         -4.3465  -16.5765   34.0900 C.3       3 GLC5        0.0000 
     43 CA         -4.8580  -18.1435   35.8745 C.3       3 GLC5        0.0000 
     44 CA         -6.4310  -18.3180   36.4680 C.3       6 GLP5        0.0000 
     45 N          -2.1440  -16.0770   27.7440 N.am      1 SEC2        0.0000 
     46 N          -2.1630  -16.8550   28.7560 N.am      7 SEL2        0.0000 
     47 N          -2.1250  -15.2990   26.7320 N.am      4 SEP2        0.0000 
     48 CA         -6.6790  -20.1295   28.4930 C.3       3 GLC5        0.0000 
     49 CA         -7.1760  -19.0410   30.0430 C.3       9 GLL5        0.0000 
     50 CA         -6.1820  -21.2180   26.9430 C.3       6 GLP5        0.0000 
     51 CA         -7.5590  -19.9105   32.0275 C.3       3 GLC5        0.0000 
     52 CA         -7.9420  -20.7800   34.0120 C.3       6 GLP5        0.0000 
     53 CA         -9.8335  -19.0710   28.3335 C.3       3 GLC5        0.0000 
     54 CA         -8.4070  -18.4300   29.7420 C.3       9 GLL5        0.0000 
     55 CA        -11.2600  -19.7120   26.9250 C.3       6 GLP5        0.0000 
     56 NZ        -12.0745  -17.6050   29.9295 N.4       2 LYC4        0.0000 
     57 NZ        -10.6470  -18.2010   29.8190 N.4       8 LYL4        0.0000 
     58 NZ        -13.6070  -17.2270   31.3460 N.4       5 LYP4        0.0000 
     59 N         -11.6085  -17.9640   30.9180 N.am      1 SEC2        0.0000 
     60 N         -10.6470  -18.2010   29.8190 N.am      7 SEL2        0.0000 
     61 N         -12.5700  -17.7270   32.0170 N.am      4 SEP2        0.0000 
     62 N         -12.0745  -17.6050   29.9295 N.am      1 SEC2        0.0000 
     63 N         -13.5020  -17.0090   30.0400 N.am      4 SEP2        0.0000 
     64 N         -10.9820  -20.4535   31.4225 N.am      1 SEC2        0.0000 
     65 N          -9.7570  -19.8670   30.9550 N.am      7 SEL2        0.0000 
     66 N         -12.2070  -21.0400   31.8900 N.am      4 SEP2        0.0000 
     67 CA         -1.9745  -20.2157   31.8870 C.3       3 GLC5        0.0000 
     68 CA         -1.3130  -18.9710   30.7570 C.3       9 GLL5        0.0000 
     69 CA         -2.0833  -19.8833   32.8792 C.3       3 GLC5        0.0000 
     70 CA         -0.4080  -18.7100   33.0170 C.3       9 GLL5        0.0000 
     71 CA         -2.5190  -17.7928   37.2429 C.3       3 GLC5        0.0000 
     72 CA         -2.7070  -17.6550   39.1820 C.3       6 GLP5        0.0000 
     73 CA         -2.8682  -19.7490   32.1673 C.3       3 GLC5        0.0000 
     74 CA         -2.6530  -17.9120   32.4470 C.3       9 GLL5        0.0000 
     75 CA         -0.7854  -16.3356   32.4371 C.3       3 GLC5        0.0000 
     76 CA         -3.6830  -19.8882   31.4483 C.3       3 GLC5        0.0000 
     77 CA         -3.5750  -18.1440   30.2100 C.3       9 GLL5        0.0000 
     78 CA         -4.4455  -19.6957   28.7362 C.3       3 GLC5        0.0000 
     79 CA         -4.8530  -18.6690   30.4850 C.3       9 GLL5        0.0000 
     80 CA         -4.3108  -19.1410   27.8605 C.3       3 GLC5        0.0000 
     81 CA         -3.4000  -17.3940   29.0360 C.3       9 GLL5        0.0000 
     82 CA         -3.8788  -15.2570   29.2615 C.3       3 GLC5        0.0000 
     83 CA         -4.4890  -17.2000   28.1560 C.3       9 GLL5        0.0000 
     84 CA         -3.8130  -13.2170   29.9270 C.3       6 GLP5        0.0000 
     85 CA         -6.1780  -16.3425   27.3102 C.3       3 GLC5        0.0000 
     86 CA         -7.2320  -15.2150   26.3200 C.3       6 GLP5        0.0000 
     87 CA         -5.2645  -19.5525   28.0765 C.3       3 GLC5        0.0000 
     88 CA         -5.7590  -17.7400   28.4450 C.3       9 GLL5        0.0000 
     89 CA         -8.1457  -20.7948   30.1668 C.3       3 GLC5        0.0000 
     90 CA         -8.5000  -22.8540   30.4410 C.3       6 GLP5        0.0000 
     91 CA         -7.5467  -17.2903   30.7267 C.3       3 GLC5        0.0000 
     92 CA         -7.3020  -15.8450   31.5610 C.3       6 GLP5        0.0000 
@<TRIPOS>BOND
@<TRIPOS>SUBSTRUCTURE
     1 SEC2       45 GROUP        1 X    SEC  0     ROOT SEC X 2
     2 LYC4       56 GROUP        1 X    LYC  0     **** LYC X 4
     3 GLC5        1 GROUP        1 X    GLC  0     **** GLC X 6
     4 SEP2       47 GROUP        1 Y    SEP  0     ROOT SEP Y 9
     5 LYP4       58 GROUP        1 Y    LYP  0     **** LYP Y 11
     6 GLP5        3 GROUP        1 Y    GLP  0     **** GLP Y 13
     7 SEL2       46 GROUP        1 Z    SEL  0     ROOT SEL Z 16
     8 LYL4       57 GROUP        1 Z    LYL  0     **** LYL Z 18
     9 GLL5        2 GROUP        1 Z    GLL  0     **** GLL Z 20
@<TRIPOS>SET

