#    Name: 2p1t_3TN_1_ligand
#    Modification time : Mon Mar 24 18:09:46 2014

@<TRIPOS>MOLECULE
2p1t_3TN_1_ligand
   55    57     1     0     0
SMALL
NO_CHARGES


@<TRIPOS>ATOM
      1 CAA        -0.8760  -20.7740   29.3230 C.3       1 3TN201      0.0000 
      2 OAR        -1.1370  -19.3960   29.4770 O.3       1 3TN201      0.0000 
      3 CAV        -1.3130  -18.9710   30.7570 C.ar      1 3TN201      0.0000 
      4 CAN        -0.2810  -19.1520   31.6930 C.ar      1 3TN201      0.0000 
      5 CAY        -0.4080  -18.7100   33.0170 C.ar      1 3TN201      0.0000 
      6 CBA         0.7700  -18.9670   34.0000 C.3       1 3TN201      0.0000 
      7 CAB         0.8200  -20.4760   34.3520 C.3       1 3TN201      0.0000 
      8 CAC         2.1180  -18.5540   33.3860 C.3       1 3TN201      0.0000 
      9 CAP         0.5610  -18.1440   35.2780 C.3       1 3TN201      0.0000 
     10 CAQ        -0.8740  -18.2120   35.8140 C.3       1 3TN201      0.0000 
     11 CBB        -1.8800  -17.5720   34.8390 C.3       1 3TN201      0.0000 
     12 CAD        -1.7540  -16.0390   34.8490 C.3       1 3TN201      0.0000 
     13 CAE        -3.2850  -17.9690   35.2810 C.3       1 3TN201      0.0000 
     14 CAZ        -1.6210  -18.0830   33.4020 C.ar      1 3TN201      0.0000 
     15 CAO        -2.6530  -17.9120   32.4470 C.ar      1 3TN201      0.0000 
     16 CAX        -2.5160  -18.3440   31.1240 C.ar      1 3TN201      0.0000 
     17 CAW        -3.5750  -18.1440   30.2100 C.ar      1 3TN201      0.0000 
     18 CAM        -4.8530  -18.6690   30.4850 C.ar      1 3TN201      0.0000 
     19 CAU        -3.4000  -17.3940   29.0360 C.ar      1 3TN201      0.0000 
     20 OAH        -2.1630  -16.8550   28.7560 O.3       1 3TN201      0.0000 
     21 CAL        -4.4890  -17.2000   28.1560 C.ar      1 3TN201      0.0000 
     22 CAK        -5.7590  -17.7400   28.4450 C.ar      1 3TN201      0.0000 
     23 CAT        -5.9450  -18.5000   29.6110 C.ar      1 3TN201      0.0000 
     24 CAJ        -7.1760  -19.0410   30.0430 C.2       1 3TN201      0.0000 
     25 CAI        -8.4070  -18.4300   29.7420 C.2       1 3TN201      0.0000 
     26 CAS        -9.6610  -18.8650   30.1980 C.2       1 3TN201      0.0000 
     27 OAG       -10.6470  -18.2010   29.8190 O.co2     1 3TN201      0.0000 
     28 OAF        -9.7570  -19.8670   30.9550 O.co2     1 3TN201      0.0000 
     29 H           0.5916  -19.6222   31.3969 H         1 3TN201      0.0000 
     30 H           0.8162  -17.0961   35.0727 H         1 3TN201      0.0000 
     31 H           1.2490  -18.5076   36.0525 H         1 3TN201      0.0000 
     32 H          -0.9256  -17.6892   36.7702 H         1 3TN201      0.0000 
     33 H          -1.1492  -19.2557   35.9727 H         1 3TN201      0.0000 
     34 H          -3.5329  -17.4522   32.7451 H         1 3TN201      0.0000 
     35 H          -4.9959  -19.2017   31.3668 H         1 3TN201      0.0000 
     36 H          -4.3516  -16.6576   27.2939 H         1 3TN201      0.0000 
     37 H          -6.5395  -17.5774   27.8067 H         1 3TN201      0.0000 
     38 H          -7.1699  -19.9158   30.5992 H         1 3TN201      0.0000 
     39 H          -8.3841  -17.5706   29.1196 H         1 3TN201      0.0000 
     40 H          -0.7526  -21.0236   28.3625 H         1 3TN201      0.0000 
     41 H          -0.0459  -21.0511   29.8068 H         1 3TN201      0.0000 
     42 H          -1.6234  -21.3355   29.6780 H         1 3TN201      0.0000 
     43 H           0.9523  -21.0429   33.5389 H         1 3TN201      0.0000 
     44 H           1.5687  -20.6861   34.9807 H         1 3TN201      0.0000 
     45 H          -0.0251  -20.7835   34.7894 H         1 3TN201      0.0000 
     46 H           2.8785  -18.7202   34.0137 H         1 3TN201      0.0000 
     47 H           2.3146  -19.0608   32.5466 H         1 3TN201      0.0000 
     48 H           2.1376  -17.5818   33.1528 H         1 3TN201      0.0000 
     49 H          -0.8393  -15.7398   34.5773 H         1 3TN201      0.0000 
     50 H          -2.4019  -15.6090   34.2203 H         1 3TN201      0.0000 
     51 H          -1.9295  -15.6578   35.7567 H         1 3TN201      0.0000 
     52 H          -3.4111  -18.9610   35.2709 H         1 3TN201      0.0000 
     53 H          -3.4839  -17.6577   36.2103 H         1 3TN201      0.0000 
     54 H          -3.9862  -17.5783   34.6846 H         1 3TN201      0.0000 
     55 H          -1.5645  -17.6428   28.6104 H         1 3TN201      0.0000 
@<TRIPOS>BOND
     1    2    1 1    
     2   40    1 1    
     3   41    1 1    
     4   42    1 1    
     5    3    2 1    
     6    4    3 ar   
     7   16    3 ar   
     8    5    4 ar   
     9   29    4 1    
    10    6    5 1    
    11   14    5 ar   
    12    7    6 1    
    13    8    6 1    
    14    9    6 1    
    15   43    7 1    
    16   44    7 1    
    17   45    7 1    
    18   46    8 1    
    19   47    8 1    
    20   48    8 1    
    21   10    9 1    
    22   30    9 1    
    23   31    9 1    
    24   11   10 1    
    25   32   10 1    
    26   33   10 1    
    27   12   11 1    
    28   13   11 1    
    29   14   11 1    
    30   49   12 1    
    31   50   12 1    
    32   51   12 1    
    33   52   13 1    
    34   53   13 1    
    35   54   13 1    
    36   15   14 ar   
    37   16   15 ar   
    38   34   15 1    
    39   17   16 1    
    40   18   17 ar   
    41   19   17 ar   
    42   23   18 ar   
    43   35   18 1    
    44   20   19 1    
    45   21   19 ar   
    46   55   20 1    
    47   22   21 ar   
    48   36   21 1    
    49   23   22 ar   
    50   37   22 1    
    51   24   23 1    
    52   25   24 2    
    53   38   24 1    
    54   26   25 1    
    55   39   25 1    
    56   27   26 ar   
    57   28   26 ar   
@<TRIPOS>SUBSTRUCTURE
     1 3TN201      1 GROUP   
@<TRIPOS>SET

