#    Name: 2ivv_PP1_1_INTS_M
#    Modification time : Tue Mar 25 18:46:37 2014

@<TRIPOS>MOLECULE
2ivv_PP1_1_INTS_M
   65     0     9     0     0
SMALL
NO_CHARGES


@<TRIPOS>ATOM
      1 CA         23.1795   11.4335   10.3225 C.3       3 GLC5        0.0000 
      2 CA         23.5110   10.2960   12.0650 C.3       9 GLL5        0.0000 
      3 CA         22.8480   12.5710    8.5800 C.3       6 GLP5        0.0000 
      4 CA         23.0240    9.9110   13.9400 C.3       3 GLC5        0.0000 
      5 CA         22.5370    9.5260   15.8150 C.3       6 GLP5        0.0000 
      6 CA         25.1225   11.1925   13.3070 C.3       3 GLC5        0.0000 
      7 CA         26.7340   12.0890   14.5490 C.3       6 GLP5        0.0000 
      8 CA         24.7045    8.9120   12.8815 C.3       3 GLC5        0.0000 
      9 CA         25.8980    7.5280   13.6980 C.3       6 GLP5        0.0000 
     10 CA         22.5565    8.8775   13.6625 C.3       3 GLC5        0.0000 
     11 CA         22.5760    8.2290   11.5100 C.3       9 GLL5        0.0000 
     12 CA         23.2710    7.0815   12.7240 C.3       3 GLC5        0.0000 
     13 CA         23.9660    5.9340   13.9380 C.3       6 GLP5        0.0000 
     14 N          21.5745    9.8710   13.2685 N.am      2 SEC2        0.0000 
     15 N          22.4930    9.4270   12.0850 N.am      8 SEL2        0.0000 
     16 N          20.6560   10.3150   14.4520 N.am      5 SEP2        0.0000 
     17 O          20.2550    7.4285   12.2855 O.2       1 ALC1        0.0000 
     18 O          21.5160    7.4320   11.6050 O.2       7 ALL1        0.0000 
     19 O          18.9940    7.4250   12.9660 O.2       4 ALP1        0.0000 
     20 CA         22.1260    4.2330    6.6550 C.3       3 GLC5        0.0000 
     21 CA         21.8470    4.5790    8.4910 C.3       9 GLL5        0.0000 
     22 CA         22.4050    3.8870    4.8190 C.3       6 GLP5        0.0000 
     23 CA         21.3460    7.3665    9.0935 C.3       3 GLC5        0.0000 
     24 CA         22.5210    5.7030    8.9720 C.3       9 GLL5        0.0000 
     25 CA         20.1710    9.0300    9.2150 C.3       6 GLP5        0.0000 
     26 CA         22.0235    2.9550    6.5620 C.3       3 GLC5        0.0000 
     27 CA         21.6420    2.0230    8.3050 C.3       9 GLL5        0.0000 
     28 CA         22.2120    0.0005    8.0405 C.3       3 GLC5        0.0000 
     29 CA         22.7820   -2.0220    7.7760 C.3       6 GLP5        0.0000 
     30 CA         20.8100    0.4850    9.2845 C.3       3 GLC5        0.0000 
     31 CA         19.9780   -1.0530   10.2640 C.3       6 GLP5        0.0000 
     32 CA         20.8280    0.7540    6.8040 C.3       3 GLC5        0.0000 
     33 CA         20.0140   -0.5150    5.3030 C.3       6 GLP5        0.0000 
     34 CA         20.0185    2.4245    9.0265 C.3       3 GLC5        0.0000 
     35 CA         18.3950    2.8260    9.7480 C.3       6 GLP5        0.0000 
     36 CA         27.2465   10.7875   12.9040 C.3       3 GLC5        0.0000 
     37 CA         27.7590    9.4860   11.2590 C.3       9 GLL5        0.0000 
     38 CA         29.1345    9.2700   12.7085 C.3       3 GLC5        0.0000 
     39 CA         30.5100    9.0540   14.1580 C.3       6 GLP5        0.0000 
     40 CA         26.0390   11.3415    8.1515 C.3       3 GLC5        0.0000 
     41 CA         27.0660    9.9750    8.8940 C.3       9 GLL5        0.0000 
     42 CA         25.0120   12.7080    7.4090 C.3       6 GLP5        0.0000 
     43 CA         27.9465   10.4785    7.2070 C.3       3 GLC5        0.0000 
     44 CA         28.8270   10.9820    5.5200 C.3       6 GLP5        0.0000 
     45 CA         25.8795    9.1375    7.3990 C.3       3 GLC5        0.0000 
     46 CA         24.6930    8.3000    5.9040 C.3       6 GLP5        0.0000 
     47 CA         23.9503    8.6005    8.8315 C.3       3 GLC5        0.0000 
     48 CA         24.8170    8.8150   10.8530 C.3       9 GLL5        0.0000 
     49 CA         23.6050    8.8540    6.8130 C.3       6 GLP5        0.0000 
     50 CA         25.0968    7.9375   12.2740 C.3       3 GLC5        0.0000 
     51 CA         23.7740    7.8790   10.8470 C.3       9 GLL5        0.0000 
     52 CA         21.6730    8.5420   10.1967 C.3       3 GLC5        0.0000 
     53 CA         21.2383    5.3113    9.9500 C.3       3 GLC5        0.0000 
     54 CA         19.3810    4.9770   10.5300 C.3       6 GLP5        0.0000 
     55 CA         23.9477    5.4493   11.9178 C.3       3 GLC5        0.0000 
     56 CA         23.6700    5.5880    9.7680 C.3       9 GLL5        0.0000 
     57 CA         24.1034    3.2075    7.8188 C.3       3 GLC5        0.0000 
     58 CA         24.1890    4.3410   10.0270 C.3       9 GLL5        0.0000 
     59 CA         25.1030    2.8750    6.3350 C.3       6 GLP5        0.0000 
     60 CA         20.7410    4.4603    9.5885 C.3       3 GLC5        0.0000 
     61 CA         22.3550    3.3080    8.8030 C.3       9 GLL5        0.0000 
     62 CA         23.6956    5.9591    7.5468 C.3       3 GLC5        0.0000 
     63 CA         24.9200    6.8060    6.1630 C.3       6 GLP5        0.0000 
     64 CA         26.6890    8.3550   12.1523 C.3       3 GLC5        0.0000 
     65 CA         27.2010    8.8780    9.9540 C.3       9 GLL5        0.0000 
@<TRIPOS>BOND
@<TRIPOS>SUBSTRUCTURE
     1 ALC1       17 GROUP        1 X    ALC  0     ROOT ALC X 1
     2 SEC2       14 GROUP        1 X    SEC  0     **** SEC X 2
     3 GLC5        1 GROUP        1 X    GLC  0     **** GLC X 6
     4 ALP1       19 GROUP        1 Y    ALP  0     ROOT ALP Y 8
     5 SEP2       16 GROUP        1 Y    SEP  0     **** SEP Y 9
     6 GLP5        3 GROUP        1 Y    GLP  0     **** GLP Y 13
     7 ALL1       18 GROUP        1 Z    ALL  0     ROOT ALL Z 15
     8 SEL2       15 GROUP        1 Z    SEL  0     **** SEL Z 16
     9 GLL5        2 GROUP        1 Z    GLL  0     **** GLL Z 20
@<TRIPOS>SET

