#    Name: 2ivv_PP1_1_ligand
#    Modification time : Tue Mar 25 18:46:37 2014

@<TRIPOS>MOLECULE
2ivv_PP1_1_ligand
   40    42     1     0     0
SMALL
NO_CHARGES


@<TRIPOS>ATOM
      1 N1         25.8500    8.2390   10.2090 N.pl3     1 PP13014     0.0000 
      2 C2         23.5110   10.2960   12.0650 C.ar      1 PP13014     0.0000 
      3 N3         24.6560   10.0170   11.4680 N.ar      1 PP13014     0.0000 
      4 C4         24.8170    8.8150   10.8530 C.ar      1 PP13014     0.0000 
      5 C5         23.7740    7.8790   10.8470 C.ar      1 PP13014     0.0000 
      6 C6         22.5760    8.2290   11.5100 C.ar      1 PP13014     0.0000 
      7 N7         22.4930    9.4270   12.0850 N.ar      1 PP13014     0.0000 
      8 N8         25.5550    7.1110    9.7820 N.2       1 PP13014     0.0000 
      9 C9         24.3090    6.7800   10.1440 C.2       1 PP13014     0.0000 
     10 N10        21.5160    7.4320   11.6050 N.pl3     1 PP13014     0.0000 
     11 C11        23.6700    5.5880    9.7680 C.ar      1 PP13014     0.0000 
     12 C12        24.1890    4.3410   10.0270 C.ar      1 PP13014     0.0000 
     13 C13        23.5160    3.2030    9.5770 C.ar      1 PP13014     0.0000 
     14 C14        22.3550    3.3080    8.8030 C.ar      1 PP13014     0.0000 
     15 C15        21.8470    4.5790    8.4910 C.ar      1 PP13014     0.0000 
     16 C16        22.5210    5.7030    8.9720 C.ar      1 PP13014     0.0000 
     17 C24        21.6420    2.0230    8.3050 C.3       1 PP13014     0.0000 
     18 C28        27.2010    8.8780    9.9540 C.3       1 PP13014     0.0000 
     19 C29        27.7590    9.4860   11.2590 C.3       1 PP13014     0.0000 
     20 C33        28.1610    7.7460    9.4820 C.3       1 PP13014     0.0000 
     21 C37        27.0660    9.9750    8.8940 C.3       1 PP13014     0.0000 
     22 H          23.3871   11.2346   12.5450 H         1 PP13014     0.0000 
     23 H          21.6214    6.5126   11.2260 H         1 PP13014     0.0000 
     24 H          20.7091    7.8238   12.0469 H         1 PP13014     0.0000 
     25 H          25.0685    4.2368   10.5492 H         1 PP13014     0.0000 
     26 H          23.8808    2.2666    9.8192 H         1 PP13014     0.0000 
     27 H          21.0081    4.6748    7.9280 H         1 PP13014     0.0000 
     28 H          22.1652    6.6483    8.7362 H         1 PP13014     0.0000 
     29 H          22.2399    1.4662    7.7284 H         1 PP13014     0.0000 
     30 H          21.3458    1.4444    9.0649 H         1 PP13014     0.0000 
     31 H          20.8283    2.2357    7.7641 H         1 PP13014     0.0000 
     32 H          28.6533    9.9107   11.1181 H         1 PP13014     0.0000 
     33 H          27.1543   10.1917   11.6282 H         1 PP13014     0.0000 
     34 H          27.8721    8.7943   11.9723 H         1 PP13014     0.0000 
     35 H          29.0790    8.0933    9.2906 H         1 PP13014     0.0000 
     36 H          28.2570    7.0287   10.1721 H         1 PP13014     0.0000 
     37 H          27.8337    7.3062    8.6457 H         1 PP13014     0.0000 
     38 H          27.9430   10.4149    8.7010 H         1 PP13014     0.0000 
     39 H          26.7224    9.6136    8.0272 H         1 PP13014     0.0000 
     40 H          26.4343   10.6945    9.1826 H         1 PP13014     0.0000 
@<TRIPOS>BOND
     1    4    1 1    
     2    8    1 1    
     3   18    1 1    
     4    3    2 ar   
     5    7    2 ar   
     6   22    2 1    
     7    4    3 ar   
     8    5    4 ar   
     9    6    5 ar   
    10    9    5 1    
    11    7    6 ar   
    12   10    6 1    
    13    9    8 2    
    14   11    9 1    
    15   23   10 1    
    16   24   10 1    
    17   12   11 ar   
    18   16   11 ar   
    19   13   12 ar   
    20   25   12 1    
    21   14   13 ar   
    22   26   13 1    
    23   15   14 ar   
    24   17   14 1    
    25   16   15 ar   
    26   27   15 1    
    27   28   16 1    
    28   29   17 1    
    29   30   17 1    
    30   31   17 1    
    31   19   18 1    
    32   20   18 1    
    33   21   18 1    
    34   32   19 1    
    35   33   19 1    
    36   34   19 1    
    37   35   20 1    
    38   36   20 1    
    39   37   20 1    
    40   38   21 1    
    41   39   21 1    
    42   40   21 1    
@<TRIPOS>SUBSTRUCTURE
     1 PP13014     1 GROUP   
@<TRIPOS>SET

