#    Name: 1vrw_NAD_2_INTS_M
#    Modification time : Tue Mar 25 08:15:00 2014

@<TRIPOS>MOLECULE
1vrw_NAD_2_INTS_M
   87     0     9     0     0
SMALL
NO_CHARGES


@<TRIPOS>ATOM
      1 N           6.9820  100.3755   29.8620 N.am      2 SEC2        0.0000 
      2 N           7.4600  100.9820   31.1550 N.am      8 SEL2        0.0000 
      3 N           6.5040   99.7690   28.5690 N.am      5 SEP2        0.0000 
      4 CA          9.5200  104.9525   34.7585 C.3       3 GLC5        0.0000 
      5 CA          8.6770  104.2740   33.0870 C.3       9 GLL5        0.0000 
      6 CA         10.3630  105.6310   36.4300 C.3       6 GLP5        0.0000 
      7 CA          5.1520  106.8815   32.2545 C.3       3 GLC5        0.0000 
      8 CA          6.5680  105.4700   32.8010 C.3       9 GLL5        0.0000 
      9 CA          3.7360  108.2930   31.7080 C.3       6 GLP5        0.0000 
     10 CA          9.0705  106.0335   34.7040 C.3       3 GLC5        0.0000 
     11 CA          7.7780  106.4360   32.9780 C.3       9 GLL5        0.0000 
     12 CA          6.2900  107.7100   33.8745 C.3       3 GLC5        0.0000 
     13 CA          4.8020  108.9840   34.7710 C.3       6 GLP5        0.0000 
     14 CA          9.7810  106.7750   32.9105 C.3       3 GLC5        0.0000 
     15 CA         11.7840  107.1140   32.8430 C.3       6 GLP5        0.0000 
     16 CA         10.1205  109.5300   31.7135 C.3       3 GLC5        0.0000 
     17 CA          7.9330  109.8080   31.7120 C.3       9 GLL5        0.0000 
     18 CA         12.3080  109.2520   31.7150 C.3       6 GLP5        0.0000 
     19 CA          7.7960  112.6335   33.7005 C.3       3 GLC5        0.0000 
     20 CA          8.1370  111.1280   32.1070 C.3       9 GLL5        0.0000 
     21 CA          7.4550  114.1390   35.2940 C.3       6 GLP5        0.0000 
     22 CA          9.8885  111.9560   32.7420 C.3       3 GLC5        0.0000 
     23 CA         11.6400  112.7840   33.3770 C.3       6 GLP5        0.0000 
     24 O           7.6440  113.4120   31.9180 O.2       1 ALC1        0.0000 
     25 O           8.0640  112.1540   31.2720 O.2       7 ALL1        0.0000 
     26 O           7.2240  114.6700   32.5640 O.2       4 ALP1        0.0000 
     27 N           9.0040  112.5735   33.8305 N.am      2 SEC2        0.0000 
     28 N           8.4080  111.3690   33.4180 N.am      8 SEL2        0.0000 
     29 N           9.6000  113.7780   34.2430 N.am      5 SEP2        0.0000 
     30 CA          6.6655  109.6565   34.5240 C.3       3 GLC5        0.0000 
     31 CA          8.5290  110.3290   34.2770 C.3       9 GLL5        0.0000 
     32 CA          7.9920  112.2340   34.7855 C.3       3 GLC5        0.0000 
     33 CA         10.0845  111.5565   33.8270 C.3       3 GLC5        0.0000 
     34 CA         10.3975  109.7390   34.2440 C.3       3 GLC5        0.0000 
     35 CA         12.2660  109.1490   34.2110 C.3       6 GLP5        0.0000 
     36 CA          9.8950  107.9665   32.7745 C.3       3 GLC5        0.0000 
     37 CA          8.0060  108.8190   32.7060 C.3       9 GLL5        0.0000 
     38 N           9.2545   98.6395   30.4390 N.am      2 SEC2        0.0000 
     39 N           9.5200  100.0460   31.2560 N.am      8 SEL2        0.0000 
     40 N           8.9890   97.2330   29.6220 N.am      5 SEP2        0.0000 
     41 N          11.3355   98.0295   33.9235 N.am      2 SEC2        0.0000 
     42 N          11.0660   98.7280   32.7530 N.am      8 SEL2        0.0000 
     43 N          11.6050   97.3310   35.0940 N.am      5 SEP2        0.0000 
     44 N          10.0690   97.9580   29.9050 N.am      2 SEC2        0.0000 
     45 N          11.1490   98.6830   30.1880 N.am      8 SEL2        0.0000 
     46 CA         15.9075  101.3190   31.7905 C.3       3 GLC5        0.0000 
     47 CA         14.0450  101.5920   31.4230 C.3       9 GLL5        0.0000 
     48 CA         17.7700  101.0460   32.1580 C.3       6 GLP5        0.0000 
     49 CA         13.1580  104.1525   31.2180 C.3       3 GLC5        0.0000 
     50 CA         13.8370  102.4360   30.1590 C.3       9 GLL5        0.0000 
     51 CA         12.4790  105.8690   32.2770 C.3       6 GLP5        0.0000 
     52 N          15.7755  103.7295   29.0250 N.am      2 SEC2        0.0000 
     53 N          14.7800  103.4570   30.2080 N.am      8 SEL2        0.0000 
     54 N          16.7710  104.0020   27.8420 N.am      5 SEP2        0.0000 
     55 O          14.4210  104.9465   30.3775 O.2       1 ALC1        0.0000 
     56 O          14.7800  103.4570   30.2080 O.2       7 ALL1        0.0000 
     57 O          14.0620  106.4360   30.5470 O.2       4 ALP1        0.0000 
     58 CA         15.5345  102.4655   27.7690 C.3       3 GLC5        0.0000 
     59 CA         14.0890  101.4450   29.0720 C.3       9 GLL5        0.0000 
     60 CA         16.9800  103.4860   26.4660 C.3       6 GLP5        0.0000 
     61 N          15.6475  103.0380   27.8695 N.am      2 SEC2        0.0000 
     62 N          14.5240  102.0740   27.8970 N.am      8 SEL2        0.0000 
     63 CA         16.4590  100.8030   30.9225 C.3       3 GLC5        0.0000 
     64 CA         15.1480  100.5600   29.6870 C.3       9 GLL5        0.0000 
     65 N          12.9695   93.9365   27.7575 N.am      2 SEC2        0.0000 
     66 N          13.1360   95.2120   27.1790 N.am      8 SEL2        0.0000 
     67 N          12.8030   92.6610   28.3360 N.am      5 SEP2        0.0000 
     68 O          11.1735   95.1780   28.5285 O.2       1 ALC1        0.0000 
     69 O          11.9800   96.3870   28.6580 O.2       7 ALL1        0.0000 
     70 O          10.3670   93.9690   28.3990 O.2       4 ALP1        0.0000 
     71 CA         17.2075   99.9700   30.3885 C.3       3 GLC5        0.0000 
     72 CA         16.6450   98.8940   28.6190 C.3       9 GLL5        0.0000 
     73 CA         18.3525  100.1500   28.4350 C.3       3 GLC5        0.0000 
     74 CA         20.0600  101.4060   28.2510 C.3       6 GLP5        0.0000 
     75 CA         10.7540  104.8117   32.4795 C.3       3 GLC5        0.0000 
     76 CA          9.3810  103.2350   32.2770 C.3       9 GLL5        0.0000 
     77 CA          6.3857  109.1488   33.4900 C.3       3 GLC5        0.0000 
     78 CA         13.9357  102.7978   33.3757 C.3       3 GLC5        0.0000 
     79 CA         12.7000  101.3070   32.1240 C.3       9 GLL5        0.0000 
     80 CA         14.4990  104.1460   34.9780 C.3       6 GLP5        0.0000 
     81 CA         13.3040  103.4257   28.7432 C.3       3 GLC5        0.0000 
     82 CA         12.6450  104.9110   27.8710 C.3       6 GLP5        0.0000 
     83 CA         17.3338   98.4784   26.5541 C.3       3 GLC5        0.0000 
     84 CA         16.7620   97.5990   27.9810 C.3       9 GLL5        0.0000 
     85 CA         18.2660   98.8980   24.8590 C.3       6 GLP5        0.0000 
     86 CA         17.4237   96.8134   29.5601 C.3       3 GLC5        0.0000 
     87 CA         18.4460   95.5680   30.8710 C.3       6 GLP5        0.0000 
@<TRIPOS>BOND
@<TRIPOS>SUBSTRUCTURE
     1 ALC1       24 GROUP        1 X    ALC  0     ROOT ALC X 1
     2 SEC2        1 GROUP        1 X    SEC  0     **** SEC X 2
     3 GLC5        4 GROUP        1 X    GLC  0     **** GLC X 6
     4 ALP1       26 GROUP        1 Y    ALP  0     ROOT ALP Y 8
     5 SEP2        3 GROUP        1 Y    SEP  0     **** SEP Y 9
     6 GLP5        6 GROUP        1 Y    GLP  0     **** GLP Y 13
     7 ALL1       25 GROUP        1 Z    ALL  0     ROOT ALL Z 15
     8 SEL2        2 GROUP        1 Z    SEL  0     **** SEL Z 16
     9 GLL5        5 GROUP        1 Z    GLL  0     **** GLL Z 20
@<TRIPOS>SET

