#    Name: 1vrw_NAD_2_ligand
#    Modification time : Tue Mar 25 08:15:00 2014

@<TRIPOS>MOLECULE
1vrw_NAD_2_ligand
   70    74     1     0     0
SMALL
NO_CHARGES


@<TRIPOS>ATOM
      1 PA          8.4700  100.6130   32.2100 P.3       1 NAD550      0.0000 
      2 O1A         7.9890   99.8270   33.3860 O.co2     1 NAD550      0.0000 
      3 O2A         7.4600  100.9820   31.1550 O.co2     1 NAD550      0.0000 
      4 O5B         9.1570  101.9370   32.8660 O.3       1 NAD550      0.0000 
      5 C5B         9.3810  103.2350   32.2770 C.3       1 NAD550      0.0000 
      6 C4B         8.6770  104.2740   33.0870 C.3       1 NAD550      0.0000 
      7 O4B         8.9150  105.6420   32.6250 O.3       1 NAD550      0.0000 
      8 C3B         7.1550  104.0800   33.0730 C.3       1 NAD550      0.0000 
      9 O3B         6.8240  103.5570   34.3830 O.3       1 NAD550      0.0000 
     10 C2B         6.5680  105.4700   32.8010 C.3       1 NAD550      0.0000 
     11 O2B         5.4700  105.7010   33.6440 O.3       1 NAD550      0.0000 
     12 C1B         7.7780  106.4360   32.9780 C.3       1 NAD550      0.0000 
     13 N9A         7.7440  107.5990   32.0650 N.pl3     1 NAD550      0.0000 
     14 C8A         7.5440  107.9570   30.7490 C.2       1 NAD550      0.0000 
     15 N7A         7.6390  109.2450   30.4800 N.2       1 NAD550      0.0000 
     16 C5A         7.9330  109.8080   31.7120 C.ar      1 NAD550      0.0000 
     17 C6A         8.1370  111.1280   32.1070 C.ar      1 NAD550      0.0000 
     18 N6A         8.0640  112.1540   31.2720 N.pl3     1 NAD550      0.0000 
     19 N1A         8.4080  111.3690   33.4180 N.ar      1 NAD550      0.0000 
     20 C2A         8.5290  110.3290   34.2770 C.ar      1 NAD550      0.0000 
     21 N3A         8.2770  109.0380   34.0470 N.ar      1 NAD550      0.0000 
     22 C4A         8.0060  108.8190   32.7060 C.ar      1 NAD550      0.0000 
     23 O3          9.5200  100.0460   31.2560 O.3       1 NAD550      0.0000 
     24 PN         10.8860   99.4380   31.4440 P.3       1 NAD550      0.0000 
     25 O1N        11.0660   98.7280   32.7530 O.co2     1 NAD550      0.0000 
     26 O2N        11.1490   98.6830   30.1880 O.co2     1 NAD550      0.0000 
     27 O5D        11.8410  100.6950   31.1660 O.3       1 NAD550      0.0000 
     28 C5D        12.7000  101.3070   32.1240 C.3       1 NAD550      0.0000 
     29 C4D        14.0450  101.5920   31.4230 C.3       1 NAD550      0.0000 
     30 O4D        14.6870  100.3280   31.0210 O.3       1 NAD550      0.0000 
     31 C3D        13.8370  102.4360   30.1590 C.3       1 NAD550      0.0000 
     32 O3D        14.7800  103.4570   30.2080 O.3       1 NAD550      0.0000 
     33 C2D        14.0890  101.4450   29.0720 C.3       1 NAD550      0.0000 
     34 O2D        14.5240  102.0740   27.8970 O.3       1 NAD550      0.0000 
     35 C1D        15.1480  100.5600   29.6870 C.3       1 NAD550      0.0000 
     36 N1N        15.3790   99.2810   29.0020 N.pl3     1 NAD550      0.0000 
     37 C2N        14.2780   98.4070   28.8180 C.ar      1 NAD550      0.0000 
     38 C3N        14.2580   97.1840   28.1560 C.ar      1 NAD550      0.0000 
     39 C7N        13.1240   96.2710   27.9980 C.2       1 NAD550      0.0000 
     40 O7N        13.1360   95.2120   27.1790 O.2       1 NAD550      0.0000 
     41 N7N        11.9800   96.3870   28.6580 N.am      1 NAD550      0.0000 
     42 C4N        15.5540   96.8480   27.7780 C.ar      1 NAD550      0.0000 
     43 C5N        16.7620   97.5990   27.9810 C.ar      1 NAD550      0.0000 
     44 C6N        16.6450   98.8940   28.6190 C.ar      1 NAD550      0.0000 
     45 H           9.0013  103.2693   31.2494 H         1 NAD550      0.0000 
     46 H          10.4506  103.4725   32.2484 H         1 NAD550      0.0000 
     47 H           8.9871  104.1951   34.1338 H         1 NAD550      0.0000 
     48 H           6.9173  103.4236   32.2913 H         1 NAD550      0.0000 
     49 H           6.3117  105.4836   31.7447 H         1 NAD550      0.0000 
     50 H           7.8238  106.7297   33.9922 H         1 NAD550      0.0000 
     51 H           7.3374  107.2497   30.0504 H         1 NAD550      0.0000 
     52 H           8.2820  111.9594   30.3156 H         1 NAD550      0.0000 
     53 H           7.7975  113.0301   31.6737 H         1 NAD550      0.0000 
     54 H           8.8784  110.5867   35.2868 H         1 NAD550      0.0000 
     55 H          12.9032  100.6581   32.9703 H         1 NAD550      0.0000 
     56 H          12.3103  102.2550   32.4819 H         1 NAD550      0.0000 
     57 H          14.6793  102.1337   32.0947 H         1 NAD550      0.0000 
     58 H          12.8364  102.7441   30.1501 H         1 NAD550      0.0000 
     59 H          13.2032  100.8564   28.9502 H         1 NAD550      0.0000 
     60 H          16.0714  101.1377   29.7339 H         1 NAD550      0.0000 
     61 H          13.3441   98.7408   29.2485 H         1 NAD550      0.0000 
     62 H          11.2801   95.7041   28.4488 H         1 NAD550      0.0000 
     63 H          11.9206   97.1469   29.3053 H         1 NAD550      0.0000 
     64 H          15.6862   95.9061   27.2658 H         1 NAD550      0.0000 
     65 H          17.6462   97.2482   27.6966 H         1 NAD550      0.0000 
     66 H          17.4595   99.4521   28.7588 H         1 NAD550      0.0000 
     67 H           7.6754  103.6088   34.9049 H         1 NAD550      0.0000 
     68 H           5.4181  104.8915   34.2289 H         1 NAD550      0.0000 
     69 H          14.2481  104.2946   30.3328 H         1 NAD550      0.0000 
     70 H          15.2595  101.4924   27.5493 H         1 NAD550      0.0000 
@<TRIPOS>BOND
     1    2    1 ar   
     2    3    1 ar   
     3    4    1 1    
     4   23    1 1    
     5    5    4 1    
     6    6    5 1    
     7   45    5 1    
     8   46    5 1    
     9    7    6 1    
    10    8    6 1    
    11   47    6 1    
    12   12    7 1    
    13    9    8 1    
    14   10    8 1    
    15   48    8 1    
    16   67    9 1    
    17   11   10 1    
    18   12   10 1    
    19   49   10 1    
    20   68   11 1    
    21   13   12 1    
    22   50   12 1    
    23   14   13 1    
    24   22   13 1    
    25   15   14 2    
    26   51   14 1    
    27   16   15 1    
    28   17   16 ar   
    29   22   16 ar   
    30   18   17 1    
    31   19   17 ar   
    32   52   18 1    
    33   53   18 1    
    34   20   19 ar   
    35   21   20 ar   
    36   54   20 1    
    37   22   21 ar   
    38   24   23 1    
    39   25   24 ar   
    40   26   24 ar   
    41   27   24 1    
    42   28   27 1    
    43   29   28 1    
    44   55   28 1    
    45   56   28 1    
    46   30   29 1    
    47   31   29 1    
    48   57   29 1    
    49   35   30 1    
    50   32   31 1    
    51   33   31 1    
    52   58   31 1    
    53   69   32 1    
    54   34   33 1    
    55   35   33 1    
    56   59   33 1    
    57   70   34 1    
    58   36   35 1    
    59   60   35 1    
    60   37   36 ar   
    61   44   36 ar   
    62   38   37 ar   
    63   61   37 1    
    64   39   38 1    
    65   42   38 ar   
    66   40   39 2    
    67   41   39 am   
    68   62   41 1    
    69   63   41 1    
    70   43   42 ar   
    71   64   42 1    
    72   44   43 ar   
    73   65   43 1    
    74   66   44 1    
@<TRIPOS>SUBSTRUCTURE
     1 NAD550      1 GROUP   
@<TRIPOS>SET

