#    Name: 4iv6_FDA_1_INTS_M
#    Modification time : Tue Mar 25 04:40:15 2014

@<TRIPOS>MOLECULE
4iv6_FDA_1_INTS_M
  140     0    12     0     0
SMALL
NO_CHARGES


@<TRIPOS>ATOM
      1 NZ         51.5875   44.5180   27.1720 N.4       3 LYC4        0.0000 
      2 NZ         52.5440   44.4990   28.4970 N.4      11 LYL4        0.0000 
      3 NZ         51.2010   45.6840   25.5440 N.4       7 LYP4        0.0000 
      4 N          52.3185   45.3570   27.4350 N.am      2 SEC2        0.0000 
      5 N          52.5440   44.4990   28.4970 N.am     10 SEL2        0.0000 
      6 N          52.0930   46.2150   26.3730 N.am      6 SEP2        0.0000 
      7 N          51.5875   44.5180   27.1720 N.am      2 SEC2        0.0000 
      8 N          50.6310   44.5370   25.8470 N.am      6 SEP2        0.0000 
      9 N          49.6835   42.8170   30.8185 N.am      2 SEC2        0.0000 
     10 N          51.2390   43.5570   30.5910 N.am     10 SEL2        0.0000 
     11 N          48.1280   42.0770   31.0460 N.am      6 SEP2        0.0000 
     12 N          50.9170   42.7645   31.5875 N.am      2 SEC2        0.0000 
     13 N          50.5950   41.9720   32.5840 N.am      6 SEP2        0.0000 
     14 CA         55.5390   42.1165   29.2340 C.3       4 GLC5        0.0000 
     15 CA         55.0240   43.9910   30.0430 C.3      12 GLL5        0.0000 
     16 CA         56.0540   40.2420   28.4250 C.3       8 GLP5        0.0000 
     17 CA         57.0920   45.0305   32.8355 C.3       4 GLC5        0.0000 
     18 CA         56.0340   43.9330   31.1890 C.3      12 GLL5        0.0000 
     19 CA         58.1500   46.1280   34.4820 C.3       8 GLP5        0.0000 
     20 CA         56.0625   41.4060   30.1430 C.3       4 GLC5        0.0000 
     21 CA         56.0710   42.5700   31.8610 C.3      12 GLL5        0.0000 
     22 N          57.4640   40.6890   32.4010 N.am      2 SEC2        0.0000 
     23 N          57.3580   42.4120   32.4150 N.am     10 SEL2        0.0000 
     24 N          57.5700   38.9660   32.3870 N.am      6 SEP2        0.0000 
     25 O          58.1215   41.7120   31.5365 O.2       1 ALC1        0.0000 
     26 O          57.3580   42.4120   32.4150 O.2       9 ALL1        0.0000 
     27 O          58.8850   41.0120   30.6580 O.2       5 ALP1        0.0000 
     28 N          54.5185   40.7280   34.3405 N.am      2 SEC2        0.0000 
     29 N          55.2490   41.8330   34.0560 N.am     10 SEL2        0.0000 
     30 N          53.7880   39.6230   34.6250 N.am      6 SEP2        0.0000 
     31 O          56.2300   41.0250   34.4165 O.2       1 ALC1        0.0000 
     32 O          55.2490   41.8330   34.0560 O.2       9 ALL1        0.0000 
     33 O          57.2110   40.2170   34.7770 O.2       5 ALP1        0.0000 
     34 CA         56.7385   45.1450   33.9390 C.3       4 GLC5        0.0000 
     35 CA         55.3270   44.1620   33.3960 C.3      12 GLL5        0.0000 
     36 N          51.8150   46.8845   33.6560 N.am      2 SEC2        0.0000 
     37 N          52.2060   45.7020   34.3040 N.am     10 SEL2        0.0000 
     38 N          51.4240   48.0670   33.0080 N.am      6 SEP2        0.0000 
     39 CA         53.3630   47.6495   36.7110 C.3       4 GLC5        0.0000 
     40 CA         52.4890   46.1090   36.9010 C.3      12 GLL5        0.0000 
     41 CA         54.2370   49.1900   36.5210 C.3       8 GLP5        0.0000 
     42 N          52.9115   44.9125   39.0815 N.am      2 SEC2        0.0000 
     43 N          53.4290   45.9050   37.8580 N.am     10 SEL2        0.0000 
     44 N          52.3940   43.9200   40.3050 N.am      6 SEP2        0.0000 
     45 CA         55.4960   43.4015   37.3845 C.3       4 GLC5        0.0000 
     46 CA         54.6210   45.3410   37.5890 C.3      12 GLL5        0.0000 
     47 CA         56.3710   41.4620   37.1800 C.3       8 GLP5        0.0000 
     48 CA         55.0635   47.0760   37.3925 C.3       4 GLC5        0.0000 
     49 CA         55.5060   48.8110   37.1960 C.3       8 GLP5        0.0000 
     50 CA         56.3225   44.9635   38.3295 C.3       4 GLC5        0.0000 
     51 CA         58.0240   44.5860   39.0700 C.3       8 GLP5        0.0000 
     52 CA         56.1400   45.6045   34.9015 C.3       4 GLC5        0.0000 
     53 CA         54.1300   45.0810   35.3210 C.3      12 GLL5        0.0000 
     54 O          46.6125   36.1640   27.1030 O.2       1 ALC1        0.0000 
     55 O          46.6910   34.7710   26.8510 O.2       9 ALL1        0.0000 
     56 O          46.5340   37.5570   27.3550 O.2       5 ALP1        0.0000 
     57 N          43.0910   35.5635   27.0075 N.am      2 SEC2        0.0000 
     58 N          44.4770   35.1010   27.0470 N.am     10 SEL2        0.0000 
     59 N          41.7050   36.0260   26.9680 N.am      6 SEP2        0.0000 
     60 N          44.1460   36.5605   26.9235 N.am      2 SEC2        0.0000 
     61 N          43.8150   38.0200   26.8000 N.am      6 SEP2        0.0000 
     62 O          43.7770   32.6860   26.1030 O.2       1 ALC1        0.0000 
     63 O          45.1710   33.1060   26.2770 O.2       9 ALL1        0.0000 
     64 O          42.3830   32.2660   25.9290 O.2       5 ALP1        0.0000 
     65 N          46.0410   30.9410   24.0330 N.am      2 SEC2        0.0000 
     66 N          45.8320   31.1440   25.4850 N.am     10 SEL2        0.0000 
     67 N          46.2500   30.7380   22.5810 N.am      6 SEP2        0.0000 
     68 CA         46.4990   32.8115   24.0415 C.3       4 GLC5        0.0000 
     69 CA         47.5240   32.6310   26.0090 C.3      12 GLL5        0.0000 
     70 CA         45.4740   32.9920   22.0740 C.3       8 GLP5        0.0000 
     71 O          48.5990   30.6950   24.7365 O.2       1 ALC1        0.0000 
     72 O          48.5600   31.8480   25.6610 O.2       9 ALL1        0.0000 
     73 O          48.6380   29.5420   23.8120 O.2       5 ALP1        0.0000 
     74 CA         50.3510   31.5540   22.4465 C.3       4 GLC5        0.0000 
     75 CA         50.7310   31.7920   24.6150 C.3      12 GLL5        0.0000 
     76 CA         49.9710   31.3160   20.2780 C.3       8 GLP5        0.0000 
     77 CA         52.4490   33.1935   22.4145 C.3       4 GLC5        0.0000 
     78 CA         52.9700   31.6730   23.5120 C.3      12 GLL5        0.0000 
     79 CA         51.9280   34.7140   21.3170 C.3       8 GLP5        0.0000 
     80 CA         53.5025   31.0435   22.0195 C.3       4 GLC5        0.0000 
     81 CA         54.0350   30.4140   20.5270 C.3       8 GLP5        0.0000 
     82 CA         52.8980   29.8280   23.8245 C.3       4 GLC5        0.0000 
     83 CA         52.8260   27.9830   24.1370 C.3       8 GLP5        0.0000 
     84 CA         51.4705   31.4945   21.8950 C.3       4 GLC5        0.0000 
     85 CA         54.9825   31.7760   23.4920 C.3       4 GLC5        0.0000 
     86 CA         56.9950   31.8790   23.4720 C.3       8 GLP5        0.0000 
     87 CA         52.5925   35.1525   23.2890 C.3       4 GLC5        0.0000 
     88 CA         53.5240   34.3370   24.6750 C.3      12 GLL5        0.0000 
     89 CA         51.6610   35.9680   21.9030 C.3       8 GLP5        0.0000 
     90 CA         54.0070   36.1115   25.2735 C.3       4 GLC5        0.0000 
     91 CA         54.4900   37.8860   25.8720 C.3       8 GLP5        0.0000 
     92 CA         55.5040   34.3345   24.2980 C.3       4 GLC5        0.0000 
     93 CA         57.4840   34.3320   23.9210 C.3       8 GLP5        0.0000 
     94 CA         48.5345   34.8925   24.7990 C.3       4 GLC5        0.0000 
     95 CA         47.7510   33.9980   26.5280 C.3      12 GLL5        0.0000 
     96 CA         49.3180   35.7870   23.0700 C.3       8 GLP5        0.0000 
     97 CA         47.6970   37.0380   26.4885 C.3       4 GLC5        0.0000 
     98 CA         49.2500   35.8800   26.8340 C.3      12 GLL5        0.0000 
     99 CA         46.1440   38.1960   26.1430 C.3       8 GLP5        0.0000 
    100 CA         49.2840   35.8335   24.9520 C.3       4 GLC5        0.0000 
    101 CA         51.6825   34.9865   28.4030 C.3       4 GLC5        0.0000 
    102 CA         49.9900   36.0850   28.1380 C.3      12 GLL5        0.0000 
    103 CA         53.3750   33.8880   28.6680 C.3       8 GLP5        0.0000 
    104 N          49.8080   35.1190   30.7310 N.am      2 SEC2        0.0000 
    105 N          49.1910   35.6940   29.2630 N.am     10 SEL2        0.0000 
    106 N          50.4250   34.5440   32.1990 N.am      6 SEP2        0.0000 
    107 CA         48.8545   38.3230   26.9105 C.3       4 GLC5        0.0000 
    108 CA         50.4480   37.5470   28.1700 C.3      12 GLL5        0.0000 
    109 CA         47.2610   39.0990   25.6510 C.3       8 GLP5        0.0000 
    110 CA         50.6545   36.8120   31.3705 C.3       4 GLC5        0.0000 
    111 CA         50.7570   37.9800   29.5790 C.3      12 GLL5        0.0000 
    112 CA         50.5520   35.6440   33.1620 C.3       8 GLP5        0.0000 
    113 N          53.6705   39.8370   26.9635 N.am      2 SEC2        0.0000 
    114 N          52.6270   40.7380   27.0630 N.am     10 SEL2        0.0000 
    115 N          54.7140   38.9360   26.8640 N.am      6 SEP2        0.0000 
    116 N          49.2455   42.2110   27.9140 N.am      2 SEC2        0.0000 
    117 N          50.5450   42.1350   27.5430 N.am     10 SEL2        0.0000 
    118 N          47.9460   42.2870   28.2850 N.am      6 SEP2        0.0000 
    119 N          50.5880   43.3360   26.6950 N.am      2 SEC2        0.0000 
    120 CA         56.3265   45.6340   30.2810 C.3       4 GLC5        0.0000 
    121 CA         57.1240   47.3060   29.9460 C.3       8 GLP5        0.0000 
    122 CA         54.7442   40.8685   32.3608 C.3       4 GLC5        0.0000 
    123 CA         53.9210   39.0830   32.2950 C.3       8 GLP5        0.0000 
    124 CA         53.6435   47.1870   35.3415 C.3       4 GLC5        0.0000 
    125 CA         52.8280   45.7010   35.5270 C.3      12 GLL5        0.0000 
    126 CA         53.8080   48.9830   35.2590 C.3       8 GLP5        0.0000 
    127 CA         52.2616   44.0505   36.1238 C.3       4 GLC5        0.0000 
    128 CA         51.1290   42.6080   36.4800 C.3       8 GLP5        0.0000 
    129 CA         53.2241   31.2544   25.2890 C.3       4 GLC5        0.0000 
    130 CA         54.2930   30.6310   26.5780 C.3       8 GLP5        0.0000 
    131 CA         53.5842   32.3085   25.6773 C.3       4 GLC5        0.0000 
    132 CA         52.2270   33.6350   24.8780 C.3      12 GLL5        0.0000 
    133 CA         53.1253   33.9370   26.7223 C.3       4 GLC5        0.0000 
    134 CA         52.0270   33.9425   27.2212 C.3       4 GLC5        0.0000 
    135 CA         50.0560   33.7150   25.8970 C.3      12 GLL5        0.0000 
    136 CA         49.3595   39.8242   29.2780 C.3       4 GLC5        0.0000 
    137 CA         47.5400   41.0350   28.9320 C.3       8 GLP5        0.0000 
    138 CA         52.5500   38.8482   30.9595 C.3       4 GLC5        0.0000 
    139 CA         50.3324   34.5642   24.1016 C.3       4 GLC5        0.0000 
    140 CA         51.3020   34.2790   25.6520 C.3      12 GLL5        0.0000 
@<TRIPOS>BOND
@<TRIPOS>SUBSTRUCTURE
     1 ALC1       25 GROUP        1 X    ALC  0     ROOT ALC X 1
     2 SEC2        4 GROUP        1 X    SEC  0     **** SEC X 2
     3 LYC4        1 GROUP        1 X    LYC  0     **** LYC X 4
     4 GLC5       14 GROUP        1 X    GLC  0     **** GLC X 6
     5 ALP1       27 GROUP        1 Y    ALP  0     ROOT ALP Y 8
     6 SEP2        6 GROUP        1 Y    SEP  0     **** SEP Y 9
     7 LYP4        3 GROUP        1 Y    LYP  0     **** LYP Y 11
     8 GLP5       16 GROUP        1 Y    GLP  0     **** GLP Y 13
     9 ALL1       26 GROUP        1 Z    ALL  0     ROOT ALL Z 15
    10 SEL2        5 GROUP        1 Z    SEL  0     **** SEL Z 16
    11 LYL4        2 GROUP        1 Z    LYL  0     **** LYL Z 18
    12 GLL5       15 GROUP        1 Z    GLL  0     **** GLL Z 20
@<TRIPOS>SET

