#    Name: 4iv6_FDA_1_ligand
#    Modification time : Tue Mar 25 04:40:16 2014

@<TRIPOS>MOLECULE
4iv6_FDA_1_ligand
   86    91     1     0     0
SMALL
NO_CHARGES


@<TRIPOS>ATOM
      1 PA         52.4250   43.5630   29.6550 P.3       1 FDA401      0.0000 
      2 O1A        52.5440   44.4990   28.4970 O.co2     1 FDA401      0.0000 
      3 O2A        51.2390   43.5570   30.5910 O.co2     1 FDA401      0.0000 
      4 O5B        53.7190   43.7290   30.5780 O.3       1 FDA401      0.0000 
      5 C5B        55.0240   43.9910   30.0430 C.3       1 FDA401      0.0000 
      6 C4B        56.0340   43.9330   31.1890 C.3       1 FDA401      0.0000 
      7 O4B        55.6220   44.8650   32.2020 O.3       1 FDA401      0.0000 
      8 C3B        56.0710   42.5700   31.8610 C.3       1 FDA401      0.0000 
      9 O3B        57.3580   42.4120   32.4150 O.3       1 FDA401      0.0000 
     10 C2B        55.0640   42.7380   32.9920 C.3       1 FDA401      0.0000 
     11 O2B        55.2490   41.8330   34.0560 O.3       1 FDA401      0.0000 
     12 C1B        55.3270   44.1620   33.3960 C.3       1 FDA401      0.0000 
     13 N9A        54.1700   44.7790   34.0200 N.pl3     1 FDA401      0.0000 
     14 C8A        53.0340   45.1440   33.4060 C.2       1 FDA401      0.0000 
     15 N7A        52.2060   45.7020   34.3040 N.2       1 FDA401      0.0000 
     16 C5A        52.8280   45.7010   35.5270 C.ar      1 FDA401      0.0000 
     17 C6A        52.4890   46.1090   36.9010 C.ar      1 FDA401      0.0000 
     18 N6A        51.2820   46.6770   37.1780 N.pl3     1 FDA401      0.0000 
     19 N1A        53.4290   45.9050   37.8580 N.ar      1 FDA401      0.0000 
     20 C2A        54.6210   45.3410   37.5890 C.ar      1 FDA401      0.0000 
     21 N3A        54.9910   44.9220   36.3530 N.ar      1 FDA401      0.0000 
     22 C4A        54.1300   45.0810   35.3210 C.ar      1 FDA401      0.0000 
     23 N1         46.6910   34.7710   26.8510 N.am      1 FDA401      0.0000 
     24 C2         45.4260   34.3390   26.7190 C.2       1 FDA401      0.0000 
     25 O2         44.4770   35.1010   27.0470 O.2       1 FDA401      0.0000 
     26 N3         45.1710   33.1060   26.2770 N.am      1 FDA401      0.0000 
     27 C4         46.1280   32.2510   25.9020 C.2       1 FDA401      0.0000 
     28 O4         45.8320   31.1440   25.4850 O.2       1 FDA401      0.0000 
     29 C4X        47.5240   32.6310   26.0090 C.2       1 FDA401      0.0000 
     30 N5         48.5600   31.8480   25.6610 N.pl3     1 FDA401      0.0000 
     31 C5X        49.7610   32.4420   25.3870 C.ar      1 FDA401      0.0000 
     32 C6         50.7310   31.7920   24.6150 C.ar      1 FDA401      0.0000 
     33 C7         51.9500   32.3730   24.3610 C.ar      1 FDA401      0.0000 
     34 C7M        52.9700   31.6730   23.5120 C.3       1 FDA401      0.0000 
     35 C8         52.2270   33.6350   24.8780 C.ar      1 FDA401      0.0000 
     36 C8M        53.5240   34.3370   24.6750 C.3       1 FDA401      0.0000 
     37 C9         51.3020   34.2790   25.6520 C.ar      1 FDA401      0.0000 
     38 C9A        50.0560   33.7150   25.8970 C.ar      1 FDA401      0.0000 
     39 N10        49.0850   34.4300   26.6710 N.pl3     1 FDA401      0.0000 
     40 C10        47.7510   33.9980   26.5280 C.2       1 FDA401      0.0000 
     41 C1'        49.2500   35.8800   26.8340 C.3       1 FDA401      0.0000 
     42 C2'        49.9900   36.0850   28.1380 C.3       1 FDA401      0.0000 
     43 O2'        49.1910   35.6940   29.2630 O.3       1 FDA401      0.0000 
     44 C3'        50.4480   37.5470   28.1700 C.3       1 FDA401      0.0000 
     45 O3'        51.6320   37.6830   27.3420 O.3       1 FDA401      0.0000 
     46 C4'        50.7570   37.9800   29.5790 C.3       1 FDA401      0.0000 
     47 O4'        49.5130   38.2580   30.1880 O.3       1 FDA401      0.0000 
     48 C5'        51.6010   39.2470   29.6690 C.3       1 FDA401      0.0000 
     49 O5'        51.0060   40.2260   28.8800 O.3       1 FDA401      0.0000 
     50 P          51.7000   41.3510   28.0390 P.3       1 FDA401      0.0000 
     51 O1P        52.6270   40.7380   27.0630 O.co2     1 FDA401      0.0000 
     52 O2P        50.5450   42.1350   27.5430 O.co2     1 FDA401      0.0000 
     53 O3P        52.5860   42.0670   29.1710 O.3       1 FDA401      0.0000 
     54 H          55.0847   44.9805   29.5911 H         1 FDA401      0.0000 
     55 H          55.3138   43.2474   29.3014 H         1 FDA401      0.0000 
     56 H          57.0038   44.1726   30.8243 H         1 FDA401      0.0000 
     57 H          55.7635   41.8459   31.2102 H         1 FDA401      0.0000 
     58 H          54.0858   42.7061   32.5499 H         1 FDA401      0.0000 
     59 H          56.1727   44.1786   34.0582 H         1 FDA401      0.0000 
     60 H          52.8403   45.0236   32.4597 H         1 FDA401      0.0000 
     61 H          50.6541   46.7747   36.4059 H         1 FDA401      0.0000 
     62 H          51.1302   46.9462   38.1291 H         1 FDA401      0.0000 
     63 H          55.3154   45.2147   38.3879 H         1 FDA401      0.0000 
     64 H          46.8663   35.7463   27.2190 H         1 FDA401      0.0000 
     65 H          44.1538   32.7857   26.2196 H         1 FDA401      0.0000 
     66 H          48.4627   30.8255   25.5992 H         1 FDA401      0.0000 
     67 H          50.5141   30.8511   24.2311 H         1 FDA401      0.0000 
     68 H          51.5250   35.2052   26.0680 H         1 FDA401      0.0000 
     69 H          48.2911   36.3724   26.8917 H         1 FDA401      0.0000 
     70 H          49.8360   36.2938   26.0273 H         1 FDA401      0.0000 
     71 H          50.9044   35.4720   28.0761 H         1 FDA401      0.0000 
     72 H          49.6471   38.1557   27.7809 H         1 FDA401      0.0000 
     73 H          51.2601   37.1857   30.0939 H         1 FDA401      0.0000 
     74 H          52.6126   38.9902   29.3358 H         1 FDA401      0.0000 
     75 H          51.6554   39.5290   30.7263 H         1 FDA401      0.0000 
     76 H          53.8062   32.2128   23.4153 H         1 FDA401      0.0000 
     77 H          53.2342   30.7904   23.9008 H         1 FDA401      0.0000 
     78 H          52.6270   31.4961   22.5895 H         1 FDA401      0.0000 
     79 H          54.2912   33.8147   25.0471 H         1 FDA401      0.0000 
     80 H          53.7160   34.4895   23.7055 H         1 FDA401      0.0000 
     81 H          53.5354   35.2323   25.1204 H         1 FDA401      0.0000 
     82 H          57.8772   41.9093   31.7238 H         1 FDA401      0.0000 
     83 H          56.1755   41.4768   33.9345 H         1 FDA401      0.0000 
     84 H          49.1135   36.5180   29.8242 H         1 FDA401      0.0000 
     85 H          51.8431   38.6604   27.3510 H         1 FDA401      0.0000 
     86 H          49.7276   38.4247   31.1504 H         1 FDA401      0.0000 
@<TRIPOS>BOND
     1    2    1 ar   
     2    3    1 ar   
     3    4    1 1    
     4   53    1 1    
     5    5    4 1    
     6    6    5 1    
     7   54    5 1    
     8   55    5 1    
     9    7    6 1    
    10    8    6 1    
    11   56    6 1    
    12   12    7 1    
    13    9    8 1    
    14   10    8 1    
    15   57    8 1    
    16   82    9 1    
    17   11   10 1    
    18   12   10 1    
    19   58   10 1    
    20   83   11 1    
    21   13   12 1    
    22   59   12 1    
    23   14   13 1    
    24   22   13 1    
    25   15   14 2    
    26   60   14 1    
    27   16   15 1    
    28   17   16 ar   
    29   22   16 ar   
    30   18   17 1    
    31   19   17 ar   
    32   61   18 1    
    33   62   18 1    
    34   20   19 ar   
    35   21   20 ar   
    36   63   20 1    
    37   22   21 ar   
    38   24   23 am   
    39   40   23 1    
    40   64   23 1    
    41   25   24 2    
    42   26   24 am   
    43   27   26 am   
    44   65   26 1    
    45   28   27 2    
    46   29   27 1    
    47   30   29 1    
    48   40   29 2    
    49   31   30 1    
    50   66   30 1    
    51   32   31 ar   
    52   38   31 ar   
    53   33   32 ar   
    54   67   32 1    
    55   34   33 1    
    56   35   33 ar   
    57   76   34 1    
    58   77   34 1    
    59   78   34 1    
    60   36   35 1    
    61   37   35 ar   
    62   79   36 1    
    63   80   36 1    
    64   81   36 1    
    65   38   37 ar   
    66   68   37 1    
    67   39   38 1    
    68   40   39 1    
    69   41   39 1    
    70   42   41 1    
    71   69   41 1    
    72   70   41 1    
    73   43   42 1    
    74   44   42 1    
    75   71   42 1    
    76   84   43 1    
    77   45   44 1    
    78   46   44 1    
    79   72   44 1    
    80   85   45 1    
    81   47   46 1    
    82   48   46 1    
    83   73   46 1    
    84   86   47 1    
    85   49   48 1    
    86   74   48 1    
    87   75   48 1    
    88   50   49 1    
    89   51   50 ar   
    90   52   50 ar   
    91   53   50 1    
@<TRIPOS>SUBSTRUCTURE
     1 FDA401      1 GROUP   
@<TRIPOS>SET

