#    Name: 1dr2_TAP_1_INTS_M
#    Modification time : Mon Mar 24 22:22:11 2014

@<TRIPOS>MOLECULE
1dr2_TAP_1_INTS_M
  117     0    12     0     0
SMALL
NO_CHARGES


@<TRIPOS>ATOM
      1 N          20.2635    3.9445   16.7585 N.am      2 SEC2        0.0000 
      2 N          21.1330    3.9880   17.9620 N.am     10 SEL2        0.0000 
      3 N          19.3940    3.9010   15.5550 N.am      6 SEP2        0.0000 
      4 N          21.3515    7.6730   16.8200 N.am      2 SEC2        0.0000 
      5 N          21.2640    6.2910   17.0580 N.am     10 SEL2        0.0000 
      6 N          21.4390    9.0550   16.5820 N.am      6 SEP2        0.0000 
      7 N          20.8895    6.6860   15.8570 N.am      2 SEC2        0.0000 
      8 N          20.5150    7.0810   14.6560 N.am      6 SEP2        0.0000 
      9 N          20.3290    5.0960   16.3065 N.am      2 SEC2        0.0000 
     10 N          22.2600    7.4240   19.2755 N.am      2 SEC2        0.0000 
     11 N          22.2970    5.8560   19.3870 N.am     10 SEL2        0.0000 
     12 N          22.2230    8.9920   19.1640 N.am      6 SEP2        0.0000 
     13 CA         23.5955    6.7080   19.1400 C.3       4 GLC5        0.0000 
     14 CA         22.8830    5.0380   20.4340 C.3      12 GLL5        0.0000 
     15 CA         24.3080    8.3780   17.8460 C.3       8 GLP5        0.0000 
     16 CA         21.8730    7.4010   21.9115 C.3       4 GLC5        0.0000 
     17 CA         22.4260    5.5700   21.7830 C.3      12 GLL5        0.0000 
     18 CA         21.3200    9.2320   22.0400 C.3       8 GLP5        0.0000 
     19 N          20.5525    6.8630   21.1170 N.am      2 SEC2        0.0000 
     20 N          21.2520    5.6240   21.7670 N.am     10 SEL2        0.0000 
     21 N          19.8530    8.1020   20.4670 N.am      6 SEP2        0.0000 
     22 CA         19.5470    5.8150   21.1525 C.3       4 GLC5        0.0000 
     23 CA         20.5850    5.1510   22.9620 C.3      12 GLL5        0.0000 
     24 CA         18.5090    6.4790   19.3430 C.3       8 GLP5        0.0000 
     25 CA         20.9525    7.1915   22.5010 C.3       4 GLC5        0.0000 
     26 CA         19.8925    0.9155   21.5985 C.3       4 GLC5        0.0000 
     27 CA         18.6450    2.2110   22.9500 C.3      12 GLL5        0.0000 
     28 CA         21.1400   -0.3800   20.2470 C.3       8 GLP5        0.0000 
     29 CA         18.1405    2.4675   20.9275 C.3       4 GLC5        0.0000 
     30 CA         17.6360    2.7240   18.9050 C.3       8 GLP5        0.0000 
     31 CA         16.6660    4.1610   24.1235 C.3       4 GLC5        0.0000 
     32 CA         17.7130    3.0500   25.3160 C.3      12 GLL5        0.0000 
     33 CA         15.6190    5.2720   22.9310 C.3       8 GLP5        0.0000 
     34 CA         18.1690    5.0815   25.6200 C.3       4 GLC5        0.0000 
     35 CA         18.6250    7.1130   25.9240 C.3       8 GLP5        0.0000 
     36 CA         18.7805    2.9915   27.1700 C.3       4 GLC5        0.0000 
     37 CA         19.8480    2.9330   29.0240 C.3       8 GLP5        0.0000 
     38 CA         15.7635    2.3710   25.9280 C.3       4 GLC5        0.0000 
     39 CA         13.8140    1.6920   26.5400 C.3       8 GLP5        0.0000 
     40 CA         17.3235    4.3070   23.2225 C.3       4 GLC5        0.0000 
     41 CA         19.0280    3.3420   23.5140 C.3      12 GLL5        0.0000 
     42 CA         18.8265    5.2275   24.7190 C.3       4 GLC5        0.0000 
     43 N          22.6400    1.9150   15.6670 N.am      2 SEC2        0.0000 
     44 N          23.7980    2.8640   16.0710 N.am     10 SEL2        0.0000 
     45 N          21.4820    0.9660   15.2630 N.am      6 SEP2        0.0000 
     46 NZ         26.8735    5.8275   16.3305 N.4       3 LYC4        0.0000 
     47 NZ         25.5200    4.5240   16.1730 N.4      11 LYL4        0.0000 
     48 NZ         28.2270    7.1310   16.4880 N.4       7 LYP4        0.0000 
     49 CA         24.0540    7.3940   16.2015 C.3       4 GLC5        0.0000 
     50 CA         23.8000    6.4100   14.5570 C.3      12 GLL5        0.0000 
     51 CA         22.2260    7.8895   14.9635 C.3       4 GLC5        0.0000 
     52 CA         20.6520    9.3690   15.3700 C.3       8 GLP5        0.0000 
     53 CA         25.2895    4.3585   13.2185 C.3       4 GLC5        0.0000 
     54 CA         24.7740    6.2890   13.3700 C.3      12 GLL5        0.0000 
     55 CA         25.8050    2.4280   13.0670 C.3       8 GLP5        0.0000 
     56 CA         26.5335    8.8715   12.6560 C.3       4 GLC5        0.0000 
     57 CA         25.0040    7.6560   12.5500 C.3      12 GLL5        0.0000 
     58 CA         28.0630   10.0870   12.7620 C.3       8 GLP5        0.0000 
     59 N          27.4540    7.0150   12.0475 N.am      2 SEC2        0.0000 
     60 N          26.1260    7.4040   11.6300 N.am     10 SEL2        0.0000 
     61 N          28.7820    6.6260   12.4650 N.am      6 SEP2        0.0000 
     62 CA         23.4185    9.8350   12.3400 C.3       4 GLC5        0.0000 
     63 CA         23.6770    7.6990   11.7480 C.3      12 GLL5        0.0000 
     64 CA         23.1600   11.9710   12.9320 C.3       8 GLP5        0.0000 
     65 O          25.3750    8.2230    9.6975 O.2       1 ALC1        0.0000 
     66 O          23.9010    8.4580   10.5440 O.2       9 ALL1        0.0000 
     67 O          26.8490    7.9880    8.8510 O.2       5 ALP1        0.0000 
     68 CA         25.0440    5.5835   10.2000 C.3       4 GLC5        0.0000 
     69 CA         23.4950    6.2560   11.3520 C.3      12 GLL5        0.0000 
     70 CA         26.5930    4.9110    9.0480 C.3       8 GLP5        0.0000 
     71 CA         19.5305    2.8225    7.8820 C.3       4 GLC5        0.0000 
     72 CA         20.2010    4.8120    7.9280 C.3      12 GLL5        0.0000 
     73 CA         18.8600    0.8330    7.8360 C.3       8 GLP5        0.0000 
     74 CA         17.7030    3.3560    7.0880 C.3       4 GLC5        0.0000 
     75 CA         18.6950    4.9250    7.3320 C.3      12 GLL5        0.0000 
     76 CA         16.7110    1.7870    6.8440 C.3       8 GLP5        0.0000 
     77 CA         19.0185    4.2730    5.3480 C.3       4 GLC5        0.0000 
     78 CA         19.3420    3.6210    3.3640 C.3       8 GLP5        0.0000 
     79 O          21.0825    3.0920    6.2560 O.2       1 ALC1        0.0000 
     80 O          21.1350    4.2650    7.1800 O.2       9 ALL1        0.0000 
     81 O          21.0300    1.9190    5.3320 O.2       5 ALP1        0.0000 
     82 O          22.5245    4.4225    7.6975 O.2       1 ALC1        0.0000 
     83 O          23.9140    4.5800    8.2150 O.2       5 ALP1        0.0000 
     84 CA         18.6700    4.5335   12.8835 C.3       4 GLC5        0.0000 
     85 CA         19.7820    5.7410   11.6770 C.3      12 GLL5        0.0000 
     86 CA         17.5580    3.3260   14.0900 C.3       8 GLP5        0.0000 
     87 NZ         23.3560    8.6440   25.7170 N.4       3 LYC4        0.0000 
     88 NZ         22.4520    7.9720   26.2420 N.4      11 LYL4        0.0000 
     89 NZ         24.2600    9.3160   25.1920 N.4       7 LYP4        0.0000 
     90 N          23.3560    8.6440   25.7170 N.am      2 SEC2        0.0000 
     91 N          22.4520    7.9720   26.2420 N.am     10 SEL2        0.0000 
     92 N          24.2600    9.3160   25.1920 N.am      6 SEP2        0.0000 
     93 N          21.2920    8.4185   26.5040 N.am      2 SEC2        0.0000 
     94 N          20.1320    8.8650   26.7660 N.am      6 SEP2        0.0000 
     95 N          20.6730    5.7850   27.2755 N.am      2 SEC2        0.0000 
     96 N          21.8150    5.5920   26.7400 N.am     10 SEL2        0.0000 
     97 N          19.5310    5.9780   27.8110 N.am      6 SEP2        0.0000 
     98 N          21.3555    6.5860   28.0485 N.am      2 SEC2        0.0000 
     99 N          20.8960    7.5800   29.3570 N.am      6 SEP2        0.0000 
    100 NZ         24.1475    7.7050   25.4445 N.4       3 LYC4        0.0000 
    101 NZ         24.0350    6.0940   25.6970 N.4      11 LYL4        0.0000 
    102 N          24.1475    7.7050   25.4445 N.am      2 SEC2        0.0000 
    103 N          24.0350    6.0940   25.6970 N.am     10 SEL2        0.0000 
    104 CA         19.8900    6.0972   24.6840 C.3       4 GLC5        0.0000 
    105 CA         21.7250    5.0120   23.9260 C.3      12 GLL5        0.0000 
    106 CA         16.4145    2.5722   22.5177 C.3       4 GLC5        0.0000 
    107 CA         14.7160    3.3340   21.6800 C.3       8 GLP5        0.0000 
    108 CA         21.8346    3.4246    8.6829 C.3       4 GLC5        0.0000 
    109 CA         20.4350    5.2700    9.3030 C.3      12 GLL5        0.0000 
    110 CA         23.0350    1.7350    8.6690 C.3       8 GLP5        0.0000 
    111 CA         21.6916    6.3946    7.7444 C.3       4 GLC5        0.0000 
    112 CA         22.7490    7.6750    6.7920 C.3       8 GLP5        0.0000 
    113 CA         19.5973    7.2038   12.7980 C.3       4 GLC5        0.0000 
    114 CA         21.0670    6.0060   11.9210 C.3      12 GLL5        0.0000 
    115 CA         18.7700    8.5340   13.7970 C.3       8 GLP5        0.0000 
    116 CA         20.4078    4.4718   13.3780 C.3       4 GLC5        0.0000 
    117 CA         20.3910    3.0700   14.9570 C.3       8 GLP5        0.0000 
@<TRIPOS>BOND
@<TRIPOS>SUBSTRUCTURE
     1 ALC1       65 GROUP        1 X    ALC  0     ROOT ALC X 1
     2 SEC2        1 GROUP        1 X    SEC  0     **** SEC X 2
     3 LYC4       46 GROUP        1 X    LYC  0     **** LYC X 4
     4 GLC5       13 GROUP        1 X    GLC  0     **** GLC X 6
     5 ALP1       67 GROUP        1 Y    ALP  0     ROOT ALP Y 8
     6 SEP2        3 GROUP        1 Y    SEP  0     **** SEP Y 9
     7 LYP4       48 GROUP        1 Y    LYP  0     **** LYP Y 11
     8 GLP5       15 GROUP        1 Y    GLP  0     **** GLP Y 13
     9 ALL1       66 GROUP        1 Z    ALL  0     ROOT ALL Z 15
    10 SEL2        2 GROUP        1 Z    SEL  0     **** SEL Z 16
    11 LYL4       47 GROUP        1 Z    LYL  0     **** LYL Z 18
    12 GLL5       14 GROUP        1 Z    GLL  0     **** GLL Z 20
@<TRIPOS>SET

