#    Name: 1dr2_TAP_1_ligand
#    Modification time : Mon Mar 24 22:22:11 2014

@<TRIPOS>MOLECULE
1dr2_TAP_1_ligand
   73    77     1     0     0
SMALL
NO_CHARGES


@<TRIPOS>ATOM
      1 PA         21.9250    5.2270   17.9320 P.3       1 TAP191      0.0000 
      2 O1A        21.1330    3.9880   17.9620 O.co2     1 TAP191      0.0000 
      3 O2A        21.2640    6.2910   17.0580 O.co2     1 TAP191      0.0000 
      4 O5B        22.2970    5.8560   19.3870 O.3       1 TAP191      0.0000 
      5 C5B        22.8830    5.0380   20.4340 C.3       1 TAP191      0.0000 
      6 C4B        22.4260    5.5700   21.7830 C.3       1 TAP191      0.0000 
      7 O4B        21.2520    5.6240   21.7670 O.3       1 TAP191      0.0000 
      8 C3B        22.8490    4.6050   22.9390 C.3       1 TAP191      0.0000 
      9 O3B        24.1610    5.1080   23.4110 O.3       1 TAP191      0.0000 
     10 C2B        21.7250    5.0120   23.9260 C.3       1 TAP191      0.0000 
     11 O2B        21.9010    6.2810   24.4630 O.3       1 TAP191      0.0000 
     12 C1B        20.5850    5.1510   22.9620 C.3       1 TAP191      0.0000 
     13 N9A        19.8900    3.8730   22.7150 N.pl3     1 TAP191      0.0000 
     14 C8A        20.0970    3.1090   21.6270 C.2       1 TAP191      0.0000 
     15 N7A        19.3320    2.0350   21.6810 N.2       1 TAP191      0.0000 
     16 C5A        18.6450    2.2110   22.9500 C.ar      1 TAP191      0.0000 
     17 C6A        17.5810    1.4100   23.7610 C.ar      1 TAP191      0.0000 
     18 N6A        17.0560    0.2380   23.3170 N.pl3     1 TAP191      0.0000 
     19 N1A        17.1550    1.8780   24.9510 N.ar      1 TAP191      0.0000 
     20 C2A        17.7130    3.0500   25.3160 C.ar      1 TAP191      0.0000 
     21 N3A        18.5950    3.8440   24.6980 N.ar      1 TAP191      0.0000 
     22 C4A        19.0280    3.3420   23.5140 C.ar      1 TAP191      0.0000 
     23 O3         23.3530    5.0440   17.3340 O.3       1 TAP191      0.0000 
     24 PN         24.0930    4.2680   16.1760 P.3       1 TAP191      0.0000 
     25 O1N        23.7980    2.8640   16.0710 O.co2     1 TAP191      0.0000 
     26 O2N        25.5200    4.5240   16.1730 O.co2     1 TAP191      0.0000 
     27 O5D        23.4530    5.0250   14.8730 O.3       1 TAP191      0.0000 
     28 C5D        23.8000    6.4100   14.5570 C.3       1 TAP191      0.0000 
     29 C4D        24.7740    6.2890   13.3700 C.3       1 TAP191      0.0000 
     30 O4D        24.0630    5.4580   12.4110 O.3       1 TAP191      0.0000 
     31 C3D        25.0040    7.6560   12.5500 C.3       1 TAP191      0.0000 
     32 O3D        26.1260    7.4040   11.6300 O.3       1 TAP191      0.0000 
     33 C2D        23.6770    7.6990   11.7480 C.3       1 TAP191      0.0000 
     34 O2D        23.9010    8.4580   10.5440 O.3       1 TAP191      0.0000 
     35 C1D        23.4950    6.2560   11.3520 C.3       1 TAP191      0.0000 
     36 N1N        22.0620    5.9620   10.9170 N.pl3     1 TAP191      0.0000 
     37 C2N        21.7000    5.5630    9.6280 C.ar      1 TAP191      0.0000 
     38 C3N        20.4350    5.2700    9.3030 C.ar      1 TAP191      0.0000 
     39 C7N        20.2010    4.8120    7.9280 C.2       1 TAP191      0.0000 
     40 S7N        18.6950    4.9250    7.3320 S.2       1 TAP191      0.0000 
     41 N7N        21.1350    4.2650    7.1800 N.am      1 TAP191      0.0000 
     42 C4N        19.2580    5.3190   10.3190 C.ar      1 TAP191      0.0000 
     43 C5N        19.7820    5.7410   11.6770 C.ar      1 TAP191      0.0000 
     44 C6N        21.0670    6.0060   11.9210 C.ar      1 TAP191      0.0000 
     45 P2B        22.6120    6.5100   25.8650 P.3       1 TAP191      0.0000 
     46 O1X        22.4520    7.9720   26.2420 O.co2     1 TAP191      0.0000 
     47 O2X        21.8150    5.5920   26.7400 O.co2     1 TAP191      0.0000 
     48 O3X        24.0350    6.0940   25.6970 O.co2     1 TAP191      0.0000 
     49 H          23.9715    5.0751   20.4000 H         1 TAP191      0.0000 
     50 H          22.5642    3.9996   20.3474 H         1 TAP191      0.0000 
     51 H          22.9768    6.4938   21.9592 H         1 TAP191      0.0000 
     52 H          22.7798    3.6734   22.6527 H         1 TAP191      0.0000 
     53 H          21.5334    4.2421   24.5714 H         1 TAP191      0.0000 
     54 H          19.9214    5.9005   23.3265 H         1 TAP191      0.0000 
     55 H          20.7270    3.3305   20.9077 H         1 TAP191      0.0000 
     56 H          16.4126   -0.2171   23.9325 H         1 TAP191      0.0000 
     57 H          17.3594   -0.0659   22.4139 H         1 TAP191      0.0000 
     58 H          17.3740    3.4244   26.3207 H         1 TAP191      0.0000 
     59 H          24.3107    6.8828   15.3667 H         1 TAP191      0.0000 
     60 H          22.9467    6.9672   14.2388 H         1 TAP191      0.0000 
     61 H          25.6752    5.8862   13.6348 H         1 TAP191      0.0000 
     62 H          25.0848    8.4092   13.1847 H         1 TAP191      0.0000 
     63 H          22.9195    8.0205   12.3419 H         1 TAP191      0.0000 
     64 H          24.1456    6.1298   10.4358 H         1 TAP191      0.0000 
     65 H          22.4632    5.4985    8.9086 H         1 TAP191      0.0000 
     66 H          22.0225    4.1226    7.6183 H         1 TAP191      0.0000 
     67 H          20.8723    4.0415    6.2414 H         1 TAP191      0.0000 
     68 H          18.4041    5.1228   10.1110 H         1 TAP191      0.0000 
     69 H          19.0413    5.8065   12.4114 H         1 TAP191      0.0000 
     70 H          21.3874    6.2621   12.8916 H         1 TAP191      0.0000 
     71 H          23.9407    5.8426   24.0527 H         1 TAP191      0.0000 
     72 H          26.0627    6.4317   11.4050 H         1 TAP191      0.0000 
     73 H          24.8246    8.2113   10.2507 H         1 TAP191      0.0000 
@<TRIPOS>BOND
     1    2    1 ar   
     2    3    1 ar   
     3    4    1 1    
     4   23    1 1    
     5    5    4 1    
     6    6    5 1    
     7   49    5 1    
     8   50    5 1    
     9    7    6 1    
    10    8    6 1    
    11   51    6 1    
    12   12    7 1    
    13    9    8 1    
    14   10    8 1    
    15   52    8 1    
    16   71    9 1    
    17   11   10 1    
    18   12   10 1    
    19   53   10 1    
    20   45   11 1    
    21   13   12 1    
    22   54   12 1    
    23   14   13 1    
    24   22   13 1    
    25   15   14 2    
    26   55   14 1    
    27   16   15 1    
    28   17   16 ar   
    29   22   16 ar   
    30   18   17 1    
    31   19   17 ar   
    32   56   18 1    
    33   57   18 1    
    34   20   19 ar   
    35   21   20 ar   
    36   58   20 1    
    37   22   21 ar   
    38   24   23 1    
    39   25   24 ar   
    40   26   24 ar   
    41   27   24 1    
    42   28   27 1    
    43   29   28 1    
    44   59   28 1    
    45   60   28 1    
    46   30   29 1    
    47   31   29 1    
    48   61   29 1    
    49   35   30 1    
    50   32   31 1    
    51   33   31 1    
    52   62   31 1    
    53   72   32 1    
    54   34   33 1    
    55   35   33 1    
    56   63   33 1    
    57   73   34 1    
    58   36   35 1    
    59   64   35 1    
    60   37   36 ar   
    61   44   36 ar   
    62   38   37 ar   
    63   65   37 1    
    64   39   38 1    
    65   42   38 ar   
    66   40   39 2    
    67   41   39 am   
    68   66   41 1    
    69   67   41 1    
    70   43   42 ar   
    71   68   42 1    
    72   44   43 ar   
    73   69   43 1    
    74   70   44 1    
    75   46   45 ar   
    76   47   45 ar   
    77   48   45 ar   
@<TRIPOS>SUBSTRUCTURE
     1 TAP191      1 GROUP   
@<TRIPOS>SET

