#    Name: 1lkd_BP6_1_INTS_M
#    Modification time : Tue Mar 25 11:09:34 2014

@<TRIPOS>MOLECULE
1lkd_BP6_1_INTS_M
   42     0     9     0     0
SMALL
NO_CHARGES


@<TRIPOS>ATOM
      1 Zn         19.5760   23.3620   16.1355 Zn        2 ZIC7        0.0000 
      2 Zn         20.5990   23.2740   16.1860 Zn        8 ZIL7        0.0000 
      3 Zn         18.5530   23.4500   16.0850 Zn        5 ZIP7        0.0000 
      4 N          21.0580   23.5505   14.9575 N.am      1 SEC2        0.0000 
      5 N          20.5990   23.2740   16.1860 N.am      7 SEL2        0.0000 
      6 N          21.5170   23.8270   13.7290 N.am      4 SEP2        0.0000 
      7 Zn         18.7550   22.3385   15.9060 Zn        2 ZIC7        0.0000 
      8 Zn         18.9570   21.2270   15.7270 Zn        8 ZIL7        0.0000 
      9 N          18.1040   20.7790   17.0420 N.am      1 SEC2        0.0000 
     10 N          18.9570   21.2270   15.7270 N.am      7 SEL2        0.0000 
     11 N          17.2510   20.3310   18.3570 N.am      4 SEP2        0.0000 
     12 CA         20.7210   24.3275   19.7085 C.3       3 GLC5        0.0000 
     13 CA         22.0870   23.3850   19.3270 C.3       9 GLL5        0.0000 
     14 CA         19.3550   25.2700   20.0900 C.3       6 GLP5        0.0000 
     15 CA         23.9940   22.5675   19.2105 C.3       3 GLC5        0.0000 
     16 CA         25.9010   21.7500   19.0940 C.3       6 GLP5        0.0000 
     17 CA         21.4935   21.5745   19.4830 C.3       3 GLC5        0.0000 
     18 CA         20.9000   19.7640   19.6390 C.3       6 GLP5        0.0000 
     19 CA         20.6410   22.8240   20.8005 C.3       3 GLC5        0.0000 
     20 CA         19.1950   22.2630   22.2740 C.3       6 GLP5        0.0000 
     21 CA         23.4475   21.9080   13.7110 C.3       3 GLC5        0.0000 
     22 CA         24.7260   22.7330   14.4020 C.3       9 GLL5        0.0000 
     23 CA         22.1690   21.0830   13.0200 C.3       6 GLP5        0.0000 
     24 CA         23.1290   23.8565   13.6945 C.3       3 GLC5        0.0000 
     25 CA         21.5320   24.9800   12.9870 C.3       6 GLP5        0.0000 
     26 CA         24.3308   21.4590   17.8560 C.3       3 GLC5        0.0000 
     27 CA         23.0080   20.5060   16.6500 C.3       9 GLL5        0.0000 
     28 CA         21.3992   18.5392   14.4567 C.3       3 GLC5        0.0000 
     29 CA         22.1470   19.3970   16.4010 C.3       9 GLL5        0.0000 
     30 CA         21.3370   17.5750   12.6690 C.3       6 GLP5        0.0000 
     31 CA         23.5422   18.5177   17.3687 C.3       3 GLC5        0.0000 
     32 CA         24.5070   17.0840   18.2120 C.3       6 GLP5        0.0000 
     33 CA         24.5222   19.8042   16.0252 C.3       3 GLC5        0.0000 
     34 CA         26.4670   19.6570   15.5250 C.3       6 GLP5        0.0000 
     35 CA         24.6037   22.5800   18.2752 C.3       3 GLC5        0.0000 
     36 CA         23.3830   23.0370   16.8490 C.3       9 GLL5        0.0000 
     37 CA         25.2030   23.4460   18.4808 C.3       3 GLC5        0.0000 
     38 CA         24.0220   24.9270   18.3340 C.3       9 GLL5        0.0000 
     39 CA         25.3350   22.9075   17.5780 C.3       3 GLC5        0.0000 
     40 CA         25.1650   24.6370   16.1980 C.3       9 GLL5        0.0000 
     41 CA         25.5083   21.3850   15.3445 C.3       3 GLC5        0.0000 
     42 CA         24.3730   23.4930   15.9260 C.3       9 GLL5        0.0000 
@<TRIPOS>BOND
@<TRIPOS>SUBSTRUCTURE
     1 SEC2        4 GROUP        1 X    SEC  0     ROOT SEC X 2
     2 ZIC7        1 GROUP        1 X    ZIC  0     **** ZIC X 5
     3 GLC5       12 GROUP        1 X    GLC  0     **** GLC X 6
     4 SEP2        6 GROUP        1 Y    SEP  0     ROOT SEP Y 9
     5 ZIP7        3 GROUP        1 Y    ZIP  0     **** ZIP Y 12
     6 GLP5       14 GROUP        1 Y    GLP  0     **** GLP Y 13
     7 SEL2        5 GROUP        1 Z    SEL  0     ROOT SEL Z 16
     8 ZIL7        2 GROUP        1 Z    ZIL  0     **** ZIL Z 19
     9 GLL5       13 GROUP        1 Z    GLL  0     **** GLL Z 20
@<TRIPOS>SET

