#    Name: 1lkd_BP6_1_ligand
#    Modification time : Tue Mar 25 11:09:34 2014

@<TRIPOS>MOLECULE
1lkd_BP6_1_ligand
   22    23     1     0     0
SMALL
NO_CHARGES


@<TRIPOS>ATOM
      1 CA1        22.5130   21.8300   16.5860 C.ar      1 BP6300      0.0000 
      2 CA2        21.1540   22.0200   16.2690 C.ar      1 BP6300      0.0000 
      3 OA2        20.5990   23.2740   16.1860 O.3       1 BP6300      0.0000 
      4 CA3        20.2850   20.9350   16.0240 C.ar      1 BP6300      0.0000 
      5 OA3        18.9570   21.2270   15.7270 O.3       1 BP6300      0.0000 
      6 CA4        20.7760   19.6100   16.0880 C.ar      1 BP6300      0.0000 
      7 CA5        22.1470   19.3970   16.4010 C.ar      1 BP6300      0.0000 
      8 CA6        23.0080   20.5060   16.6500 C.ar      1 BP6300      0.0000 
      9 CB1        23.3830   23.0370   16.8490 C.ar      1 BP6300      0.0000 
     10 CB2        23.2300   23.7830   18.0640 C.ar      1 BP6300      0.0000 
     11 CB3        24.0220   24.9270   18.3340 C.ar      1 BP6300      0.0000 
     12 CB4        24.9880   25.3570   17.4010 C.ar      1 BP6300      0.0000 
     13 CB5        25.1650   24.6370   16.1980 C.ar      1 BP6300      0.0000 
     14 CB6        24.3730   23.4930   15.9260 C.ar      1 BP6300      0.0000 
     15 CL1        22.0870   23.3850   19.3270 Cl        1 BP6300      0.0000 
     16 CL2        24.7260   22.7330   14.4020 Cl        1 BP6300      0.0000 
     17 H          20.1640   18.8231   15.9143 H         1 BP6300      0.0000 
     18 H          22.5170   18.4487   16.4479 H         1 BP6300      0.0000 
     19 H          23.9908   20.3380   16.8764 H         1 BP6300      0.0000 
     20 H          23.8902   25.4395   19.2082 H         1 BP6300      0.0000 
     21 H          25.5551   26.1810   17.5917 H         1 BP6300      0.0000 
     22 H          25.8666   24.9407   15.5196 H         1 BP6300      0.0000 
@<TRIPOS>BOND
     1    2    1 ar   
     2    8    1 ar   
     3    9    1 1    
     4    3    2 1    
     5    4    2 ar   
     6    5    4 1    
     7    6    4 ar   
     8    7    6 ar   
     9   17    6 1    
    10    8    7 ar   
    11   18    7 1    
    12   19    8 1    
    13   10    9 ar   
    14   14    9 ar   
    15   11   10 ar   
    16   15   10 1    
    17   12   11 ar   
    18   20   11 1    
    19   13   12 ar   
    20   21   12 1    
    21   14   13 ar   
    22   22   13 1    
    23   16   14 1    
@<TRIPOS>SUBSTRUCTURE
     1 BP6300      1 GROUP   
@<TRIPOS>SET

