#    Name: 2FYT_1_CAVITY_N1_ALL.mol2
#    Modification time : Mon Mar 10 13:30:43 2014

@<TRIPOS>MOLECULE
2FYT_1_CAVITY_N1_ALL.mol2
   68     0     6     0     0
SMALL
NO_CHARGES


@<TRIPOS>ATOM
      1 CA         -9.0813  -23.6941   20.1221 C.3       6 GLY6        0.0000 
      2 O          -9.6961  -25.3813   21.2515 O.2       2 ALA2        0.0000 
      3 N          -9.1793  -25.1677   19.8596 N.2       2 ALA2        0.0000 
      4 O          -8.6625  -24.9542   18.4678 O.2       2 ALA2        0.0000 
      5 CA         -9.7941  -26.8549   20.9890 C.3       6 GLY6        0.0000 
      6 N          -9.2773  -26.6413   19.5971 N.2       2 ALA2        0.0000 
      7 NZ        -10.3880  -22.0392   19.8909 N.2       4 LYS4        0.0000 
      8 O         -11.0028  -23.7263   21.0202 O.2       2 ALA2        0.0000 
      9 O         -10.4860  -23.5128   19.6284 O.2       2 ALA2        0.0000 
     10 CA         -9.9692  -23.2992   18.2365 C.3       6 GLY6        0.0000 
     11 N         -12.1344  -25.6271   23.5415 N.2       2 ALA2        0.0000 
     12 CA        -11.6176  -25.4135   22.1496 C.3       6 GLY6        0.0000 
     13 CA        -11.1008  -25.1999   20.7577 C.3       6 GLY6        0.0000 
     14 CA        -10.5840  -24.9864   19.3659 C.3       6 GLY6        0.0000 
     15 CA        -10.0672  -24.7728   17.9740 C.3       6 GLY6        0.0000 
     16 NZ        -12.2324  -27.1007   23.2790 N.2       4 LYS4        0.0000 
     17 NZ        -11.7156  -26.8871   21.8871 N.2       4 LYS4        0.0000 
     18 CA        -11.1988  -26.6735   20.4952 C.3       6 GLY6        0.0000 
     19 CA        -10.6820  -26.4600   19.1034 C.3       6 GLY6        0.0000 
     20 OD1       -13.6640  -19.7649   25.4896 O.3       3 ASP3        0.0000 
     21 OD1       -13.7620  -21.2384   25.2271 O.3       3 ASP3        0.0000 
     22 O         -12.8264  -22.2849   22.1808 O.2       2 ALA2        0.0000 
     23 O         -12.3096  -22.0714   20.7890 O.2       2 ALA2        0.0000 
     24 OG        -11.7927  -21.8578   19.3971 O.2       1 SER1        0.0000 
     25 N         -12.9244  -23.7585   21.9183 N.2       2 ALA2        0.0000 
     26 O         -12.4076  -23.5449   20.5265 O.2       2 ALA2        0.0000 
     27 OG        -11.8907  -23.3314   19.1346 O.2       1 SER1        0.0000 
     28 CA        -11.3739  -23.1178   17.7427 C.3       6 GLY6        0.0000 
     29 CZ        -14.0560  -25.6592   24.4396 C.ar      5 PHE5        0.0000 
     30 N         -13.5392  -25.4457   23.0477 N.2       2 ALA2        0.0000 
     31 CA        -13.0224  -25.2321   21.6558 C.3       6 GLY6        0.0000 
     32 CA        -12.5056  -25.0185   20.2640 C.3       6 GLY6        0.0000 
     33 CA        -11.9888  -24.8050   18.8721 C.3       6 GLY6        0.0000 
     34 CA        -11.4719  -24.5914   17.4802 C.3       6 GLY6        0.0000 
     35 CZ        -13.6372  -26.9193   22.7852 C.ar      5 PHE5        0.0000 
     36 CA        -13.1204  -26.7057   21.3933 C.3       6 GLY6        0.0000 
     37 CA        -12.6036  -26.4921   20.0015 C.3       6 GLY6        0.0000 
     38 CA        -13.2184  -28.1793   21.1308 C.3       6 GLY6        0.0000 
     39 OD1       -15.6835  -21.2706   26.1252 O.3       3 ASP3        0.0000 
     40 O         -15.1667  -21.0571   24.7333 O.2       2 ALA2        0.0000 
     41 CA        -15.7815  -22.7442   25.8627 C.3       6 GLY6        0.0000 
     42 N         -15.2647  -22.5307   24.4708 N.2       2 ALA2        0.0000 
     43 OD1       -14.7479  -22.3171   23.0789 O.3       3 ASP3        0.0000 
     44 O         -14.2311  -22.1035   21.6871 O.2       2 ALA2        0.0000 
     45 O         -13.7143  -21.8900   20.2952 O.2       2 ALA2        0.0000 
     46 CZ        -15.3627  -24.0043   24.2083 C.ar      5 PHE5        0.0000 
     47 N         -14.8459  -23.7907   22.8164 N.2       2 ALA2        0.0000 
     48 CA        -14.3291  -23.5771   21.4246 C.3       6 GLY6        0.0000 
     49 CA        -13.8123  -23.3636   20.0327 C.3       6 GLY6        0.0000 
     50 CA        -13.2955  -23.1500   18.6408 C.3       6 GLY6        0.0000 
     51 CZ        -14.9439  -25.2643   22.5539 C.ar      5 PHE5        0.0000 
     52 CA        -14.4271  -25.0507   21.1621 C.3       6 GLY6        0.0000 
     53 CA        -15.0419  -26.7379   22.2915 C.3       6 GLY6        0.0000 
     54 CA        -14.6231  -27.9979   20.6371 C.3       6 GLY6        0.0000 
     55 CA        -16.9903  -19.6157   25.8939 C.3       6 GLY6        0.0000 
     56 OD1       -17.6051  -21.3028   27.0233 O.3       3 ASP3        0.0000 
     57 CA        -17.0883  -21.0893   25.6314 C.3       6 GLY6        0.0000 
     58 O         -16.5715  -20.8757   24.2395 O.2       2 ALA2        0.0000 
     59 OG        -17.7031  -22.7764   26.7608 O.2       1 SER1        0.0000 
     60 CZ        -17.1863  -22.5629   25.3689 C.ar      5 PHE5        0.0000 
     61 NZ        -16.6695  -22.3493   23.9770 N.2       4 LYS4        0.0000 
     62 O         -16.1527  -22.1357   22.5852 O.2       2 ALA2        0.0000 
     63 CZ        -16.7675  -23.8229   23.7145 C.ar      5 PHE5        0.0000 
     64 NZ        -16.2507  -23.6093   22.3227 N.2       4 LYS4        0.0000 
     65 CA        -15.7339  -23.3958   20.9308 C.3       6 GLY6        0.0000 
     66 CA        -16.3487  -25.0829   22.0602 C.3       6 GLY6        0.0000 
     67 CA        -16.4467  -26.5565   21.7977 C.3       6 GLY6        0.0000 
     68 NZ        -18.5910  -22.3815   24.8752 N.2       4 LYS4        0.0000 
@<TRIPOS>BOND
@<TRIPOS>SUBSTRUCTURE
     1 SER1       24 GROUP   
     2 ALA2        2 GROUP   
     3 ASP3       20 GROUP   
     4 LYS4        7 GROUP   
     5 PHE5       29 GROUP   
     6 GLY6        1 GROUP   
@<TRIPOS>SET

