#    Name: 2fyt_SAH_1_INTS_M
#    Modification time : Tue Mar 25 13:14:40 2014

@<TRIPOS>MOLECULE
2fyt_SAH_1_INTS_M
   96     0    12     0     0
SMALL
NO_CHARGES


@<TRIPOS>ATOM
      1 O         -13.3240  -32.0790   19.4075 O.2       1 ALC1        0.0000 
      2 O         -14.0610  -33.2920   19.2410 O.2       9 ALL1        0.0000 
      3 O         -12.5870  -30.8660   19.5740 O.2       5 ALP1        0.0000 
      4 O         -13.1675  -34.3565   18.9065 O.2       1 ALC1        0.0000 
      5 O         -12.2740  -35.4210   18.5720 O.2       5 ALP1        0.0000 
      6 CA        -12.5195  -33.1340   20.0650 C.3       4 GLC5        0.0000 
      7 CA        -14.6320  -33.6690   20.5600 C.3      12 GLL5        0.0000 
      8 CA        -10.4070  -32.5990   19.5700 C.3       8 GLP5        0.0000 
      9 CA        -14.6725  -35.7510   20.3070 C.3       4 GLC5        0.0000 
     10 CA        -14.7130  -37.8330   20.0540 C.3       8 GLP5        0.0000 
     11 CA        -14.9830  -32.8765   23.5135 C.3       4 GLC5        0.0000 
     12 CA        -15.0550  -32.4850   21.4520 C.3      12 GLL5        0.0000 
     13 CA        -14.9110  -33.2680   25.5750 C.3       8 GLP5        0.0000 
     14 CA        -16.9560  -31.8135   19.0210 C.3       4 GLC5        0.0000 
     15 CA        -16.0810  -31.5360   20.8410 C.3      12 GLL5        0.0000 
     16 CA        -17.8310  -32.0910   17.2010 C.3       8 GLP5        0.0000 
     17 CA        -17.8450  -31.2090   22.5270 C.3       4 GLC5        0.0000 
     18 CA        -16.4740  -30.2470   22.0820 C.3      12 GLL5        0.0000 
     19 CA        -19.2160  -32.1710   22.9720 C.3       8 GLP5        0.0000 
     20 NZ        -17.7190  -34.6855   19.1790 N.4       3 LYC4        0.0000 
     21 NZ        -16.3230  -34.5180   19.1690 N.4      11 LYL4        0.0000 
     22 NZ        -19.7340  -35.7960   19.8810 N.4       7 LYP4        0.0000 
     23 N         -17.7190  -34.6855   19.1790 N.am      2 SEC2        0.0000 
     24 N         -16.3230  -34.5180   19.1690 N.am     10 SEL2        0.0000 
     25 N         -19.1150  -34.8530   19.1890 N.am      6 SEP2        0.0000 
     26 NZ        -17.7120  -35.0345   20.2115 N.4       3 LYC4        0.0000 
     27 NZ        -16.3090  -35.2160   21.2340 N.4      11 LYL4        0.0000 
     28 N         -17.7120  -35.0345   20.2115 N.am      2 SEC2        0.0000 
     29 N         -16.3090  -35.2160   21.2340 N.am     10 SEL2        0.0000 
     30 N         -17.6515  -35.9535   20.8845 N.am      2 SEC2        0.0000 
     31 N         -18.9940  -36.6910   20.5350 N.am      6 SEP2        0.0000 
     32 CA        -15.6380  -27.3710   20.1325 C.3       4 GLC5        0.0000 
     33 CA        -15.4810  -28.8980   21.3660 C.3      12 GLL5        0.0000 
     34 CA        -15.7950  -25.8440   18.8990 C.3       8 GLP5        0.0000 
     35 CA        -12.6520  -28.8560   20.5245 C.3       4 GLC5        0.0000 
     36 CA        -14.0490  -28.7920   21.8830 C.3      12 GLL5        0.0000 
     37 CA        -11.2550  -28.9200   19.1660 C.3       8 GLP5        0.0000 
     38 CA        -14.2420  -27.7890   20.0210 C.3       4 GLC5        0.0000 
     39 CA        -14.4350  -26.7860   18.1590 C.3       8 GLP5        0.0000 
     40 N         -13.6290  -30.7200   24.8335 N.am      2 SEC2        0.0000 
     41 N         -13.0140  -29.3690   23.9640 N.am     10 SEL2        0.0000 
     42 N         -14.2440  -32.0710   25.7030 N.am      6 SEP2        0.0000 
     43 O         -11.3905  -28.7410   23.9325 O.2       1 ALC1        0.0000 
     44 O         -13.0140  -29.3690   23.9640 O.2       9 ALL1        0.0000 
     45 O          -9.7670  -28.1130   23.9010 O.2       5 ALP1        0.0000 
     46 O         -11.8355  -29.5645   23.3380 O.2       1 ALC1        0.0000 
     47 O         -10.6570  -29.7600   22.7120 O.2       5 ALP1        0.0000 
     48 CA        -14.4145  -27.1840   24.7570 C.3       4 GLC5        0.0000 
     49 CA        -13.2230  -27.0230   23.3680 C.3      12 GLL5        0.0000 
     50 CA        -15.6060  -27.3450   26.1460 C.3       8 GLP5        0.0000 
     51 O         -11.0030  -27.5115   24.1285 O.2       1 ALC1        0.0000 
     52 O         -12.2390  -26.9100   24.3560 O.2       9 ALL1        0.0000 
     53 CA        -11.9035  -27.9640   20.5775 C.3       4 GLC5        0.0000 
     54 CA        -12.5520  -27.0080   21.9890 C.3      12 GLL5        0.0000 
     55 CA        -11.1015  -25.6040   22.9545 C.3       4 GLC5        0.0000 
     56 CA         -9.6510  -24.2000   23.9200 C.3       8 GLP5        0.0000 
     57 CA        -13.4935  -26.8970   20.0740 C.3       4 GLC5        0.0000 
     58 CA         -8.4605  -22.6995   19.9830 C.3       4 GLC5        0.0000 
     59 CA        -10.5230  -23.2170   19.6250 C.3      12 GLL5        0.0000 
     60 CA         -6.3980  -22.1820   20.3410 C.3       8 GLP5        0.0000 
     61 CA         -9.7070  -23.0210   17.6435 C.3       4 GLC5        0.0000 
     62 CA         -8.8910  -22.8250   15.6620 C.3       8 GLP5        0.0000 
     63 CA        -11.5505  -22.4835   17.8120 C.3       4 GLC5        0.0000 
     64 CA        -12.5780  -21.7500   15.9990 C.3       8 GLP5        0.0000 
     65 O          -9.7670  -21.0925   18.5320 O.2       1 ALC1        0.0000 
     66 O         -10.7440  -21.9910   19.0960 O.2       9 ALL1        0.0000 
     67 O          -8.7900  -20.1940   17.9680 O.2       5 ALP1        0.0000 
     68 O         -11.6675  -21.3545   18.0270 O.2       1 ALC1        0.0000 
     69 O         -12.5910  -20.7180   16.9580 O.2       5 ALP1        0.0000 
     70 N          -8.0630  -23.3710   18.8050 N.am      2 SEC2        0.0000 
     71 N          -9.2580  -23.7800   19.5430 N.am     10 SEL2        0.0000 
     72 N          -6.8680  -22.9620   18.0670 N.am      6 SEP2        0.0000 
     73 CA         -7.3015  -25.9625   19.1815 C.3       4 GLC5        0.0000 
     74 CA         -9.0030  -25.0240   20.0940 C.3      12 GLL5        0.0000 
     75 CA         -5.6000  -26.9010   18.2690 C.3       8 GLP5        0.0000 
     76 CA         -8.3185  -26.6485   20.9795 C.3       4 GLC5        0.0000 
     77 CA         -7.6340  -28.2730   21.8650 C.3       8 GLP5        0.0000 
     78 CA         -8.5710  -24.4495   21.9240 C.3       4 GLC5        0.0000 
     79 CA         -8.1390  -23.8750   23.7540 C.3       8 GLP5        0.0000 
     80 CA         -7.7005  -23.6030   20.2175 C.3       4 GLC5        0.0000 
     81 N          -8.8830  -25.9680   21.9040 N.am      2 SEC2        0.0000 
     82 N         -10.0330  -25.7340   20.7030 N.am     10 SEL2        0.0000 
     83 N          -7.7330  -26.2020   23.1050 N.am      6 SEP2        0.0000 
     84 CA        -11.2655  -27.0635   19.9725 C.3       4 GLC5        0.0000 
     85 CA        -11.2760  -25.2070   20.7790 C.3      12 GLL5        0.0000 
     86 CA        -12.8555  -25.9965   19.4690 C.3       4 GLC5        0.0000 
     87 CA        -13.2622  -33.0135   22.0975 C.3       4 GLC5        0.0000 
     88 CA        -11.6810  -32.9500   23.1890 C.3       8 GLP5        0.0000 
     89 CA        -16.7125  -32.5093   22.4672 C.3       4 GLC5        0.0000 
     90 CA        -17.8570  -33.0080   23.7880 C.3       8 GLP5        0.0000 
     91 CA        -16.7752  -28.8852   23.3575 C.3       4 GLC5        0.0000 
     92 CA        -17.5730  -28.1980   24.9910 C.3       8 GLP5        0.0000 
     93 CA        -15.1685  -28.5105   24.1545 C.3       4 GLC5        0.0000 
     94 CA        -13.8710  -28.4220   23.3470 C.3      12 GLL5        0.0000 
     95 CA        -16.3770  -28.4140   25.6940 C.3       8 GLP5        0.0000 
     96 CA        -10.4026  -24.2966   22.1410 C.3       4 GLC5        0.0000 
@<TRIPOS>BOND
@<TRIPOS>SUBSTRUCTURE
     1 ALC1        1 GROUP        1 X    ALC  0     ROOT ALC X 1
     2 SEC2       23 GROUP        1 X    SEC  0     **** SEC X 2
     3 LYC4       20 GROUP        1 X    LYC  0     **** LYC X 4
     4 GLC5        6 GROUP        1 X    GLC  0     **** GLC X 6
     5 ALP1        3 GROUP        1 Y    ALP  0     ROOT ALP Y 8
     6 SEP2       25 GROUP        1 Y    SEP  0     **** SEP Y 9
     7 LYP4       22 GROUP        1 Y    LYP  0     **** LYP Y 11
     8 GLP5        8 GROUP        1 Y    GLP  0     **** GLP Y 13
     9 ALL1        2 GROUP        1 Z    ALL  0     ROOT ALL Z 15
    10 SEL2       24 GROUP        1 Z    SEL  0     **** SEL Z 16
    11 LYL4       21 GROUP        1 Z    LYL  0     **** LYL Z 18
    12 GLL5        7 GROUP        1 Z    GLL  0     **** GLL Z 20
@<TRIPOS>SET

