#    Name: 2fyt_SAH_1_ligand
#    Modification time : Tue Mar 25 13:14:40 2014

@<TRIPOS>MOLECULE
2fyt_SAH_1_ligand
   46    48     1     0     0
SMALL
NO_CHARGES


@<TRIPOS>ATOM
      1 N         -14.0610  -33.2920   19.2410 N.4       1 SAH549      0.0000 
      2 CA        -14.6320  -33.6690   20.5600 C.3       1 SAH549      0.0000 
      3 CB        -15.0550  -32.4850   21.4520 C.3       1 SAH549      0.0000 
      4 CG        -16.0810  -31.5360   20.8410 C.3       1 SAH549      0.0000 
      5 SD        -16.4740  -30.2470   22.0820 S.3       1 SAH549      0.0000 
      6 C         -15.8390  -34.5190   20.3100 C.2       1 SAH549      0.0000 
      7 O         -16.3230  -34.5180   19.1690 O.co2     1 SAH549      0.0000 
      8 OXT       -16.3090  -35.2160   21.2340 O.co2     1 SAH549      0.0000 
      9 C5'       -15.4810  -28.8980   21.3660 C.3       1 SAH549      0.0000 
     10 C4'       -14.0490  -28.7920   21.8830 C.3       1 SAH549      0.0000 
     11 O4'       -13.4230  -27.7430   21.1740 O.3       1 SAH549      0.0000 
     12 C3'       -13.8710  -28.4220   23.3470 C.3       1 SAH549      0.0000 
     13 O3'       -13.0140  -29.3690   23.9640 O.3       1 SAH549      0.0000 
     14 C2'       -13.2230  -27.0230   23.3680 C.3       1 SAH549      0.0000 
     15 O2'       -12.2390  -26.9100   24.3560 O.3       1 SAH549      0.0000 
     16 C1'       -12.5520  -27.0080   21.9890 C.3       1 SAH549      0.0000 
     17 N9        -12.4210  -25.6920   21.3260 N.pl3     1 SAH549      0.0000 
     18 C8        -13.4020  -24.7410   21.1430 C.2       1 SAH549      0.0000 
     19 N7        -12.8500  -23.6870   20.4920 N.2       1 SAH549      0.0000 
     20 C5        -11.5420  -23.9420   20.2650 C.ar      1 SAH549      0.0000 
     21 C6        -10.5230  -23.2170   19.6250 C.ar      1 SAH549      0.0000 
     22 N6        -10.7440  -21.9910   19.0960 N.pl3     1 SAH549      0.0000 
     23 N1         -9.2580  -23.7800   19.5430 N.ar      1 SAH549      0.0000 
     24 C2         -9.0030  -25.0240   20.0940 C.ar      1 SAH549      0.0000 
     25 N3        -10.0330  -25.7340   20.7030 N.ar      1 SAH549      0.0000 
     26 C4        -11.2760  -25.2070   20.7790 C.ar      1 SAH549      0.0000 
     27 H         -13.9159  -34.2709   21.1133 H         1 SAH549      0.0000 
     28 H         -14.1474  -31.9097   21.7223 H         1 SAH549      0.0000 
     29 H         -15.4582  -32.8897   22.4015 H         1 SAH549      0.0000 
     30 H         -17.0240  -31.9721   20.6724 H         1 SAH549      0.0000 
     31 H         -15.7128  -30.9624   20.0389 H         1 SAH549      0.0000 
     32 H         -16.0870  -28.0272   21.5935 H         1 SAH549      0.0000 
     33 H         -15.5411  -29.1133   20.3042 H         1 SAH549      0.0000 
     34 H         -13.5301  -29.7178   21.6925 H         1 SAH549      0.0000 
     35 H         -14.8247  -28.3569   23.8020 H         1 SAH549      0.0000 
     36 H         -13.9753  -26.3051   23.3720 H         1 SAH549      0.0000 
     37 H         -11.6077  -27.4999   22.0565 H         1 SAH549      0.0000 
     38 H         -14.3107  -24.8226   21.4302 H         1 SAH549      0.0000 
     39 H          -9.9545  -21.3783   19.0603 H         1 SAH549      0.0000 
     40 H         -11.6773  -21.8065   18.7877 H         1 SAH549      0.0000 
     41 H          -8.0575  -25.4244   20.0550 H         1 SAH549      0.0000 
     42 H         -13.3922  -33.9628   18.9204 H         1 SAH549      0.0000 
     43 H         -14.7674  -33.2228   18.5366 H         1 SAH549      0.0000 
     44 H         -13.5952  -32.4078   19.2770 H         1 SAH549      0.0000 
     45 H         -12.2100  -29.4151   23.3711 H         1 SAH549      0.0000 
     46 H         -11.4451  -27.3932   23.9869 H         1 SAH549      0.0000 
@<TRIPOS>BOND
     1    2    1 1    
     2   42    1 1    
     3   43    1 1    
     4   44    1 1    
     5    3    2 1    
     6    6    2 1    
     7   27    2 1    
     8    4    3 1    
     9   28    3 1    
    10   29    3 1    
    11    5    4 1    
    12   30    4 1    
    13   31    4 1    
    14    9    5 1    
    15    7    6 ar   
    16    8    6 ar   
    17   10    9 1    
    18   32    9 1    
    19   33    9 1    
    20   11   10 1    
    21   12   10 1    
    22   34   10 1    
    23   16   11 1    
    24   13   12 1    
    25   14   12 1    
    26   35   12 1    
    27   45   13 1    
    28   15   14 1    
    29   16   14 1    
    30   36   14 1    
    31   46   15 1    
    32   17   16 1    
    33   37   16 1    
    34   18   17 1    
    35   26   17 1    
    36   19   18 2    
    37   38   18 1    
    38   20   19 1    
    39   21   20 ar   
    40   26   20 ar   
    41   22   21 1    
    42   23   21 ar   
    43   39   22 1    
    44   40   22 1    
    45   24   23 ar   
    46   25   24 ar   
    47   41   24 1    
    48   26   25 ar   
@<TRIPOS>SUBSTRUCTURE
     1 SAH549      1 GROUP   
@<TRIPOS>SET

