#    Name: 3h6k_33T_2_INTS_M
#    Modification time : Tue Mar 25 13:40:37 2014

@<TRIPOS>MOLECULE
3h6k_33T_2_INTS_M
   68     0     6     0     0
SMALL
NO_CHARGES


@<TRIPOS>ATOM
      1 CA        -26.8700    4.1260   15.3310 C.3       2 GLC5        0.0000 
      2 CA        -24.8010    4.1980   15.1090 C.3       6 GLL5        0.0000 
      3 CA        -28.9390    4.0540   15.5530 C.3       4 GLP5        0.0000 
      4 CA        -21.3960    0.5850   12.9090 C.3       2 GLC5        0.0000 
      5 CA        -22.7310    1.5690   13.3000 C.3       6 GLL5        0.0000 
      6 CA        -20.0610   -0.3990   12.5180 C.3       4 GLP5        0.0000 
      7 CA        -23.1045    2.1695   11.4560 C.3       2 GLC5        0.0000 
      8 CA        -23.4780    2.7700    9.6120 C.3       4 GLP5        0.0000 
      9 CA        -20.0930    3.2760   14.3095 C.3       2 GLC5        0.0000 
     10 CA        -22.1530    2.8150   13.9670 C.3       6 GLL5        0.0000 
     11 CA        -18.0330    3.7370   14.6520 C.3       4 GLP5        0.0000 
     12 CA        -20.7985    1.6335   13.6880 C.3       2 GLC5        0.0000 
     13 CA        -19.4440    0.4520   13.4090 C.3       4 GLP5        0.0000 
     14 CA        -22.1245    2.7335   11.7585 C.3       2 GLC5        0.0000 
     15 CA        -22.0960    2.6520    9.5500 C.3       4 GLP5        0.0000 
     16 N         -19.1450    5.1090   12.5760 N.am      1 SEC2        0.0000 
     17 N         -20.7060    4.8950   12.3090 N.am      5 SEL2        0.0000 
     18 N         -17.5840    5.3230   12.8430 N.am      3 SEP2        0.0000 
     19 CA        -20.6175    7.2970   12.2410 C.3       2 GLC5        0.0000 
     20 CA        -22.3750    6.7010   13.1200 C.3       6 GLL5        0.0000 
     21 CA        -18.8600    7.8930   11.3620 C.3       4 GLP5        0.0000 
     22 CA        -24.4535    7.0930   11.0475 C.3       2 GLC5        0.0000 
     23 CA        -22.9040    7.7130   12.3090 C.3       6 GLL5        0.0000 
     24 CA        -26.0030    6.4730    9.7860 C.3       4 GLP5        0.0000 
     25 CA        -19.7155    4.7420   15.0860 C.3       2 GLC5        0.0000 
     26 CA        -21.3980    5.7470   15.5200 C.3       6 GLL5        0.0000 
     27 CA        -19.9595    6.7830   15.8950 C.3       2 GLC5        0.0000 
     28 CA        -18.5210    7.8190   16.2700 C.3       4 GLP5        0.0000 
     29 CA        -20.4510    4.3855   16.9870 C.3       2 GLC5        0.0000 
     30 CA        -19.5040    3.0240   18.4540 C.3       4 GLP5        0.0000 
     31 CA        -27.5180   -1.3750   15.3605 C.3       2 GLC5        0.0000 
     32 CA        -25.9390   -1.7080   13.8920 C.3       6 GLL5        0.0000 
     33 CA        -29.0970   -1.0420   16.8290 C.3       4 GLP5        0.0000 
     34 CA        -27.4540    2.6415   15.6495 C.3       2 GLC5        0.0000 
     35 CA        -25.9690    1.2290   15.7460 C.3       6 GLL5        0.0000 
     36 CA        -24.3265   -2.1930   17.1105 C.3       2 GLC5        0.0000 
     37 CA        -25.9160   -0.7950   16.5130 C.3       6 GLL5        0.0000 
     38 CA        -22.7370   -3.5910   17.7080 C.3       4 GLP5        0.0000 
     39 CA        -26.1280   -1.9245   17.8980 C.3       2 GLC5        0.0000 
     40 CA        -26.3400   -3.0540   19.2830 C.3       4 GLP5        0.0000 
     41 CA        -23.4030   -1.6760   16.8940 C.3       2 GLC5        0.0000 
     42 CA        -24.0690    0.2390   16.0800 C.3       6 GLL5        0.0000 
     43 CA        -22.8980    1.0545   17.2700 C.3       2 GLC5        0.0000 
     44 CA        -21.7270    1.8700   18.4600 C.3       4 GLP5        0.0000 
     45 CA        -24.0545    3.0787   11.4688 C.3       2 GLC5        0.0000 
     46 CA        -24.3600    4.0260   13.6560 C.3       6 GLL5        0.0000 
     47 CA        -26.2161    4.2192   12.7524 C.3       2 GLC5        0.0000 
     48 CA        -24.9020    2.7490   12.9950 C.3       6 GLL5        0.0000 
     49 CA        -27.6910    5.0080   11.8160 C.3       4 GLP5        0.0000 
     50 CA        -22.7960    7.9663   10.5892 C.3       2 GLC5        0.0000 
     51 CA        -23.1260    8.9880   12.8300 C.3       6 GLL5        0.0000 
     52 CA        -22.5770    7.5820    8.6090 C.3       4 GLP5        0.0000 
     53 CA        -21.7555    9.2046   12.0846 C.3       2 GLC5        0.0000 
     54 CA        -20.5970    9.6020   10.8020 C.3       4 GLP5        0.0000 
     55 CA        -26.9898    0.1415   11.4815 C.3       2 GLC5        0.0000 
     56 CA        -24.8340   -0.2080   11.8220 C.3       6 GLL5        0.0000 
     57 CA        -28.8510    1.1100   11.2820 C.3       4 GLP5        0.0000 
     58 CA        -27.6325   -3.7708   12.4667 C.3       2 GLC5        0.0000 
     59 CA        -25.9700   -2.1840   12.5830 C.3       6 GLL5        0.0000 
     60 CA        -29.0110   -4.7640   12.4780 C.3       4 GLP5        0.0000 
     61 CA        -27.7182   -0.8825   12.7793 C.3       2 GLC5        0.0000 
     62 CA        -29.4820    0.1810   12.3210 C.3       4 GLP5        0.0000 
     63 CA        -27.4396   -0.5616   16.4621 C.3       2 GLC5        0.0000 
     64 CA        -25.0963    0.8824   17.6693 C.3       2 GLC5        0.0000 
     65 CA        -25.2670    1.6860   19.2510 C.3       4 GLP5        0.0000 
     66 CA        -24.3556   -3.3690   11.6159 C.3       2 GLC5        0.0000 
     67 CA        -25.4230   -1.4460   11.5400 C.3       6 GLL5        0.0000 
     68 CA        -22.5940   -4.1450   11.0370 C.3       4 GLP5        0.0000 
@<TRIPOS>BOND
@<TRIPOS>SUBSTRUCTURE
     1 SEC2       16 GROUP        1 X    SEC  0     ROOT SEC X 2
     2 GLC5        1 GROUP        1 X    GLC  0     **** GLC X 6
     3 SEP2       18 GROUP        1 Y    SEP  0     ROOT SEP Y 9
     4 GLP5        3 GROUP        1 Y    GLP  0     **** GLP Y 13
     5 SEL2       17 GROUP        1 Z    SEL  0     ROOT SEL Z 16
     6 GLL5        2 GROUP        1 Z    GLL  0     **** GLL Z 20
@<TRIPOS>SET

