#    Name: 3h6k_33T_2_ligand
#    Modification time : Tue Mar 25 13:40:37 2014

@<TRIPOS>MOLECULE
3h6k_33T_2_ligand
   49    51     1     0     0
SMALL
NO_CHARGES


@<TRIPOS>ATOM
      1 C1        -24.8010    4.1980   15.1090 C.3       1 33T293      0.0000 
      2 C2        -24.3600    4.0260   13.6560 C.3       1 33T293      0.0000 
      3 C3        -24.9020    2.7490   12.9950 C.3       1 33T293      0.0000 
      4 N1        -24.1910    1.5470   13.4410 N.3       1 33T293      0.0000 
      5 C4        -22.7310    1.5690   13.3000 C.3       1 33T293      0.0000 
      6 C5        -22.1530    2.8150   13.9670 C.3       1 33T293      0.0000 
      7 N2        -22.8650    4.0560   13.5190 N.pl3     1 33T293      0.0000 
      8 S1        -22.1380    5.1170   12.3540 S.o2      1 33T293      0.0000 
      9 O1        -20.7060    4.8950   12.3090 O.2       1 33T293      0.0000 
     10 O2        -22.9330    5.0800   11.1440 O.2       1 33T293      0.0000 
     11 C6        -22.3750    6.7010   13.1200 C.ar      1 33T293      0.0000 
     12 C7        -22.9040    7.7130   12.3090 C.ar      1 33T293      0.0000 
     13 C8        -23.1260    8.9880   12.8300 C.ar      1 33T293      0.0000 
     14 C9        -22.8130    9.2640   14.1650 C.ar      1 33T293      0.0000 
     15 C10       -22.2850    8.2430   14.9780 C.ar      1 33T293      0.0000 
     16 C11       -22.0580    6.9540   14.4590 C.ar      1 33T293      0.0000 
     17 CL1       -21.3980    5.7470   15.5200 Cl        1 33T293      0.0000 
     18 C12       -23.0350   10.6190   14.7410 C.2       1 33T293      0.0000 
     19 O3        -22.8950   11.6160   14.0290 O.2       1 33T293      0.0000 
     20 N3        -23.3910   10.6790   16.0730 N.am      1 33T293      0.0000 
     21 C13       -24.7840    0.3030   13.1420 C.ar      1 33T293      0.0000 
     22 C14       -24.8340   -0.2080   11.8220 C.ar      1 33T293      0.0000 
     23 C15       -25.4230   -1.4460   11.5400 C.ar      1 33T293      0.0000 
     24 C16       -25.9700   -2.1840   12.5830 C.ar      1 33T293      0.0000 
     25 C17       -25.9390   -1.7080   13.8920 C.ar      1 33T293      0.0000 
     26 C18       -25.3500   -0.4680   14.1870 C.ar      1 33T293      0.0000 
     27 C19       -25.3280    0.0360   15.6090 C.3       1 33T293      0.0000 
     28 F1        -25.9690    1.2290   15.7460 F         1 33T293      0.0000 
     29 F2        -25.9160   -0.7950   16.5130 F         1 33T293      0.0000 
     30 F3        -24.0690    0.2390   16.0800 F         1 33T293      0.0000 
     31 F4        -26.5380   -3.3710   12.3280 F         1 33T293      0.0000 
     32 H         -24.7614    4.8804   13.0780 H         1 33T293      0.0000 
     33 H         -24.8159    2.8700   11.9038 H         1 33T293      0.0000 
     34 H         -25.9755    2.6760   13.2295 H         1 33T293      0.0000 
     35 H         -22.4435    1.5784   12.2449 H         1 33T293      0.0000 
     36 H         -22.2829    0.6882   13.7686 H         1 33T293      0.0000 
     37 H         -21.0894    2.8861   13.7185 H         1 33T293      0.0000 
     38 H         -22.2418    2.7066   15.0526 H         1 33T293      0.0000 
     39 H         -23.1288    7.5131   11.3262 H         1 33T293      0.0000 
     40 H         -23.5195    9.7257   12.2341 H         1 33T293      0.0000 
     41 H         -22.0626    8.4409   15.9619 H         1 33T293      0.0000 
     42 H         -23.5045    9.8010   16.5381 H         1 33T293      0.0000 
     43 H         -23.5045   11.5952   16.4573 H         1 33T293      0.0000 
     44 H         -24.4249    0.3506   11.0556 H         1 33T293      0.0000 
     45 H         -25.4481   -1.7970   10.5831 H         1 33T293      0.0000 
     46 H         -26.3502   -2.2666   14.6529 H         1 33T293      0.0000 
     47 H         -24.4977    3.4365   15.6818 H         1 33T293      0.0000 
     48 H         -24.4306    5.0344   15.5130 H         1 33T293      0.0000 
     49 H         -25.7963    4.2485   15.1915 H         1 33T293      0.0000 
@<TRIPOS>BOND
     1    2    1 1    
     2   47    1 1    
     3   48    1 1    
     4   49    1 1    
     5    3    2 1    
     6    7    2 1    
     7   32    2 1    
     8    4    3 1    
     9   33    3 1    
    10   34    3 1    
    11    5    4 1    
    12   21    4 1    
    13    6    5 1    
    14   35    5 1    
    15   36    5 1    
    16    7    6 1    
    17   37    6 1    
    18   38    6 1    
    19    8    7 1    
    20    9    8 2    
    21   10    8 2    
    22   11    8 1    
    23   12   11 ar   
    24   16   11 ar   
    25   13   12 ar   
    26   39   12 1    
    27   14   13 ar   
    28   40   13 1    
    29   15   14 ar   
    30   18   14 1    
    31   16   15 ar   
    32   41   15 1    
    33   17   16 1    
    34   19   18 2    
    35   20   18 am   
    36   42   20 1    
    37   43   20 1    
    38   22   21 ar   
    39   26   21 ar   
    40   23   22 ar   
    41   44   22 1    
    42   24   23 ar   
    43   45   23 1    
    44   25   24 ar   
    45   31   24 1    
    46   26   25 ar   
    47   46   25 1    
    48   27   26 1    
    49   28   27 1    
    50   29   27 1    
    51   30   27 1    
@<TRIPOS>SUBSTRUCTURE
     1 33T293      1 GROUP   
@<TRIPOS>SET

