#    Name: 1c6y_MK1_1_INTS_M
#    Modification time : Mon Mar 24 20:20:13 2014

@<TRIPOS>MOLECULE
1c6y_MK1_1_INTS_M
  102     0     9     0     0
SMALL
NO_CHARGES


@<TRIPOS>ATOM
      1 CA          9.2895   24.0985    6.4250 C.3       3 GLC5        0.0000 
      2 CA          9.6770   25.3590    4.7010 C.3       9 GLL5        0.0000 
      3 CA          8.9020   22.8380    8.1490 C.3       6 GLP5        0.0000 
      4 CA         11.6405   28.7800   10.7890 C.3       3 GLC5        0.0000 
      5 CA         11.7190   27.5910    9.2050 C.3       9 GLL5        0.0000 
      6 CA         11.5620   29.9690   12.3730 C.3       6 GLP5        0.0000 
      7 CA         13.4130   28.2390    9.1990 C.3       3 GLC5        0.0000 
      8 CA         15.1070   28.8870    9.1930 C.3       6 GLP5        0.0000 
      9 CA         12.1695   26.0250   10.0520 C.3       3 GLC5        0.0000 
     10 CA         12.6200   24.4590   10.8990 C.3       6 GLP5        0.0000 
     11 CA          8.7660   27.4205   11.0190 C.3       3 GLC5        0.0000 
     12 CA          9.3240   26.8700    9.2300 C.3       9 GLL5        0.0000 
     13 CA          8.2080   27.9710   12.8080 C.3       6 GLP5        0.0000 
     14 CA          9.1130   24.8540    8.6895 C.3       3 GLC5        0.0000 
     15 CA          9.8655   25.4205   10.5495 C.3       3 GLC5        0.0000 
     16 CA         10.4070   23.9710   11.8690 C.3       6 GLP5        0.0000 
     17 CA         10.8550   29.6670   10.5400 C.3       3 GLC5        0.0000 
     18 CA         10.1480   29.3650    8.7070 C.3       9 GLL5        0.0000 
     19 CA         13.6055   27.9215    3.3760 C.3       3 GLC5        0.0000 
     20 CA         13.2550   26.1740    4.6800 C.3       9 GLL5        0.0000 
     21 CA         13.9560   29.6690    2.0720 C.3       6 GLP5        0.0000 
     22 O          15.9925   27.2915    5.4805 O.2       1 ALC1        0.0000 
     23 O          15.5460   26.3460    4.4710 O.2       7 ALL1        0.0000 
     24 O          16.4390   28.2370    6.4900 O.2       4 ALP1        0.0000 
     25 CA         14.9535   27.1780    7.8330 C.3       3 GLC5        0.0000 
     26 CA         14.8000   25.4690    6.4730 C.3       9 GLL5        0.0000 
     27 CA         15.6360   26.9530    8.8560 C.3       3 GLC5        0.0000 
     28 CA         16.1650   25.0190    8.5190 C.3       9 GLL5        0.0000 
     29 CA         14.3925   24.7390    9.7090 C.3       3 GLC5        0.0000 
     30 CA         15.7855   21.6510    9.7515 C.3       3 GLC5        0.0000 
     31 CA         16.9880   23.2700   10.0870 C.3       9 GLL5        0.0000 
     32 CA         14.5830   20.0320    9.4160 C.3       6 GLP5        0.0000 
     33 O          18.1540   23.8230    5.8410 O.2       1 ALC1        0.0000 
     34 O          17.1480   22.7100    6.1060 O.2       7 ALL1        0.0000 
     35 O          19.1600   24.9360    5.5760 O.2       4 ALP1        0.0000 
     36 CA         16.0145   20.6540    7.8295 C.3       3 GLC5        0.0000 
     37 CA         17.4460   21.2760    6.2430 C.3       9 GLL5        0.0000 
     38 N          20.2980   21.9645    4.4425 N.am      2 SEC2        0.0000 
     39 N          19.6840   21.7400    5.6700 N.am      8 SEL2        0.0000 
     40 N          20.9120   22.1890    3.2150 N.am      5 SEP2        0.0000 
     41 O          19.4220   23.3380    5.6230 O.2       1 ALC1        0.0000 
     42 O          19.6840   21.7400    5.6700 O.2       7 ALL1        0.0000 
     43 CA         20.9000   20.0300    4.9690 C.3       3 GLC5        0.0000 
     44 CA         19.1730   19.4500    6.1960 C.3       9 GLL5        0.0000 
     45 CA         22.6270   20.6100    3.7420 C.3       6 GLP5        0.0000 
     46 CA         17.6310   17.4430    5.0310 C.3       3 GLC5        0.0000 
     47 CA         18.2770   19.5520    4.9180 C.3       9 GLL5        0.0000 
     48 CA         16.9850   15.3340    5.1440 C.3       6 GLP5        0.0000 
     49 CA         18.2265   16.9535    3.9000 C.3       3 GLC5        0.0000 
     50 CA         18.4410   18.8610    3.7400 C.3       9 GLL5        0.0000 
     51 CA         18.0120   15.0460    4.0600 C.3       6 GLP5        0.0000 
     52 CA         16.4295   17.7690    3.1140 C.3       3 GLC5        0.0000 
     53 CA         17.6260   19.3360    2.6860 C.3       9 GLL5        0.0000 
     54 CA         15.2330   16.2020    3.5420 C.3       6 GLP5        0.0000 
     55 CA         14.3435   20.7570    4.3355 C.3       3 GLC5        0.0000 
     56 CA         16.4960   21.0390    3.9520 C.3       9 GLL5        0.0000 
     57 CA         12.1910   20.4750    4.7190 C.3       6 GLP5        0.0000 
     58 CA          7.9125   23.2255    6.2725 C.3       3 GLC5        0.0000 
     59 CA          6.9230   23.6130    4.3960 C.3       9 GLL5        0.0000 
     60 CA          7.8275   22.0595    6.4795 C.3       3 GLC5        0.0000 
     61 CA          6.7530   21.2810    4.8100 C.3       9 GLL5        0.0000 
     62 CA          8.6260   20.5355    5.6425 C.3       3 GLC5        0.0000 
     63 CA         10.4990   19.7900    6.4750 C.3       6 GLP5        0.0000 
     64 CA          7.5300   19.9110    1.9980 C.3       3 GLC5        0.0000 
     65 CA          7.7640   20.9610    3.8650 C.3       9 GLL5        0.0000 
     66 CA          7.2960   18.8610    0.1310 C.3       6 GLP5        0.0000 
     67 CA          8.5720   20.6660    1.5315 C.3       3 GLC5        0.0000 
     68 CA          8.3540   22.0670    3.1730 C.3       9 GLL5        0.0000 
     69 CA          8.7900   19.2650   -0.1100 C.3       6 GLP5        0.0000 
     70 CA         12.0031   29.5685    7.7890 C.3       3 GLC5        0.0000 
     71 CA         13.4110   30.6050    6.7930 C.3       6 GLP5        0.0000 
     72 CA         12.1273   23.6365    1.8480 C.3       3 GLC5        0.0000 
     73 CA         12.1230   25.0900    3.3230 C.3       9 GLL5        0.0000 
     74 CA         12.7680   22.4620    0.6670 C.3       6 GLP5        0.0000 
     75 CA         18.6627   24.8220   10.6630 C.3       3 GLC5        0.0000 
     76 CA         17.3000   24.1620    9.0520 C.3       9 GLL5        0.0000 
     77 CA         19.3690   25.4480   12.5480 C.3       6 GLP5        0.0000 
     78 CA         19.8028   25.7090    8.6185 C.3       3 GLC5        0.0000 
     79 CA         19.6480   23.5720    9.1560 C.3       9 GLL5        0.0000 
     80 CA         20.4750   27.5170    8.4070 C.3       6 GLP5        0.0000 
     81 CA         19.4375   24.3410   11.1493 C.3       3 GLC5        0.0000 
     82 CA         17.4350   22.5718   12.4050 C.3       3 GLC5        0.0000 
     83 CA         18.0400   22.5990   10.7330 C.3       9 GLL5        0.0000 
     84 CA         17.3560   22.2090   14.4000 C.3       6 GLP5        0.0000 
     85 CA         18.4415   24.1913   11.4790 C.3       3 GLC5        0.0000 
     86 CA         19.1683   18.5498    1.8795 C.3       3 GLC5        0.0000 
     87 CA         20.3030   18.0010    0.5460 C.3       6 GLP5        0.0000 
     88 CA         16.1800   18.8972    1.4407 C.3       3 GLC5        0.0000 
     89 CA         16.6860   20.4010    2.7630 C.3       9 GLL5        0.0000 
     90 CA         15.2040   17.9260    0.1570 C.3       6 GLP5        0.0000 
     91 CA         17.3915   21.9944    2.6876 C.3       3 GLC5        0.0000 
     92 CA         17.9570   23.5350    2.0370 C.3       6 GLP5        0.0000 
     93 CA         18.4168   22.3102    4.3666 C.3       3 GLC5        0.0000 
     94 CA         17.3320   20.6070    4.9740 C.3       9 GLL5        0.0000 
     95 CA         19.0710   23.7560    3.0560 C.3       6 GLP5        0.0000 
     96 CA          6.4503   23.2181    2.3429 C.3       3 GLC5        0.0000 
     97 CA          8.5060   24.5940    2.5860 C.3       9 GLL5        0.0000 
     98 CA          5.3310   22.6280    0.9890 C.3       6 GLP5        0.0000 
     99 CA          9.7535   20.6835    3.5300 C.3       3 GLC5        0.0000 
    100 CA         11.4480   19.8530    3.5410 C.3       6 GLP5        0.0000 
    101 CA          6.7941   21.3955    2.4231 C.3       3 GLC5        0.0000 
    102 CA          5.7820   21.1970    1.0910 C.3       6 GLP5        0.0000 
@<TRIPOS>BOND
@<TRIPOS>SUBSTRUCTURE
     1 ALC1       22 GROUP        1 X    ALC  0     ROOT ALC X 1
     2 SEC2       38 GROUP        1 X    SEC  0     **** SEC X 2
     3 GLC5        1 GROUP        1 X    GLC  0     **** GLC X 6
     4 ALP1       24 GROUP        1 Y    ALP  0     ROOT ALP Y 8
     5 SEP2       40 GROUP        1 Y    SEP  0     **** SEP Y 9
     6 GLP5        3 GROUP        1 Y    GLP  0     **** GLP Y 13
     7 ALL1       23 GROUP        1 Z    ALL  0     ROOT ALL Z 15
     8 SEL2       39 GROUP        1 Z    SEL  0     **** SEL Z 16
     9 GLL5        2 GROUP        1 Z    GLL  0     **** GLL Z 20
@<TRIPOS>SET

