#    Name: 1c6y_MK1_1_ligand
#    Modification time : Mon Mar 24 20:20:13 2014

@<TRIPOS>MOLECULE
1c6y_MK1_1_ligand
   93    97     1     0     0
SMALL
NO_CHARGES


@<TRIPOS>ATOM
      1 N1          9.6990   25.2450    3.2100 N.3       1 MK1524      0.0000 
      2 C1          9.6770   25.3590    4.7010 C.3       1 MK1524      0.0000 
      3 C2         10.9380   26.0730    5.1550 C.3       1 MK1524      0.0000 
      4 C3         10.8940   26.3430    6.6200 C.2       1 MK1524      0.0000 
      5 O1         11.3860   25.5440    7.4050 O.2       1 MK1524      0.0000 
      6 N2         10.3230   27.4990    7.0590 N.am      1 MK1524      0.0000 
      7 C4         10.3660   27.8070    8.5210 C.3       1 MK1524      0.0000 
      8 C5         11.7190   27.5910    9.2050 C.3       1 MK1524      0.0000 
      9 C6          9.3240   26.8700    9.2300 C.3       1 MK1524      0.0000 
     10 C7         10.1480   29.3650    8.7070 C.3       1 MK1524      0.0000 
     11 N3         12.0990   25.2500    4.8060 N.4       1 MK1524      0.0000 
     12 C8         12.1230   25.0900    3.3230 C.3       1 MK1524      0.0000 
     13 C9         10.8500   24.5320    2.7350 C.3       1 MK1524      0.0000 
     14 C10        13.2550   26.1740    4.6800 C.3       1 MK1524      0.0000 
     15 C11        14.6140   25.5620    4.9970 C.3       1 MK1524      0.0000 
     16 O2         15.5460   26.3460    4.4710 O.3       1 MK1524      0.0000 
     17 C12        14.8000   25.4690    6.4730 C.3       1 MK1524      0.0000 
     18 C13        16.0710   24.7820    7.0010 C.3       1 MK1524      0.0000 
     19 C14        16.1650   25.0190    8.5190 C.3       1 MK1524      0.0000 
     20 C15        17.3000   24.1620    9.0520 C.ar      1 MK1524      0.0000 
     21 C16        18.6130   24.2300    8.5040 C.ar      1 MK1524      0.0000 
     22 C17        19.6480   23.5720    9.1560 C.ar      1 MK1524      0.0000 
     23 C18        19.3640   22.8960   10.3450 C.ar      1 MK1524      0.0000 
     24 C19        18.0400   22.5990   10.7330 C.ar      1 MK1524      0.0000 
     25 C20        16.9880   23.2700   10.0870 C.ar      1 MK1524      0.0000 
     26 C21        16.0830   23.1750    6.6870 C.2       1 MK1524      0.0000 
     27 O3         15.1900   22.4150    7.0730 O.2       1 MK1524      0.0000 
     28 N4         17.1480   22.7100    6.1060 N.am      1 MK1524      0.0000 
     29 C22        17.4460   21.2760    6.2430 C.3       1 MK1524      0.0000 
     30 C23        18.9400   20.9680    6.5180 C.3       1 MK1524      0.0000 
     31 O4         19.6840   21.7400    5.6700 O.3       1 MK1524      0.0000 
     32 C24        19.1730   19.4500    6.1960 C.3       1 MK1524      0.0000 
     33 C25        18.2770   19.5520    4.9180 C.ar      1 MK1524      0.0000 
     34 C26        18.4410   18.8610    3.7400 C.ar      1 MK1524      0.0000 
     35 C27        17.6260   19.3360    2.6860 C.ar      1 MK1524      0.0000 
     36 C28        16.6860   20.4010    2.7630 C.ar      1 MK1524      0.0000 
     37 C29        16.4960   21.0390    3.9520 C.ar      1 MK1524      0.0000 
     38 C30        17.3320   20.6070    4.9740 C.ar      1 MK1524      0.0000 
     39 C31         8.5060   24.5940    2.5860 C.3       1 MK1524      0.0000 
     40 C32         7.9260   23.4130    3.4090 C.ar      1 MK1524      0.0000 
     41 C33         6.9230   23.6130    4.3960 C.ar      1 MK1524      0.0000 
     42 N5          6.3890   22.5620    5.0620 N.ar      1 MK1524      0.0000 
     43 C34         6.7530   21.2810    4.8100 C.ar      1 MK1524      0.0000 
     44 C35         7.7640   20.9610    3.8650 C.ar      1 MK1524      0.0000 
     45 C36         8.3540   22.0670    3.1730 C.ar      1 MK1524      0.0000 
     46 H           9.6454   24.3720    5.1499 H         1 MK1524      0.0000 
     47 H           8.8107   25.9296    5.0185 H         1 MK1524      0.0000 
     48 H          10.9922   27.0185    4.6201 H         1 MK1524      0.0000 
     49 H           9.8679   28.1700    6.4615 H         1 MK1524      0.0000 
     50 H          12.3004   24.4510    5.2806 H         1 MK1524      0.0000 
     51 H          12.9674   24.4280    3.0372 H         1 MK1524      0.0000 
     52 H          12.3334   26.0721    2.8496 H         1 MK1524      0.0000 
     53 H          10.9263   24.5872    1.6353 H         1 MK1524      0.0000 
     54 H          10.7908   23.4614    2.9969 H         1 MK1524      0.0000 
     55 H          13.1064   27.0531    5.3467 H         1 MK1524      0.0000 
     56 H          13.2933   26.5876    3.6471 H         1 MK1524      0.0000 
     57 H          14.6126   24.5591    4.5866 H         1 MK1524      0.0000 
     58 H          13.9169   24.9427    6.9277 H         1 MK1524      0.0000 
     59 H          14.7621   26.5001    6.9193 H         1 MK1524      0.0000 
     60 H          16.9336   25.2011    6.5275 H         1 MK1524      0.0000 
     61 H          15.2376   24.7272    8.9792 H         1 MK1524      0.0000 
     62 H          16.3734   26.0585    8.7010 H         1 MK1524      0.0000 
     63 H          18.7732   24.7552    7.6498 H         1 MK1524      0.0000 
     64 H          20.5927   23.5800    8.7792 H         1 MK1524      0.0000 
     65 H          20.1423   22.6021   10.9631 H         1 MK1524      0.0000 
     66 H          17.8559   21.9194   11.4586 H         1 MK1524      0.0000 
     67 H          16.0264   23.1115   10.3643 H         1 MK1524      0.0000 
     68 H          17.8092   23.2573    5.5532 H         1 MK1524      0.0000 
     69 H          16.8773   20.7850    6.9709 H         1 MK1524      0.0000 
     70 H          19.1248   21.1189    7.5444 H         1 MK1524      0.0000 
     71 H          18.7085   18.8862    6.8898 H         1 MK1524      0.0000 
     72 H          20.1331   19.3095    5.9248 H         1 MK1524      0.0000 
     73 H          19.0599   18.1067    3.6215 H         1 MK1524      0.0000 
     74 H          17.7231   18.8518    1.7429 H         1 MK1524      0.0000 
     75 H          16.1713   20.6649    1.9189 H         1 MK1524      0.0000 
     76 H          15.8196   21.7551    4.0903 H         1 MK1524      0.0000 
     77 H           8.7648   24.2119    1.5830 H         1 MK1524      0.0000 
     78 H           7.7004   25.3357    2.4456 H         1 MK1524      0.0000 
     79 H           6.6177   24.5831    4.5860 H         1 MK1524      0.0000 
     80 H           6.2948   20.4886    5.3092 H         1 MK1524      0.0000 
     81 H           8.0480   20.0297    3.6910 H         1 MK1524      0.0000 
     82 H           9.1008   21.8911    2.4922 H         1 MK1524      0.0000 
     83 H          12.4350   28.1593    8.7996 H         1 MK1524      0.0000 
     84 H          11.6829   27.8154   10.1788 H         1 MK1524      0.0000 
     85 H          12.0235   26.6411    9.1342 H         1 MK1524      0.0000 
     86 H           9.5356   25.9033    9.0861 H         1 MK1524      0.0000 
     87 H           9.3008   27.0211   10.2183 H         1 MK1524      0.0000 
     88 H           8.3963   27.0209    8.8886 H         1 MK1524      0.0000 
     89 H          10.1704   29.6307    9.6708 H         1 MK1524      0.0000 
     90 H          10.8540   29.8972    8.2398 H         1 MK1524      0.0000 
     91 H           9.2663   29.6629    8.3412 H         1 MK1524      0.0000 
     92 H          15.9689   26.8052    5.2522 H         1 MK1524      0.0000 
     93 H          19.3785   22.6772    5.8382 H         1 MK1524      0.0000 
@<TRIPOS>BOND
     1    2    1 1    
     2   13    1 1    
     3   39    1 1    
     4    3    2 1    
     5   46    2 1    
     6   47    2 1    
     7    4    3 1    
     8   11    3 1    
     9   48    3 1    
    10    5    4 2    
    11    6    4 am   
    12    7    6 1    
    13   49    6 1    
    14    8    7 1    
    15    9    7 1    
    16   10    7 1    
    17   83    8 1    
    18   84    8 1    
    19   85    8 1    
    20   86    9 1    
    21   87    9 1    
    22   88    9 1    
    23   89   10 1    
    24   90   10 1    
    25   91   10 1    
    26   12   11 1    
    27   14   11 1    
    28   50   11 1    
    29   13   12 1    
    30   51   12 1    
    31   52   12 1    
    32   53   13 1    
    33   54   13 1    
    34   15   14 1    
    35   55   14 1    
    36   56   14 1    
    37   16   15 1    
    38   17   15 1    
    39   57   15 1    
    40   92   16 1    
    41   18   17 1    
    42   58   17 1    
    43   59   17 1    
    44   19   18 1    
    45   26   18 1    
    46   60   18 1    
    47   20   19 1    
    48   61   19 1    
    49   62   19 1    
    50   21   20 ar   
    51   25   20 ar   
    52   22   21 ar   
    53   63   21 1    
    54   23   22 ar   
    55   64   22 1    
    56   24   23 ar   
    57   65   23 1    
    58   25   24 ar   
    59   66   24 1    
    60   67   25 1    
    61   27   26 2    
    62   28   26 am   
    63   29   28 1    
    64   68   28 1    
    65   30   29 1    
    66   38   29 1    
    67   69   29 1    
    68   31   30 1    
    69   32   30 1    
    70   70   30 1    
    71   93   31 1    
    72   33   32 1    
    73   71   32 1    
    74   72   32 1    
    75   34   33 ar   
    76   38   33 ar   
    77   35   34 ar   
    78   73   34 1    
    79   36   35 ar   
    80   74   35 1    
    81   37   36 ar   
    82   75   36 1    
    83   38   37 ar   
    84   76   37 1    
    85   40   39 1    
    86   77   39 1    
    87   78   39 1    
    88   41   40 ar   
    89   45   40 ar   
    90   42   41 ar   
    91   79   41 1    
    92   43   42 ar   
    93   44   43 ar   
    94   80   43 1    
    95   45   44 ar   
    96   81   44 1    
    97   82   45 1    
@<TRIPOS>SUBSTRUCTURE
     1 MK1524      1 GROUP   
@<TRIPOS>SET

