#    Name: 4lz8_1YX_1_INTS_M
#    Modification time : Tue Apr  8 00:13:03 2014

@<TRIPOS>MOLECULE
4lz8_1YX_1_INTS_M
   68     0     6     0     0
SMALL
NO_CHARGES


@<TRIPOS>ATOM
      1 CA         58.1555   34.7680   48.3440 C.3       2 GLC5        0.0000 
      2 CA         58.6860   33.8600   46.8620 C.3       6 GLL5        0.0000 
      3 CA         57.6250   35.6760   49.8260 C.3       4 GLP5        0.0000 
      4 CA         58.8685   34.2440   44.5240 C.3       2 GLC5        0.0000 
      5 CA         59.6350   32.2820   43.9510 C.3       6 GLL5        0.0000 
      6 CA         58.1020   36.2060   45.0970 C.3       4 GLP5        0.0000 
      7 CA         57.8490   31.1710   43.1805 C.3       2 GLC5        0.0000 
      8 CA         56.0630   30.0600   42.4100 C.3       4 GLP5        0.0000 
      9 CA         57.9425   30.2080   42.4640 C.3       2 GLC5        0.0000 
     10 CA         59.8220   30.3560   42.5180 C.3       6 GLL5        0.0000 
     11 CA         58.1380   27.0155   43.3635 C.3       2 GLC5        0.0000 
     12 CA         60.2430   27.3880   42.7840 C.3       6 GLL5        0.0000 
     13 CA         56.0330   26.6430   43.9430 C.3       4 GLP5        0.0000 
     14 CA         59.0510   24.9825   44.5105 C.3       2 GLC5        0.0000 
     15 CA         59.3550   25.2200   42.7830 C.3       6 GLL5        0.0000 
     16 CA         58.7470   24.7450   46.2380 C.3       4 GLP5        0.0000 
     17 CA         58.4050   23.4360   42.4605 C.3       2 GLC5        0.0000 
     18 CA         57.4550   21.6520   42.1380 C.3       4 GLP5        0.0000 
     19 CA         58.5040   25.0785   41.5265 C.3       2 GLC5        0.0000 
     20 CA         57.6530   24.9370   40.2700 C.3       4 GLP5        0.0000 
     21 CA         57.6940   25.9315   43.3630 C.3       2 GLC5        0.0000 
     22 CA         59.7875   23.9190   44.4840 C.3       2 GLC5        0.0000 
     23 CA         60.8280   23.0930   42.7300 C.3       6 GLL5        0.0000 
     24 CA         59.8760   24.2480   41.1660 C.3       2 GLC5        0.0000 
     25 CA         58.9240   25.4030   39.6020 C.3       4 GLP5        0.0000 
     26 CA         59.9760   20.9610   44.1605 C.3       2 GLC5        0.0000 
     27 CA         61.5100   21.7320   42.8030 C.3       6 GLL5        0.0000 
     28 CA         58.4420   20.1900   45.5180 C.3       4 GLP5        0.0000 
     29 O          61.5600   21.8910   45.6105 O.2       1 ALC1        0.0000 
     30 O          62.7910   21.8230   44.9210 O.2       5 ALL1        0.0000 
     31 O          60.3290   21.9590   46.3000 O.2       3 ALP1        0.0000 
     32 CA         63.0045   22.4640   48.6395 C.3       2 GLC5        0.0000 
     33 CA         63.9330   21.4620   46.9760 C.3       6 GLL5        0.0000 
     34 CA         62.0760   23.4660   50.3030 C.3       4 GLP5        0.0000 
     35 CA         65.0180   21.1860   48.5580 C.3       2 GLC5        0.0000 
     36 CA         66.1030   20.9100   50.1400 C.3       4 GLP5        0.0000 
     37 CA         64.2550   19.5260   45.9860 C.3       2 GLC5        0.0000 
     38 CA         64.5770   17.5900   44.9960 C.3       4 GLP5        0.0000 
     39 CA         58.5757   34.7052   46.0097 C.3       2 GLC5        0.0000 
     40 CA         59.4130   32.5490   46.9830 C.3       6 GLL5        0.0000 
     41 CA         60.0540   31.2867   49.0220 C.3       2 GLC5        0.0000 
     42 CA         60.5950   30.2290   50.3430 C.3       4 GLP5        0.0000 
     43 CA         58.1220   32.5777   48.7560 C.3       2 GLC5        0.0000 
     44 CA         59.6130   32.1400   48.4190 C.3       6 GLL5        0.0000 
     45 CA         56.7310   32.8110   49.8110 C.3       4 GLP5        0.0000 
     46 CA         60.6696   33.6736   48.3324 C.3       2 GLC5        0.0000 
     47 CA         62.0080   34.6750   48.9940 C.3       4 GLP5        0.0000 
     48 CA         59.1958   31.7505   40.7897 C.3       2 GLC5        0.0000 
     49 CA         60.2110   31.8160   42.6410 C.3       6 GLL5        0.0000 
     50 CA         58.3750   32.4150   39.0000 C.3       4 GLP5        0.0000 
     51 CA         64.6900   27.0422   43.5383 C.3       2 GLC5        0.0000 
     52 CA         62.6130   27.6910   43.0600 C.3       6 GLL5        0.0000 
     53 CA         66.6820   27.0760   43.9370 C.3       4 GLP5        0.0000 
     54 CA         62.4505   27.0598   44.7885 C.3       2 GLC5        0.0000 
     55 CA         62.7830   26.3260   43.2190 C.3       6 GLL5        0.0000 
     56 CA         62.6680   28.2250   46.3940 C.3       4 GLP5        0.0000 
     57 CA         63.0404   27.7205   41.3728 C.3       2 GLC5        0.0000 
     58 CA         63.6990   28.2970   39.6570 C.3       4 GLP5        0.0000 
     59 CA         61.1425   25.6807   44.8195 C.3       2 GLC5        0.0000 
     60 CA         60.0520   25.4670   46.4560 C.3       4 GLP5        0.0000 
     61 CA         60.1945   26.0913   44.6532 C.3       2 GLC5        0.0000 
     62 CA         60.4310   26.0430   42.9170 C.3       6 GLL5        0.0000 
     63 CA         61.8899   27.9500   44.6325 C.3       2 GLC5        0.0000 
     64 CA         59.7870   25.9868   41.2550 C.3       2 GLC5        0.0000 
     65 CA         59.3120   22.0323   42.4522 C.3       2 GLC5        0.0000 
     66 CA         64.7678   23.1735   42.8310 C.3       2 GLC5        0.0000 
     67 CA         62.8590   21.9850   43.4710 C.3       6 GLL5        0.0000 
     68 CA         66.5390   23.6170   42.3730 C.3       4 GLP5        0.0000 
@<TRIPOS>BOND
@<TRIPOS>SUBSTRUCTURE
     1 ALC1       29 GROUP        1 X    ALC  0     ROOT ALC X 1
     2 GLC5        1 GROUP        1 X    GLC  0     **** GLC X 6
     3 ALP1       31 GROUP        1 Y    ALP  0     ROOT ALP Y 8
     4 GLP5        3 GROUP        1 Y    GLP  0     **** GLP Y 13
     5 ALL1       30 GROUP        1 Z    ALL  0     ROOT ALL Z 15
     6 GLL5        2 GROUP        1 Z    GLL  0     **** GLL Z 20
@<TRIPOS>SET

