#    Name: 4lz8_1YX_1_ligand
#    Modification time : Tue Apr  8 00:13:03 2014

@<TRIPOS>MOLECULE
4lz8_1YX_1_ligand
   56    58     1     0     0
SMALL
NO_CHARGES


@<TRIPOS>ATOM
      1 C1         58.6860   33.8600   46.8620 C.3       1 1YX802      0.0000 
      2 C2         59.4130   32.5490   46.9830 C.3       1 1YX802      0.0000 
      3 C3         59.6130   32.1400   48.4190 C.3       1 1YX802      0.0000 
      4 S1         58.6490   31.2480   46.1000 S.o2      1 1YX802      0.0000 
      5 O1         58.7280   30.0770   46.9310 O.2       1 1YX802      0.0000 
      6 O2         57.4990   31.7300   45.3810 O.2       1 1YX802      0.0000 
      7 N1         59.8070   31.2870   44.9680 N.pl3     1 1YX802      0.0000 
      8 C4         59.6350   32.2820   43.9510 C.3       1 1YX802      0.0000 
      9 C5         60.2110   31.8160   42.6410 C.3       1 1YX802      0.0000 
     10 C6         59.8220   30.3560   42.5180 C.3       1 1YX802      0.0000 
     11 C7         61.1490   29.6920   42.7390 C.2       1 1YX802      0.0000 
     12 N2         62.1330   30.5050   42.8460 N.2       1 1YX802      0.0000 
     13 O3         61.6530   31.8430   42.7740 O.3       1 1YX802      0.0000 
     14 C8         61.3480   28.2330   42.8560 C.ar      1 1YX802      0.0000 
     15 C9         62.6130   27.6910   43.0600 C.ar      1 1YX802      0.0000 
     16 C10        62.7830   26.3260   43.2190 C.ar      1 1YX802      0.0000 
     17 C11        61.6830   25.4630   43.1470 C.ar      1 1YX802      0.0000 
     18 C12        60.4310   26.0430   42.9170 C.ar      1 1YX802      0.0000 
     19 C13        60.2430   27.3880   42.7840 C.ar      1 1YX802      0.0000 
     20 F1         59.3550   25.2200   42.7830 F         1 1YX802      0.0000 
     21 N3         61.8080   24.0510   43.2660 N.3       1 1YX802      0.0000 
     22 C14        60.8280   23.0930   42.7300 C.3       1 1YX802      0.0000 
     23 C15        61.5100   21.7320   42.8030 C.3       1 1YX802      0.0000 
     24 C16        62.8590   21.9850   43.4710 C.3       1 1YX802      0.0000 
     25 C17        63.1340   23.4750   43.1070 C.3       1 1YX802      0.0000 
     26 N4         62.7910   21.8230   44.9210 N.am      1 1YX802      0.0000 
     27 C18        63.7310   22.2640   45.7250 C.2       1 1YX802      0.0000 
     28 O4         64.3890   23.2810   45.4710 O.2       1 1YX802      0.0000 
     29 C19        63.9330   21.4620   46.9760 C.3       1 1YX802      0.0000 
     30 H          60.3971   32.6181   46.4945 H         1 1YX802      0.0000 
     31 H          60.5140   30.6569   45.0513 H         1 1YX802      0.0000 
     32 H          60.1311   33.2262   44.2302 H         1 1YX802      0.0000 
     33 H          58.5680   32.5129   43.7967 H         1 1YX802      0.0000 
     34 H          59.8543   32.3606   41.8542 H         1 1YX802      0.0000 
     35 H          59.4692   30.1605   41.5447 H         1 1YX802      0.0000 
     36 H          59.1484   30.0992   43.2864 H         1 1YX802      0.0000 
     37 H          63.4355   28.3183   43.0929 H         1 1YX802      0.0000 
     38 H          63.7211   25.9368   43.3914 H         1 1YX802      0.0000 
     39 H          59.3093   27.7827   42.6332 H         1 1YX802      0.0000 
     40 H          60.5956   23.3114   41.7048 H         1 1YX802      0.0000 
     41 H          59.9403   23.0705   43.3335 H         1 1YX802      0.0000 
     42 H          61.6627   21.3511   41.8172 H         1 1YX802      0.0000 
     43 H          60.9292   21.0687   43.4054 H         1 1YX802      0.0000 
     44 H          63.5925   21.3990   43.0071 H         1 1YX802      0.0000 
     45 H          63.8249   23.8601   43.8066 H         1 1YX802      0.0000 
     46 H          63.4691   23.5104   42.1062 H         1 1YX802      0.0000 
     47 H          61.9353   21.3281   45.2722 H         1 1YX802      0.0000 
     48 H          59.1860   34.6042   47.3049 H         1 1YX802      0.0000 
     49 H          58.5529   34.1241   45.9067 H         1 1YX802      0.0000 
     50 H          57.7805   33.8229   47.2847 H         1 1YX802      0.0000 
     51 H          60.0954   31.2672   48.4928 H         1 1YX802      0.0000 
     52 H          60.1489   32.8149   48.9262 H         1 1YX802      0.0000 
     53 H          58.7426   32.0354   48.9001 H         1 1YX802      0.0000 
     54 H          64.1838   20.5153   46.7738 H         1 1YX802      0.0000 
     55 H          64.6602   21.8422   47.5475 H         1 1YX802      0.0000 
     56 H          63.1051   21.4327   47.5361 H         1 1YX802      0.0000 
@<TRIPOS>BOND
     1    2    1 1    
     2   48    1 1    
     3   49    1 1    
     4   50    1 1    
     5    3    2 1    
     6    4    2 1    
     7   30    2 1    
     8   51    3 1    
     9   52    3 1    
    10   53    3 1    
    11    5    4 2    
    12    6    4 2    
    13    7    4 1    
    14    8    7 1    
    15   31    7 1    
    16    9    8 1    
    17   32    8 1    
    18   33    8 1    
    19   10    9 1    
    20   13    9 1    
    21   34    9 1    
    22   11   10 1    
    23   35   10 1    
    24   36   10 1    
    25   12   11 2    
    26   14   11 1    
    27   13   12 1    
    28   15   14 ar   
    29   19   14 ar   
    30   16   15 ar   
    31   37   15 1    
    32   17   16 ar   
    33   38   16 1    
    34   18   17 ar   
    35   21   17 1    
    36   19   18 ar   
    37   20   18 1    
    38   39   19 1    
    39   22   21 1    
    40   25   21 1    
    41   23   22 1    
    42   40   22 1    
    43   41   22 1    
    44   24   23 1    
    45   42   23 1    
    46   43   23 1    
    47   25   24 1    
    48   26   24 1    
    49   44   24 1    
    50   45   25 1    
    51   46   25 1    
    52   27   26 am   
    53   47   26 1    
    54   28   27 2    
    55   29   27 1    
    56   54   29 1    
    57   55   29 1    
    58   56   29 1    
@<TRIPOS>SUBSTRUCTURE
     1 1YX802      1 GROUP   
@<TRIPOS>SET

