#    Name: 2upj_U02_1_INTS_M
#    Modification time : Tue Mar 25 00:12:03 2014

@<TRIPOS>MOLECULE
2upj_U02_1_INTS_M
   77     0     9     0     0
SMALL
NO_CHARGES


@<TRIPOS>ATOM
      1 CA          6.7965   24.8400   -0.7110 C.3       3 GLC5        0.0000 
      2 CA          6.4610   25.1010    0.9090 C.3       9 GLL5        0.0000 
      3 CA          7.1320   24.5790   -2.3310 C.3       6 GLP5        0.0000 
      4 CA          7.1040   30.5175    5.8485 C.3       3 GLC5        0.0000 
      5 CA          5.9780   28.9610    6.7900 C.3       9 GLL5        0.0000 
      6 CA          8.2300   32.0740    4.9070 C.3       6 GLP5        0.0000 
      7 CA          5.4480   27.8230    8.6055 C.3       3 GLC5        0.0000 
      8 CA          4.9180   26.6850   10.4210 C.3       6 GLP5        0.0000 
      9 N           9.3305   30.0190    5.8770 N.am      2 SEC2        0.0000 
     10 N           8.3630   29.1260    6.4950 N.am      8 SEL2        0.0000 
     11 N          10.2980   30.9120    5.2590 N.am      5 SEP2        0.0000 
     12 N           9.0690   30.5545    7.0550 N.am      2 SEC2        0.0000 
     13 N           9.7750   31.9830    7.6150 N.am      5 SEP2        0.0000 
     14 O           7.0335   25.7500    6.9460 O.2       1 ALC1        0.0000 
     15 O           7.5380   27.1250    7.0150 O.2       7 ALL1        0.0000 
     16 O           6.5290   24.3750    6.8770 O.2       4 ALP1        0.0000 
     17 CA          8.4200   26.8555    9.7720 C.3       3 GLC5        0.0000 
     18 CA          9.7160   26.9400    7.9910 C.3       9 GLL5        0.0000 
     19 CA          7.1240   26.7710   11.5530 C.3       6 GLP5        0.0000 
     20 CA         12.8210   25.9545    9.1270 C.3       3 GLC5        0.0000 
     21 CA         11.0270   26.4770    8.0040 C.3       9 GLL5        0.0000 
     22 CA         14.6150   25.4320   10.2500 C.3       6 GLP5        0.0000 
     23 CA         10.8690   24.7760    9.4615 C.3       3 GLC5        0.0000 
     24 CA         10.7110   23.0750   10.9190 C.3       6 GLP5        0.0000 
     25 CA         11.3865   27.3955    5.5400 C.3       3 GLC5        0.0000 
     26 CA         10.6620   25.4080    5.8760 C.3       9 GLL5        0.0000 
     27 CA         12.1110   29.3830    5.2040 C.3       6 GLP5        0.0000 
     28 CA          8.7705   22.1530    2.2760 C.3       3 GLC5        0.0000 
     29 CA         10.3680   23.7310    2.3980 C.3       9 GLL5        0.0000 
     30 CA          7.1730   20.5750    2.1540 C.3       6 GLP5        0.0000 
     31 CA         11.5270   23.6325    0.6760 C.3       3 GLC5        0.0000 
     32 CA         12.6860   23.5340   -1.0460 C.3       6 GLP5        0.0000 
     33 N          10.0990   21.1955    5.5270 N.am      2 SEC2        0.0000 
     34 N          11.0030   22.1540    5.9050 N.am      8 SEL2        0.0000 
     35 N           9.1950   20.2370    5.1490 N.am      5 SEP2        0.0000 
     36 O          14.9380   25.9715    5.2920 O.2       1 ALC1        0.0000 
     37 O          14.3710   25.2190    4.4690 O.2       7 ALL1        0.0000 
     38 O          15.5050   26.7240    6.1150 O.2       4 ALP1        0.0000 
     39 CA         16.9420   22.7005    9.9700 C.3       3 GLC5        0.0000 
     40 CA         16.0620   22.0760    8.1950 C.3       9 GLL5        0.0000 
     41 CA         17.8220   23.3250   11.7450 C.3       6 GLP5        0.0000 
     42 CA         15.3385   23.7540    9.2225 C.3       3 GLC5        0.0000 
     43 CA         13.9495   19.8145    3.5325 C.3       3 GLC5        0.0000 
     44 CA         15.6310   20.4160    4.6300 C.3       9 GLL5        0.0000 
     45 CA         12.2680   19.2130    2.4350 C.3       6 GLP5        0.0000 
     46 CA         17.3955   20.8155    2.2570 C.3       3 GLC5        0.0000 
     47 CA         17.1050   19.1090    3.0910 C.3       9 GLL5        0.0000 
     48 CA         17.6860   22.5220    1.4230 C.3       6 GLP5        0.0000 
     49 CA         18.4900   20.4210    2.6805 C.3       3 GLC5        0.0000 
     50 CA         18.2020   18.2940    2.8400 C.3       9 GLL5        0.0000 
     51 CA         18.7780   22.5480    2.5210 C.3       6 GLP5        0.0000 
     52 CA         19.9705   19.2540    2.4685 C.3       3 GLC5        0.0000 
     53 CA         21.7390   20.2140    2.0970 C.3       6 GLP5        0.0000 
     54 CA         19.1710   17.5010    1.1265 C.3       3 GLC5        0.0000 
     55 CA         20.1400   16.7080   -0.5870 C.3       6 GLP5        0.0000 
     56 CA          6.0979   23.1410    1.4406 C.3       3 GLC5        0.0000 
     57 CA          5.3230   24.0290    2.8610 C.3       9 GLL5        0.0000 
     58 CA          6.2890   21.4020    1.2150 C.3       6 GLP5        0.0000 
     59 CA         10.4032   27.4387   10.0053 C.3       3 GLC5        0.0000 
     60 CA         10.4350   28.1690   12.0130 C.3       6 GLP5        0.0000 
     61 CA         11.8699   27.6874    7.0021 C.3       3 GLC5        0.0000 
     62 CA         12.8070   29.1710    6.5290 C.3       6 GLP5        0.0000 
     63 CA          8.9588   23.8280    5.9975 C.3       3 GLC5        0.0000 
     64 CA          7.9230   22.0300    6.1200 C.3       6 GLP5        0.0000 
     65 CA          8.8480   23.1613    4.7713 C.3       3 GLC5        0.0000 
     66 CA         10.2740   23.9690    3.8860 C.3       9 GLL5        0.0000 
     67 CA         10.7010   21.8095    3.1725 C.3       3 GLC5        0.0000 
     68 CA         11.0810   19.7690    3.2030 C.3       6 GLP5        0.0000 
     69 CA          9.5000   23.8447    0.7147 C.3       3 GLC5        0.0000 
     70 CA          9.1800   23.5160   -1.2490 C.3       6 GLP5        0.0000 
     71 CA         13.8740   19.9510    6.8468 C.3       3 GLC5        0.0000 
     72 CA         14.3780   21.9500    5.9520 C.3       9 GLL5        0.0000 
     73 CA         12.8870   18.5020    7.6770 C.3       6 GLP5        0.0000 
     74 CA         17.5012   21.2545    3.5155 C.3       3 GLC5        0.0000 
     75 CA         20.5415   18.6260    3.8135 C.3       3 GLC5        0.0000 
     76 CA         18.7070   18.2570    5.1840 C.3       9 GLL5        0.0000 
     77 CA         22.2250   19.1910    3.0920 C.3       6 GLP5        0.0000 
@<TRIPOS>BOND
@<TRIPOS>SUBSTRUCTURE
     1 ALC1       14 GROUP        1 X    ALC  0     ROOT ALC X 1
     2 SEC2        9 GROUP        1 X    SEC  0     **** SEC X 2
     3 GLC5        1 GROUP        1 X    GLC  0     **** GLC X 6
     4 ALP1       16 GROUP        1 Y    ALP  0     ROOT ALP Y 8
     5 SEP2       11 GROUP        1 Y    SEP  0     **** SEP Y 9
     6 GLP5        3 GROUP        1 Y    GLP  0     **** GLP Y 13
     7 ALL1       15 GROUP        1 Z    ALL  0     ROOT ALL Z 15
     8 SEL2       10 GROUP        1 Z    SEL  0     **** SEL Z 16
     9 GLL5        2 GROUP        1 Z    GLL  0     **** GLL Z 20
@<TRIPOS>SET

