#    Name: 2upj_U02_1_ligand
#    Modification time : Tue Mar 25 00:12:03 2014

@<TRIPOS>MOLECULE
2upj_U02_1_ligand
   81    84     1     0     0
SMALL
NO_CHARGES


@<TRIPOS>ATOM
      1 CZ8         4.0140   25.4800    1.3280 C.3       1 U02100      0.0000 
      2 CZ7         5.3230   24.0290    2.8610 C.3       1 U02100      0.0000 
      3 CZ6         6.4610   25.1010    0.9090 C.3       1 U02100      0.0000 
      4 CZ5         5.3820   25.2890    1.9860 C.3       1 U02100      0.0000 
      5 OZ5         5.7870   26.4810    2.6900 O.3       1 U02100      0.0000 
      6 CZ4         5.1160   26.8180    3.8620 C.2       1 U02100      0.0000 
      7 OZ4         4.1610   26.1280    4.2490 O.2       1 U02100      0.0000 
      8 NZ3         5.5360   27.9080    4.4860 N.am      1 U02100      0.0000 
      9 CZ3         5.0140   28.2630    5.8170 C.3       1 U02100      0.0000 
     10 CZ2         5.9780   28.9610    6.7900 C.3       1 U02100      0.0000 
     11 CZ1         7.3950   28.4150    6.7650 C.2       1 U02100      0.0000 
     12 OZ1         8.3630   29.1260    6.4950 O.2       1 U02100      0.0000 
     13 NZ1         7.5380   27.1250    7.0150 N.am      1 U02100      0.0000 
     14 CB5         8.8640   26.6390    6.9340 C.ar      1 U02100      0.0000 
     15 CB4         9.7160   26.9400    7.9910 C.ar      1 U02100      0.0000 
     16 CB3        11.0270   26.4770    8.0040 C.ar      1 U02100      0.0000 
     17 CB2        11.4940   25.6990    6.9530 C.ar      1 U02100      0.0000 
     18 CB1        10.6620   25.4080    5.8760 C.ar      1 U02100      0.0000 
     19 CB6         9.3270   25.8440    5.8740 C.ar      1 U02100      0.0000 
     20 CG1        11.3190   24.6560    4.7140 C.3       1 U02100      0.0000 
     21 CG2        10.2740   23.9690    3.8860 C.3       1 U02100      0.0000 
     22 CG3        10.3680   23.7310    2.3980 C.3       1 U02100      0.0000 
     23 CG4         9.2720   24.6160    2.9590 C.3       1 U02100      0.0000 
     24 CA         12.4910   23.7470    5.1550 C.2       1 U02100      0.0000 
     25 CA2        12.1290   22.5830    5.8630 C.2       1 U02100      0.0000 
     26 OA2        11.0030   22.1540    5.9050 O.2       1 U02100      0.0000 
     27 OA3        13.0740   21.7400    6.2300 O.3       1 U02100      0.0000 
     28 CA4        14.3780   21.9500    5.9520 C.2       1 U02100      0.0000 
     29 CA5        14.8180   23.1090    5.3040 C.2       1 U02100      0.0000 
     30 CA6        13.8540   24.0260    4.8810 C.2       1 U02100      0.0000 
     31 OA6        14.3710   25.2190    4.4690 O.3       1 U02100      0.0000 
     32 CD         15.3440   20.8500    6.0810 C.3       1 U02100      0.0000 
     33 CD1        16.5300   21.2650    6.9660 C.3       1 U02100      0.0000 
     34 CD2        16.0620   22.0760    8.1950 C.3       1 U02100      0.0000 
     35 CE         15.6310   20.4160    4.6300 C.3       1 U02100      0.0000 
     36 CE1        16.8180   19.5060    4.3900 C.ar      1 U02100      0.0000 
     37 CE2        17.1050   19.1090    3.0910 C.ar      1 U02100      0.0000 
     38 CE3        18.2020   18.2940    2.8400 C.ar      1 U02100      0.0000 
     39 CE4        19.0090   17.8650    3.8860 C.ar      1 U02100      0.0000 
     40 CE5        18.7070   18.2570    5.1840 C.ar      1 U02100      0.0000 
     41 CE6        17.6110   19.0730    5.4380 C.ar      1 U02100      0.0000 
     42 H           6.2349   28.5580    4.0904 H         1 U02100      0.0000 
     43 H           4.6252   27.3441    6.3318 H         1 U02100      0.0000 
     44 H           4.1111   28.9216    5.7095 H         1 U02100      0.0000 
     45 H           5.5711   28.8701    7.8121 H         1 U02100      0.0000 
     46 H           5.9990   30.0382    6.5502 H         1 U02100      0.0000 
     47 H           6.7904   26.4971    7.2492 H         1 U02100      0.0000 
     48 H           9.3700   27.5156    8.7775 H         1 U02100      0.0000 
     49 H          11.6472   26.7101    8.7888 H         1 U02100      0.0000 
     50 H          12.4571   25.3361    6.9691 H         1 U02100      0.0000 
     51 H           8.7024   25.5861    5.1121 H         1 U02100      0.0000 
     52 H          11.7742   25.4573    4.0581 H         1 U02100      0.0000 
     53 H           9.7611   23.1155    4.2114 H         1 U02100      0.0000 
     54 H           9.9886   22.8826    2.2116 H         1 U02100      0.0000 
     55 H          11.0474   24.2946    2.0526 H         1 U02100      0.0000 
     56 H           9.5326   25.5179    2.8288 H         1 U02100      0.0000 
     57 H           8.4738   24.1059    2.9878 H         1 U02100      0.0000 
     58 H          15.8028   23.2761    5.1476 H         1 U02100      0.0000 
     59 H          14.8155   20.0124    6.5671 H         1 U02100      0.0000 
     60 H          17.2179   21.8740    6.3821 H         1 U02100      0.0000 
     61 H          17.0514   20.3731    7.3091 H         1 U02100      0.0000 
     62 H          15.7512   21.3408    4.0114 H         1 U02100      0.0000 
     63 H          14.7092   19.9242    4.2290 H         1 U02100      0.0000 
     64 H          16.5058   19.4180    2.3139 H         1 U02100      0.0000 
     65 H          18.4176   18.0068    1.8741 H         1 U02100      0.0000 
     66 H          19.8188   17.2655    3.7021 H         1 U02100      0.0000 
     67 H          19.3012   17.9399    5.9664 H         1 U02100      0.0000 
     68 H          17.3923   19.3527    6.4031 H         1 U02100      0.0000 
     69 H           3.9943   26.2887    0.7401 H         1 U02100      0.0000 
     70 H           3.7634   24.6973    0.7583 H         1 U02100      0.0000 
     71 H           3.2881   25.5931    2.0064 H         1 U02100      0.0000 
     72 H           6.1953   23.8523    3.3169 H         1 U02100      0.0000 
     73 H           4.6286   24.1059    3.5765 H         1 U02100      0.0000 
     74 H           5.1023   23.2144    2.3247 H         1 U02100      0.0000 
     75 H           7.3683   24.9753    1.3102 H         1 U02100      0.0000 
     76 H           6.2798   24.3007    0.3375 H         1 U02100      0.0000 
     77 H           6.5175   25.8907    0.2981 H         1 U02100      0.0000 
     78 H          16.8299   22.3471    8.7754 H         1 U02100      0.0000 
     79 H          15.5864   22.9141    7.9278 H         1 U02100      0.0000 
     80 H          15.4322   21.5517    8.7681 H         1 U02100      0.0000 
     81 H          14.3429   25.8063    5.2779 H         1 U02100      0.0000 
@<TRIPOS>BOND
     1    4    1 1    
     2   69    1 1    
     3   70    1 1    
     4   71    1 1    
     5    4    2 1    
     6   72    2 1    
     7   73    2 1    
     8   74    2 1    
     9    4    3 1    
    10   75    3 1    
    11   76    3 1    
    12   77    3 1    
    13    5    4 1    
    14    6    5 1    
    15    7    6 2    
    16    8    6 am   
    17    9    8 1    
    18   42    8 1    
    19   10    9 1    
    20   43    9 1    
    21   44    9 1    
    22   11   10 1    
    23   45   10 1    
    24   46   10 1    
    25   12   11 2    
    26   13   11 am   
    27   14   13 1    
    28   47   13 1    
    29   15   14 ar   
    30   19   14 ar   
    31   16   15 ar   
    32   48   15 1    
    33   17   16 ar   
    34   49   16 1    
    35   18   17 ar   
    36   50   17 1    
    37   19   18 ar   
    38   20   18 1    
    39   51   19 1    
    40   21   20 1    
    41   24   20 1    
    42   52   20 1    
    43   22   21 1    
    44   23   21 1    
    45   53   21 1    
    46   23   22 1    
    47   54   22 1    
    48   55   22 1    
    49   56   23 1    
    50   57   23 1    
    51   25   24 1    
    52   30   24 2    
    53   26   25 2    
    54   27   25 1    
    55   28   27 1    
    56   29   28 2    
    57   32   28 1    
    58   30   29 1    
    59   58   29 1    
    60   31   30 1    
    61   81   31 1    
    62   33   32 1    
    63   35   32 1    
    64   59   32 1    
    65   34   33 1    
    66   60   33 1    
    67   61   33 1    
    68   78   34 1    
    69   79   34 1    
    70   80   34 1    
    71   36   35 1    
    72   62   35 1    
    73   63   35 1    
    74   37   36 ar   
    75   41   36 ar   
    76   38   37 ar   
    77   64   37 1    
    78   39   38 ar   
    79   65   38 1    
    80   40   39 ar   
    81   66   39 1    
    82   41   40 ar   
    83   67   40 1    
    84   68   41 1    
@<TRIPOS>SUBSTRUCTURE
     1 U02100      1 GROUP   
@<TRIPOS>SET

