#    Name: 4MA5_1_CAVITY_N1_6.mol2
#    Modification time : Tue Mar 11 14:59:23 2014

@<TRIPOS>MOLECULE
4MA5_1_CAVITY_N1_6.mol2
  206     0     6     0     0
SMALL
NO_CHARGES


@<TRIPOS>ATOM
      1 CZ         36.8175   15.5353   20.7538 C.ar      4 PHE5        0.0000 
      2 CZ         37.0042   17.6957   22.1847 C.ar      4 PHE5        0.0000 
      3 CZ         36.8884   19.0956   21.6586 C.ar      4 PHE5        0.0000 
      4 CZ         36.7726   20.4956   21.1325 C.ar      4 PHE5        0.0000 
      5 DU         35.9221   15.8930   21.9029 H         6 CUB7        0.0000 
      6 CZ         35.8063   17.2930   21.3768 C.ar      4 PHE5        0.0000 
      7 CZ         35.6905   18.6929   20.8506 C.ar      4 PHE5        0.0000 
      8 CZ         35.5747   20.0928   20.3245 C.ar      4 PHE5        0.0000 
      9 N          35.4589   21.4927   19.7984 N.2       1 ALA2        0.0000 
     10 O          34.8400   14.0904   21.6210 O.2       1 ALA2        0.0000 
     11 O          34.7242   15.4903   21.0949 O.2       1 ALA2        0.0000 
     12 CA         34.6084   16.8902   20.5688 C.3       5 GLY6        0.0000 
     13 CA         34.4926   18.2901   20.0427 C.3       5 GLY6        0.0000 
     14 CA         34.3768   19.6901   19.5166 C.3       5 GLY6        0.0000 
     15 CA         34.2610   21.0900   18.9904 C.3       5 GLY6        0.0000 
     16 O          34.1452   22.4899   18.4643 O.2       1 ALA2        0.0000 
     17 CA         33.0631   20.6873   18.1825 C.3       5 GLY6        0.0000 
     18 N          32.9473   22.0872   17.6564 N.2       1 ALA2        0.0000 
     19 DU         37.3068   18.4562   24.1418 H         6 CUB7        0.0000 
     20 CZ         37.1910   19.8562   23.6157 C.ar      4 PHE5        0.0000 
     21 DU         36.2247   16.6536   23.8599 H         6 CUB7        0.0000 
     22 DU         36.1089   18.0535   23.3338 H         6 CUB7        0.0000 
     23 DU         35.9931   19.4534   22.8077 H         6 CUB7        0.0000 
     24 CZ         35.8772   20.8533   22.2816 C.ar      4 PHE5        0.0000 
     25 O          35.1426   14.8509   23.5780 O.2       1 ALA2        0.0000 
     26 DU         35.0268   16.2508   23.0519 H         6 CUB7        0.0000 
     27 DU         34.9110   17.6507   22.5258 H         6 CUB7        0.0000 
     28 DU         34.7952   19.0507   21.9997 H         6 CUB7        0.0000 
     29 DU         34.6794   20.4506   21.4736 H         6 CUB7        0.0000 
     30 CZ         34.5635   21.8505   20.9475 C.ar      4 PHE5        0.0000 
     31 N          34.0605   13.0482   23.2962 N.2       1 ALA2        0.0000 
     32 O          33.8289   15.8481   22.2440 O.2       1 ALA2        0.0000 
     33 O          33.7131   17.2480   21.7178 O.2       1 ALA2        0.0000 
     34 CA         33.5973   18.6479   21.1917 C.3       5 GLY6        0.0000 
     35 CA         33.4815   20.0478   20.6656 C.3       5 GLY6        0.0000 
     36 CZ         33.3656   21.4478   20.1395 C.ar      4 PHE5        0.0000 
     37 CZ         33.2498   22.8477   19.6134 C.ar      4 PHE5        0.0000 
     38 O          32.5152   16.8452   20.9099 O.2       1 ALA2        0.0000 
     39 NZ         32.1677   21.0450   19.3315 N.2       3 LYS4        0.0000 
     40 NZ         32.0519   22.4450   18.8054 N.2       3 LYS4        0.0000 
     41 N          37.7251   17.8168   26.6250 N.2       1 ALA2        0.0000 
     42 CZ         37.4935   20.6167   25.5727 C.ar      4 PHE5        0.0000 
     43 O          36.5272   17.4141   25.8170 O.2       1 ALA2        0.0000 
     44 CA         36.4114   18.8140   25.2909 C.3       5 GLY6        0.0000 
     45 CZ         36.2956   20.2139   24.7648 C.ar      4 PHE5        0.0000 
     46 CA         35.3293   17.0113   25.0090 C.3       5 GLY6        0.0000 
     47 DU         35.2135   18.4113   24.4829 H         6 CUB7        0.0000 
     48 DU         35.0977   19.8112   23.9568 H         6 CUB7        0.0000 
     49 CZ         34.9819   21.2111   23.4307 C.ar      4 PHE5        0.0000 
     50 CA         34.2473   15.2087   24.7271 C.3       5 GLY6        0.0000 
     51 CA         34.1315   16.6086   24.2010 C.3       5 GLY6        0.0000 
     52 DU         34.0156   18.0085   23.6749 H         6 CUB7        0.0000 
     53 CZ         33.7840   20.8084   22.6227 C.ar      4 PHE5        0.0000 
     54 CA         33.0494   14.8059   23.9191 C.3       5 GLY6        0.0000 
     55 O          32.9336   16.2058   23.3930 O.2       1 ALA2        0.0000 
     56 O          32.8177   17.6058   22.8669 O.2       1 ALA2        0.0000 
     57 DU         32.7019   19.0057   22.3408 H         6 CUB7        0.0000 
     58 DU         32.5861   20.4056   21.8147 H         6 CUB7        0.0000 
     59 CZ         32.4703   21.8055   21.2886 C.ar      4 PHE5        0.0000 
     60 O          31.6198   17.2030   22.0589 O.2       1 ALA2        0.0000 
     61 OD1        31.5040   18.6029   21.5328 O.3       2 ASP3        0.0000 
     62 OD1        31.3882   20.0029   21.0067 O.3       2 ASP3        0.0000 
     63 OD1        31.2724   21.4028   20.4806 O.3       2 ASP3        0.0000 
     64 NZ         31.1566   22.8027   19.9545 N.2       3 LYS4        0.0000 
     65 CA         35.6319   17.7718   26.9661 C.3       5 GLY6        0.0000 
     66 CA         35.5161   19.1718   26.4399 C.3       5 GLY6        0.0000 
     67 NZ         35.4003   20.5717   25.9138 N.2       3 LYS4        0.0000 
     68 CA         34.4340   17.3691   26.1581 C.3       5 GLY6        0.0000 
     69 CA         34.3182   18.7690   25.6320 C.3       5 GLY6        0.0000 
     70 NZ         34.2024   20.1690   25.1059 N.2       3 LYS4        0.0000 
     71 NZ         34.0866   21.5689   24.5797 N.2       3 LYS4        0.0000 
     72 CA         33.2361   16.9664   25.3501 C.3       5 GLY6        0.0000 
     73 DU         33.1203   18.3663   24.8240 H         6 CUB7        0.0000 
     74 DU         33.0045   19.7662   24.2979 H         6 CUB7        0.0000 
     75 O          32.8887   21.1661   23.7718 O.2       1 ALA2        0.0000 
     76 CA         32.0382   16.5636   24.5421 C.3       5 GLY6        0.0000 
     77 DU         31.9224   17.9635   24.0160 H         6 CUB7        0.0000 
     78 DU         31.8066   19.3635   23.4899 H         6 CUB7        0.0000 
     79 N          31.6908   20.7634   22.9638 N.2       1 ALA2        0.0000 
     80 CA         30.8403   16.1609   23.7341 C.3       5 GLY6        0.0000 
     81 N          30.7245   17.5608   23.2080 N.2       1 ALA2        0.0000 
     82 OD1        30.6087   18.9607   22.6819 O.3       2 ASP3        0.0000 
     83 OD1        30.4929   20.3606   22.1558 O.3       2 ASP3        0.0000 
     84 N          29.6424   15.7581   22.9262 N.2       1 ALA2        0.0000 
     85 N          29.5266   17.1580   22.4000 N.2       1 ALA2        0.0000 
     86 CA         33.4229   19.1268   26.7810 C.3       5 GLY6        0.0000 
     87 O          33.3071   20.5267   26.2549 O.2       1 ALA2        0.0000 
     88 N          32.2250   18.7240   25.9731 N.2       1 ALA2        0.0000 
     89 O          32.1092   20.1240   25.4469 O.2       1 ALA2        0.0000 
     90 O          31.9933   21.5239   24.9208 O.2       1 ALA2        0.0000 
     91 N          31.1429   16.9214   25.6912 N.2       1 ALA2        0.0000 
     92 DU         31.0271   18.3213   25.1651 H         6 CUB7        0.0000 
     93 DU         30.9113   19.7212   24.6390 H         6 CUB7        0.0000 
     94 O          30.7954   21.1212   24.1129 O.2       1 ALA2        0.0000 
     95 O          29.9450   16.5186   24.8832 O.2       1 ALA2        0.0000 
     96 DU         29.8292   17.9186   24.3571 H         6 CUB7        0.0000 
     97 NZ         29.7134   19.3185   23.8310 N.2       3 LYS4        0.0000 
     98 N          29.5975   20.7184   23.3049 N.2       1 ALA2        0.0000 
     99 O          28.7471   16.1159   24.0752 O.2       1 ALA2        0.0000 
    100 DU         28.6313   17.5158   23.5491 H         6 CUB7        0.0000 
    101 OD1        28.5155   18.9157   23.0230 O.3       2 ASP3        0.0000 
    102 OD1        28.3996   20.3157   22.4969 O.3       2 ASP3        0.0000 
    103 O          27.5492   15.7131   23.2673 O.2       1 ALA2        0.0000 
    104 O          27.4334   17.1131   22.7411 O.2       1 ALA2        0.0000 
    105 O          27.3176   18.5130   22.2150 O.2       1 ALA2        0.0000 
    106 N          31.3296   19.0818   27.1221 N.2       1 ALA2        0.0000 
    107 N          31.2138   20.4817   26.5960 N.2       1 ALA2        0.0000 
    108 N          30.2475   17.2791   26.8403 N.2       1 ALA2        0.0000 
    109 N          30.1317   18.6791   26.3142 N.2       1 ALA2        0.0000 
    110 NZ         30.0159   20.0790   25.7880 N.2       3 LYS4        0.0000 
    111 O          29.9001   21.4789   25.2619 O.2       1 ALA2        0.0000 
    112 O          29.0496   16.8764   26.0323 O.2       1 ALA2        0.0000 
    113 NZ         28.9338   18.2763   25.5062 N.2       3 LYS4        0.0000 
    114 O          27.8517   16.4736   25.2243 O.2       1 ALA2        0.0000 
    115 NZ         27.7359   17.8736   24.6982 N.2       3 LYS4        0.0000 
    116 NZ         27.6201   19.2735   24.1721 N.2       3 LYS4        0.0000 
    117 O          26.6538   16.0709   24.4163 O.2       1 ALA2        0.0000 
    118 O          26.5380   17.4708   23.8902 O.2       1 ALA2        0.0000 
    119 O          26.4222   18.8708   23.3641 O.2       1 ALA2        0.0000 
    120 O          26.3064   20.2707   22.8380 O.2       1 ALA2        0.0000 
    121 N          30.5501   18.0397   28.7973 N.2       1 ALA2        0.0000 
    122 N          30.4343   19.4396   28.2712 N.2       1 ALA2        0.0000 
    123 N          30.3185   20.8395   27.7451 N.2       1 ALA2        0.0000 
    124 N          29.3522   17.6369   27.9893 N.2       1 ALA2        0.0000 
    125 NZ         29.2364   19.0368   27.4632 N.2       3 LYS4        0.0000 
    126 O          28.1543   17.2342   27.1814 O.2       1 ALA2        0.0000 
    127 NZ         28.0385   18.6341   26.6553 N.2       3 LYS4        0.0000 
    128 O          26.9564   16.8314   26.3734 O.2       1 ALA2        0.0000 
    129 NZ         26.8406   18.2313   25.8473 N.2       3 LYS4        0.0000 
    130 N          25.7585   16.4287   25.5654 N.2       1 ALA2        0.0000 
    131 O          25.6427   17.8286   25.0393 O.2       1 ALA2        0.0000 
    132 NZ         25.5269   19.2285   24.5132 N.2       3 LYS4        0.0000 
    133 O          24.2132   20.2257   23.1791 O.2       1 ALA2        0.0000 
    134 CA         23.0153   19.8230   22.3711 C.3       5 GLY6        0.0000 
    135 N          30.8527   18.8002   30.7544 N.2       1 ALA2        0.0000 
    136 NZ         29.6548   18.3974   29.9464 N.2       3 LYS4        0.0000 
    137 N          29.5390   19.7974   29.4203 N.2       1 ALA2        0.0000 
    138 NZ         28.4569   17.9947   29.1384 N.2       3 LYS4        0.0000 
    139 NZ         28.3411   19.3946   28.6123 N.2       3 LYS4        0.0000 
    140 O          27.2590   17.5919   28.3304 O.2       1 ALA2        0.0000 
    141 NZ         27.1432   18.9919   27.8043 N.2       3 LYS4        0.0000 
    142 O          26.0611   17.1892   27.5225 O.2       1 ALA2        0.0000 
    143 NZ         25.9453   18.5891   26.9963 N.2       3 LYS4        0.0000 
    144 N          24.8632   16.7864   26.7145 N.2       1 ALA2        0.0000 
    145 NZ         24.7474   18.1864   26.1884 N.2       3 LYS4        0.0000 
    146 N          23.5495   17.7836   25.3804 N.2       1 ALA2        0.0000 
    147 NZ         23.4337   19.1835   24.8543 N.2       3 LYS4        0.0000 
    148 NZ         23.3178   20.5835   24.3282 N.2       3 LYS4        0.0000 
    149 O          22.3516   17.3809   24.5724 O.2       1 ALA2        0.0000 
    150 O          22.2358   18.7808   24.0463 O.2       1 ALA2        0.0000 
    151 N          22.1199   20.1807   23.5202 N.2       1 ALA2        0.0000 
    152 CA         29.9573   19.1579   31.9035 C.3       5 GLY6        0.0000 
    153 N          29.8415   20.5579   31.3773 N.2       1 ALA2        0.0000 
    154 NZ         28.7594   18.7552   31.0955 N.2       3 LYS4        0.0000 
    155 N          28.6436   20.1551   30.5694 N.2       1 ALA2        0.0000 
    156 NZ         27.5615   18.3525   30.2875 N.2       3 LYS4        0.0000 
    157 N          27.4457   19.7524   29.7614 N.2       1 ALA2        0.0000 
    158 NZ         26.4795   16.5498   30.0056 N.2       3 LYS4        0.0000 
    159 NZ         26.3636   17.9497   29.4795 N.2       3 LYS4        0.0000 
    160 NZ         26.2478   19.3496   28.9534 N.2       3 LYS4        0.0000 
    161 NZ         26.1320   20.7496   28.4273 N.2       3 LYS4        0.0000 
    162 CZ         25.2816   16.1470   29.1976 C.ar      4 PHE5        0.0000 
    163 DU         25.1657   17.5470   28.6715 H         6 CUB7        0.0000 
    164 NZ         25.0499   18.9469   28.1454 N.2       3 LYS4        0.0000 
    165 N          23.9678   17.1442   27.8636 N.2       1 ALA2        0.0000 
    166 NZ         23.8520   18.5441   27.3374 N.2       3 LYS4        0.0000 
    167 N          22.7699   16.7415   27.0556 N.2       1 ALA2        0.0000 
    168 N          22.6541   18.1414   26.5295 N.2       1 ALA2        0.0000 
    169 NZ         22.5383   19.5413   26.0034 N.2       3 LYS4        0.0000 
    170 NZ         22.4225   20.9412   25.4772 N.2       3 LYS4        0.0000 
    171 N          21.4562   17.7386   25.7215 N.2       1 ALA2        0.0000 
    172 N          21.3404   19.1386   25.1954 N.2       1 ALA2        0.0000 
    173 OD1        27.8641   19.1130   32.2446 O.3       2 ASP3        0.0000 
    174 OD1        26.8978   15.9104   32.4888 O.3       2 ASP3        0.0000 
    175 OD1        26.7820   17.3103   31.9627 O.3       2 ASP3        0.0000 
    176 OD1        26.6662   18.7102   31.4366 O.3       2 ASP3        0.0000 
    177 N          26.5504   20.1101   30.9105 N.2       1 ALA2        0.0000 
    178 NZ         25.8157   14.1077   32.2069 N.2       3 LYS4        0.0000 
    179 NZ         25.6999   15.5076   31.6808 N.2       3 LYS4        0.0000 
    180 NZ         25.5841   16.9075   31.1547 N.2       3 LYS4        0.0000 
    181 O          25.4683   18.3075   30.6286 O.2       1 ALA2        0.0000 
    182 O          25.3525   19.7074   30.1025 O.2       1 ALA2        0.0000 
    183 N          25.2367   21.1073   29.5764 N.2       1 ALA2        0.0000 
    184 CZ         24.6178   13.7049   31.3989 C.ar      4 PHE5        0.0000 
    185 CZ         24.3862   16.5048   30.3467 C.ar      4 PHE5        0.0000 
    186 O          24.2704   17.9047   29.8206 O.2       1 ALA2        0.0000 
    187 O          24.1546   19.3047   29.2945 O.2       1 ALA2        0.0000 
    188 NZ         24.0388   20.7046   28.7684 N.2       3 LYS4        0.0000 
    189 CZ         23.0725   17.5020   29.0126 C.ar      4 PHE5        0.0000 
    190 NZ         22.9567   18.9019   28.4865 N.2       3 LYS4        0.0000 
    191 O          21.8746   17.0992   28.2047 O.2       1 ALA2        0.0000 
    192 NZ         21.7588   18.4992   27.6785 N.2       3 LYS4        0.0000 
    193 OD1        26.9688   19.4707   33.3936 O.3       2 ASP3        0.0000 
    194 OD1        26.0025   16.2681   33.6379 O.3       2 ASP3        0.0000 
    195 OD1        25.8867   17.6681   33.1118 O.3       2 ASP3        0.0000 
    196 O          25.7709   19.0680   32.5856 O.2       1 ALA2        0.0000 
    197 DU         24.8046   15.8654   32.8299 H         6 CUB7        0.0000 
    198 O          24.6888   17.2653   32.3038 O.2       1 ALA2        0.0000 
    199 CZ         23.7225   14.0627   32.5480 C.ar      4 PHE5        0.0000 
    200 CZ         23.6067   15.4626   32.0219 C.ar      4 PHE5        0.0000 
    201 O          23.4909   16.8626   31.4958 O.2       1 ALA2        0.0000 
    202 CZ         22.2930   16.4598   30.6878 C.ar      4 PHE5        0.0000 
    203 O          22.1772   17.8597   30.1617 O.2       1 ALA2        0.0000 
    204 OD1        24.9914   18.0258   34.2608 O.3       2 ASP3        0.0000 
    205 O          23.7935   17.6231   33.4529 O.2       1 ALA2        0.0000 
    206 O          22.5956   17.2203   32.6449 O.2       1 ALA2        0.0000 
@<TRIPOS>BOND
@<TRIPOS>SUBSTRUCTURE
     1 ALA2        9 GROUP   
     2 ASP3       61 GROUP   
     3 LYS4       39 GROUP   
     4 PHE5        1 GROUP   
     5 GLY6       12 GROUP   
     6 CUB7        5 GROUP   
@<TRIPOS>SET

