#    Name: 4ma5_ANP_1_INTS_M
#    Modification time : Tue Mar 25 11:59:20 2014

@<TRIPOS>MOLECULE
4ma5_ANP_1_INTS_M
   59     0    12     0     0
SMALL
NO_CHARGES


@<TRIPOS>ATOM
      1 N          28.8200   22.0220   28.3990 N.am      2 SEC2        0.0000 
      2 N          29.1620   20.7060   28.2860 N.am     10 SEL2        0.0000 
      3 N          28.4780   23.3380   28.5120 N.am      6 SEP2        0.0000 
      4 N          28.0070   21.9490   29.3565 N.am      2 SEC2        0.0000 
      5 N          27.5360   20.5600   30.2010 N.am     10 SEL2        0.0000 
      6 N          27.1855   21.6745   31.0625 N.am      2 SEC2        0.0000 
      7 N          26.8350   22.7890   31.9240 N.am      6 SEP2        0.0000 
      8 N          31.3300   20.1240   30.0950 N.am      2 SEC2        0.0000 
      9 N          29.9740   19.7480   30.4660 N.am     10 SEL2        0.0000 
     10 N          32.6860   20.5000   29.7240 N.am      6 SEP2        0.0000 
     11 N          27.0250   15.7525   27.9010 N.am      2 SEC2        0.0000 
     12 N          26.2660   17.0630   28.0930 N.am     10 SEL2        0.0000 
     13 N          27.7840   14.4420   27.7090 N.am      6 SEP2        0.0000 
     14 N          26.8875   20.3010   26.5545 N.am      2 SEC2        0.0000 
     15 N          26.6010   19.3160   27.1820 N.am     10 SEL2        0.0000 
     16 N          27.1740   21.2860   25.9270 N.am      6 SEP2        0.0000 
     17 OD1        28.5525   16.9600   29.7540 O.co2     3 ASC3        0.0000 
     18 OD1        28.3340   18.2950   29.0150 O.co2    11 ASL3        0.0000 
     19 OD1        28.7710   15.6250   30.4930 O.co2     7 ASP3        0.0000 
     20 N          27.1740   19.9350   25.2880 N.am      2 SEC2        0.0000 
     21 N          27.1740   18.5840   24.6490 N.am     10 SEL2        0.0000 
     22 N          29.1170   15.2665   24.9735 N.am      2 SEC2        0.0000 
     23 N          28.4530   16.4460   24.3070 N.am     10 SEL2        0.0000 
     24 N          29.7810   14.0870   25.6400 N.am      6 SEP2        0.0000 
     25 CA         32.3125   16.6180   26.4725 C.3       4 GLC5        0.0000 
     26 CA         30.8030   18.0920   25.7000 C.3      12 GLL5        0.0000 
     27 CA         33.8220   15.1440   27.2450 C.3       8 GLP5        0.0000 
     28 CA         32.8015   19.1905   27.5995 C.3       4 GLC5        0.0000 
     29 CA         32.0450   18.9390   25.5410 C.3      12 GLL5        0.0000 
     30 CA         33.5580   19.4420   29.6580 C.3       8 GLP5        0.0000 
     31 CA         32.5815   21.0255   27.4550 C.3       4 GLC5        0.0000 
     32 CA         31.8470   20.4500   25.5610 C.3      12 GLL5        0.0000 
     33 CA         33.3160   21.6010   29.3490 C.3       8 GLP5        0.0000 
     34 CA         33.5410   22.7535   23.8470 C.3       4 GLC5        0.0000 
     35 CA         33.1000   20.9480   24.8450 C.3      12 GLL5        0.0000 
     36 CA         33.9820   24.5590   22.8490 C.3       8 GLP5        0.0000 
     37 O          34.3680   22.3495   26.1950 O.2       1 ALC1        0.0000 
     38 O          34.2230   21.0960   25.7140 O.2       9 ALL1        0.0000 
     39 O          34.5130   23.6030   26.6760 O.2       5 ALP1        0.0000 
     40 N          30.1280   20.1880   20.3715 N.am      2 SEC2        0.0000 
     41 N          31.4240   20.6060   20.8180 N.am     10 SEL2        0.0000 
     42 N          28.8320   19.7700   19.9250 N.am      6 SEP2        0.0000 
     43 CA         34.4785   21.4710   17.3985 C.3       4 GLC5        0.0000 
     44 CA         33.2260   21.4710   19.2300 C.3      12 GLL5        0.0000 
     45 CA         35.7310   21.4710   15.5670 C.3       8 GLP5        0.0000 
     46 O          30.9030   21.8205   18.0205 O.2       1 ALC1        0.0000 
     47 O          32.4800   21.7460   18.1570 O.2       9 ALL1        0.0000 
     48 O          29.3260   21.8950   17.8840 O.2       5 ALP1        0.0000 
     49 O          32.9220   22.3035   16.6980 O.2       1 ALC1        0.0000 
     50 O          33.3640   22.8610   15.2390 O.2       5 ALP1        0.0000 
     51 N          35.3090   22.5620   18.0785 N.am      2 SEC2        0.0000 
     52 N          34.5620   21.7110   19.1730 N.am     10 SEL2        0.0000 
     53 N          36.0560   23.4130   16.9840 N.am      6 SEP2        0.0000 
     54 CA         35.5175   23.4600   19.2900 C.3       4 GLC5        0.0000 
     55 CA         35.3090   21.4430   20.2470 C.3      12 GLL5        0.0000 
     56 CA         35.7260   25.4770   18.3330 C.3       8 GLP5        0.0000 
     57 CA         33.0894   19.4620   19.3781 C.3       4 GLC5        0.0000 
     58 CA         32.7030   20.9490   20.4270 C.3      12 GLL5        0.0000 
     59 CA         32.8910   17.9610   18.1130 C.3       8 GLP5        0.0000 
@<TRIPOS>BOND
@<TRIPOS>SUBSTRUCTURE
     1 ALC1       37 GROUP        1 X    ALC  0     ROOT ALC X 1
     2 SEC2        1 GROUP        1 X    SEC  0     **** SEC X 2
     3 ASC3       17 GROUP        1 X    ASC  0     **** ASC X 3
     4 GLC5       25 GROUP        1 X    GLC  0     **** GLC X 6
     5 ALP1       39 GROUP        1 Y    ALP  0     ROOT ALP Y 8
     6 SEP2        3 GROUP        1 Y    SEP  0     **** SEP Y 9
     7 ASP3       19 GROUP        1 Y    ASP  0     **** ASP Y 10
     8 GLP5       27 GROUP        1 Y    GLP  0     **** GLP Y 13
     9 ALL1       38 GROUP        1 Z    ALL  0     ROOT ALL Z 15
    10 SEL2        2 GROUP        1 Z    SEL  0     **** SEL Z 16
    11 ASL3       18 GROUP        1 Z    ASL  0     **** ASL Z 17
    12 GLL5       26 GROUP        1 Z    GLL  0     **** GLL Z 20
@<TRIPOS>SET

