#    Name: 4ma5_ANP_1_ligand
#    Modification time : Tue Mar 25 11:59:20 2014

@<TRIPOS>MOLECULE
4ma5_ANP_1_ligand
   43    45     1     0     0
SMALL
NO_CHARGES


@<TRIPOS>ATOM
      1 PG         28.7550   19.8760   29.4670 P.3       1 ANP401      0.0000 
      2 O1G        29.1620   20.7060   28.2860 O.co2     1 ANP401      0.0000 
      3 O2G        27.5360   20.5600   30.2010 O.co2     1 ANP401      0.0000 
      4 O3G        29.9740   19.7480   30.4660 O.co2     1 ANP401      0.0000 
      5 PB         27.3250   18.0350   27.6910 P.3       1 ANP401      0.0000 
      6 O1B        26.2660   17.0630   28.0930 O.co2     1 ANP401      0.0000 
      7 O2B        26.6010   19.3160   27.1820 O.co2     1 ANP401      0.0000 
      8 N3B        28.3340   18.2950   29.0150 N.4       1 ANP401      0.0000 
      9 PA         28.3240   17.7700   25.0680 P.3       1 ANP401      0.0000 
     10 O1A        27.1740   18.5840   24.6490 O.co2     1 ANP401      0.0000 
     11 O2A        28.4530   16.4460   24.3070 O.co2     1 ANP401      0.0000 
     12 O3A        28.2200   17.3730   26.5910 O.3       1 ANP401      0.0000 
     13 O5'        29.6600   18.6140   24.9770 O.3       1 ANP401      0.0000 
     14 C5'        30.8030   18.0920   25.7000 C.3       1 ANP401      0.0000 
     15 C4'        32.0450   18.9390   25.5410 C.3       1 ANP401      0.0000 
     16 O4'        32.6730   18.6770   24.2640 O.3       1 ANP401      0.0000 
     17 C3'        31.8470   20.4500   25.5610 C.3       1 ANP401      0.0000 
     18 O3'        31.7280   20.9660   26.8890 O.3       1 ANP401      0.0000 
     19 C2'        33.1000   20.9480   24.8450 C.3       1 ANP401      0.0000 
     20 O2'        34.2230   21.0960   25.7140 O.3       1 ANP401      0.0000 
     21 C1'        33.3590   19.8410   23.8160 C.3       1 ANP401      0.0000 
     22 N9         32.8700   20.2020   22.4960 N.pl3     1 ANP401      0.0000 
     23 C8         31.5730   20.1740   22.0530 C.2       1 ANP401      0.0000 
     24 N7         31.4240   20.6060   20.8180 N.2       1 ANP401      0.0000 
     25 C5         32.7030   20.9490   20.4270 C.ar      1 ANP401      0.0000 
     26 C6         33.2260   21.4710   19.2300 C.ar      1 ANP401      0.0000 
     27 N6         32.4800   21.7460   18.1570 N.pl3     1 ANP401      0.0000 
     28 N1         34.5620   21.7110   19.1730 N.ar      1 ANP401      0.0000 
     29 C2         35.3090   21.4430   20.2470 C.ar      1 ANP401      0.0000 
     30 N3         34.9290   20.9450   21.4260 N.ar      1 ANP401      0.0000 
     31 C4         33.6110   20.7160   21.4580 C.ar      1 ANP401      0.0000 
     32 H          31.0417   17.0627   25.3614 H         1 ANP401      0.0000 
     33 H          30.5761   18.0124   26.7831 H         1 ANP401      0.0000 
     34 H          32.7591   18.6909   26.3292 H         1 ANP401      0.0000 
     35 H          31.0085   20.6730   24.9350 H         1 ANP401      0.0000 
     36 H          32.8486   21.8300   24.3069 H         1 ANP401      0.0000 
     37 H          34.4228   19.6622   23.7912 H         1 ANP401      0.0000 
     38 H          30.8258   19.8492   22.6377 H         1 ANP401      0.0000 
     39 H          31.5061   21.5315   18.2315 H         1 ANP401      0.0000 
     40 H          32.9623   22.1417   17.3755 H         1 ANP401      0.0000 
     41 H          36.3889   21.6635   20.1460 H         1 ANP401      0.0000 
     42 H          30.7834   20.7760   27.1567 H         1 ANP401      0.0000 
     43 H          34.2173   22.0593   25.9823 H         1 ANP401      0.0000 
@<TRIPOS>BOND
     1    2    1 ar   
     2    3    1 ar   
     3    4    1 ar   
     4    8    1 1    
     5    6    5 ar   
     6    7    5 ar   
     7    8    5 1    
     8   12    5 1    
     9   10    9 ar   
    10   11    9 ar   
    11   12    9 1    
    12   13    9 1    
    13   14   13 1    
    14   15   14 1    
    15   32   14 1    
    16   33   14 1    
    17   16   15 1    
    18   17   15 1    
    19   34   15 1    
    20   21   16 1    
    21   18   17 1    
    22   19   17 1    
    23   35   17 1    
    24   42   18 1    
    25   20   19 1    
    26   21   19 1    
    27   36   19 1    
    28   43   20 1    
    29   22   21 1    
    30   37   21 1    
    31   23   22 1    
    32   31   22 1    
    33   24   23 2    
    34   38   23 1    
    35   25   24 1    
    36   26   25 ar   
    37   31   25 ar   
    38   27   26 1    
    39   28   26 ar   
    40   39   27 1    
    41   40   27 1    
    42   29   28 ar   
    43   30   29 ar   
    44   41   29 1    
    45   31   30 ar   
@<TRIPOS>SUBSTRUCTURE
     1 ANP401      1 GROUP   
@<TRIPOS>SET

