#    Name: 2VQZ_3_CAVITY_N1_ALL.mol2
#    Modification time : Mon Mar 10 17:28:53 2014

@<TRIPOS>MOLECULE
2VQZ_3_CAVITY_N1_ALL.mol2
  112     0     7     0     0
SMALL
NO_CHARGES


@<TRIPOS>ATOM
      1 N          67.0845  -13.5486  -20.3736 N.2       2 ALA2        0.0000 
      2 CZ         64.2580  -14.8408  -19.1122 C.ar      5 PHE5        0.0000 
      3 CZ         65.0996  -14.2814  -20.2207 C.ar      5 PHE5        0.0000 
      4 CZ         65.9413  -13.7219  -21.3292 C.ar      5 PHE5        0.0000 
      5 DU         66.7830  -13.1625  -22.4376 H         7 CUB7        0.0000 
      6 DU         67.6246  -12.6031  -23.5461 H         7 CUB7        0.0000 
      7 CZ         62.2731  -15.5735  -18.9593 C.ar      5 PHE5        0.0000 
      8 CZ         63.1148  -15.0141  -20.0678 C.ar      5 PHE5        0.0000 
      9 DU         63.9564  -14.4547  -21.1762 H         7 CUB7        0.0000 
     10 DU         64.7981  -13.8953  -22.2847 H         7 CUB7        0.0000 
     11 DU         65.6397  -13.3359  -23.3931 H         7 CUB7        0.0000 
     12 O          66.4814  -12.7764  -24.5016 O.2       2 ALA2        0.0000 
     13 O          67.3231  -12.2170  -25.6100 O.2       2 ALA2        0.0000 
     14 N          61.1299  -15.7468  -19.9149 N.2       2 ALA2        0.0000 
     15 N          61.9715  -15.1874  -21.0233 N.2       2 ALA2        0.0000 
     16 N          62.8132  -14.6280  -22.1318 N.2       2 ALA2        0.0000 
     17 DU         63.6549  -14.0686  -23.2402 H         7 CUB7        0.0000 
     18 DU         64.4965  -13.5092  -24.3487 H         7 CUB7        0.0000 
     19 O          65.3382  -12.9498  -25.4571 O.2       2 ALA2        0.0000 
     20 N          61.6700  -14.8013  -23.0873 N.2       2 ALA2        0.0000 
     21 DU         62.5117  -14.2419  -24.1957 H         7 CUB7        0.0000 
     22 DU         63.3533  -13.6825  -25.3042 H         7 CUB7        0.0000 
     23 O          64.1950  -13.1231  -26.4126 O.2       2 ALA2        0.0000 
     24 N          60.5268  -14.9746  -24.0428 N.2       2 ALA2        0.0000 
     25 N          61.3685  -14.4152  -25.1513 N.2       2 ALA2        0.0000 
     26 CA         62.2101  -13.8558  -26.2597 C.3       6 GLY6        0.0000 
     27 CA         63.0518  -13.2964  -27.3682 C.3       6 GLY6        0.0000 
     28 O          63.8935  -12.7370  -28.4766 O.2       2 ALA2        0.0000 
     29 N          60.2253  -14.5886  -26.1068 N.2       2 ALA2        0.0000 
     30 O          61.0669  -14.0292  -27.2152 O.2       2 ALA2        0.0000 
     31 CA         61.9086  -13.4697  -28.3237 C.3       6 GLY6        0.0000 
     32 CA         62.7502  -12.9103  -29.4321 C.3       6 GLY6        0.0000 
     33 CZ         65.4569  -12.3410  -21.0001 C.ar      5 PHE5        0.0000 
     34 CZ         66.2985  -11.7816  -22.1085 C.ar      5 PHE5        0.0000 
     35 CZ         62.6303  -13.6331  -19.7387 C.ar      5 PHE5        0.0000 
     36 CZ         63.4720  -13.0737  -20.8471 C.ar      5 PHE5        0.0000 
     37 CZ         64.3136  -12.5143  -21.9556 C.ar      5 PHE5        0.0000 
     38 CZ         65.1553  -11.9549  -23.0640 C.ar      5 PHE5        0.0000 
     39 O          65.9970  -11.3955  -24.1725 O.2       2 ALA2        0.0000 
     40 CZ         60.6454  -14.3659  -19.5858 C.ar      5 PHE5        0.0000 
     41 CZ         61.4871  -13.8065  -20.6942 C.ar      5 PHE5        0.0000 
     42 DU         62.3288  -13.2471  -21.8027 H         7 CUB7        0.0000 
     43 DU         63.1704  -12.6876  -22.9111 H         7 CUB7        0.0000 
     44 CA         64.0121  -12.1282  -24.0196 C.3       6 GLY6        0.0000 
     45 N          60.3439  -13.9798  -21.6497 N.2       2 ALA2        0.0000 
     46 N          61.1856  -13.4204  -22.7582 N.2       2 ALA2        0.0000 
     47 CA         62.0272  -12.8610  -23.8666 C.3       6 GLY6        0.0000 
     48 CA         62.8689  -12.3016  -24.9751 C.3       6 GLY6        0.0000 
     49 CA         63.7106  -11.7421  -26.0835 C.3       6 GLY6        0.0000 
     50 CA         60.0424  -13.5937  -23.7137 C.3       6 GLY6        0.0000 
     51 CA         60.8840  -13.0343  -24.8222 C.3       6 GLY6        0.0000 
     52 O          59.7408  -13.2076  -25.7777 O.2       2 ALA2        0.0000 
     53 CA         60.5825  -12.6482  -26.8862 C.3       6 GLY6        0.0000 
     54 CA         62.2016   -9.9257  -22.2529 C.3       6 GLY6        0.0000 
     55 CA         60.2167  -10.6585  -22.1000 C.3       6 GLY6        0.0000 
     56 CA         65.2268  -17.6027  -19.7704 C.3       6 GLY6        0.0000 
     57 CA         64.0836  -17.7760  -20.7260 C.3       6 GLY6        0.0000 
     58 DU         64.9253  -17.2166  -21.8344 H         7 CUB7        0.0000 
     59 OG         62.9404  -17.9493  -21.6815 O.2       1 SER1        0.0000 
     60 DU         63.7821  -17.3899  -22.7899 H         7 CUB7        0.0000 
     61 DU         64.6237  -16.8305  -23.8984 H         7 CUB7        0.0000 
     62 DU         65.4654  -16.2711  -25.0068 H         7 CUB7        0.0000 
     63 CA         62.6389  -17.5632  -23.7455 C.3       6 GLY6        0.0000 
     64 O          63.4805  -17.0038  -24.8539 O.2       2 ALA2        0.0000 
     65 O          64.3222  -16.4444  -25.9624 O.2       2 ALA2        0.0000 
     66 O          65.1639  -15.8850  -27.0708 O.2       2 ALA2        0.0000 
     67 O          62.3373  -17.1771  -25.8095 O.2       2 ALA2        0.0000 
     68 O          63.1790  -16.6177  -26.9179 O.2       2 ALA2        0.0000 
     69 OD1        64.0207  -16.0583  -28.0264 O.3       3 ASP3        0.0000 
     70 O          62.8775  -16.2316  -28.9819 O.2       2 ALA2        0.0000 
     71 O          63.7191  -15.6722  -30.0903 O.2       2 ALA2        0.0000 
     72 O          61.7342  -16.4050  -29.9374 O.2       2 ALA2        0.0000 
     73 NZ         62.5759  -15.8456  -31.0459 N.2       4 LYS4        0.0000 
     74 NZ         61.4327  -16.0189  -32.0014 N.2       4 LYS4        0.0000 
     75 OD1        63.4249  -19.3303  -22.0106 O.3       3 ASP3        0.0000 
     76 CZ         64.7424  -16.2217  -19.4413 C.ar      5 PHE5        0.0000 
     77 CZ         65.5841  -15.6623  -20.5498 C.ar      5 PHE5        0.0000 
     78 DU         66.4257  -15.1029  -21.6582 H         7 CUB7        0.0000 
     79 DU         67.2674  -14.5435  -22.7667 H         7 CUB7        0.0000 
     80 CA         63.5992  -16.3950  -20.3969 C.3       6 GLY6        0.0000 
     81 DU         64.4409  -15.8356  -21.5053 H         7 CUB7        0.0000 
     82 N          62.4560  -16.5684  -21.3524 N.2       2 ALA2        0.0000 
     83 N          63.2976  -16.0089  -22.4609 N.2       2 ALA2        0.0000 
     84 DU         64.1393  -15.4495  -23.5693 H         7 CUB7        0.0000 
     85 DU         64.9810  -14.8901  -24.6778 H         7 CUB7        0.0000 
     86 O          65.8226  -14.3307  -25.7862 O.2       2 ALA2        0.0000 
     87 N          62.1544  -16.1823  -23.4164 N.2       2 ALA2        0.0000 
     88 DU         62.9961  -15.6229  -24.5248 H         7 CUB7        0.0000 
     89 DU         63.8378  -15.0635  -25.6333 H         7 CUB7        0.0000 
     90 O          64.6794  -14.5040  -26.7417 O.2       2 ALA2        0.0000 
     91 N          61.0112  -16.3556  -24.3719 N.2       2 ALA2        0.0000 
     92 CA         61.8529  -15.7962  -25.4804 C.3       6 GLY6        0.0000 
     93 DU         62.6946  -15.2368  -26.5888 H         7 CUB7        0.0000 
     94 O          63.5362  -14.6774  -27.6973 O.2       2 ALA2        0.0000 
     95 O          64.3779  -14.1180  -28.8057 O.2       2 ALA2        0.0000 
     96 CA         61.5514  -15.4101  -27.5443 C.3       6 GLY6        0.0000 
     97 DU         62.3930  -14.8507  -28.6528 H         7 CUB7        0.0000 
     98 DU         63.2347  -14.2913  -29.7612 H         7 CUB7        0.0000 
     99 CA         64.0763  -13.7319  -30.8697 C.3       6 GLY6        0.0000 
    100 O          61.2498  -15.0240  -29.6083 O.2       2 ALA2        0.0000 
    101 N          62.0915  -14.4646  -30.7168 N.2       2 ALA2        0.0000 
    102 CA         62.9331  -13.9052  -31.8252 C.3       6 GLY6        0.0000 
    103 CZ         62.9875  -11.6928  -20.5180 C.ar      5 PHE5        0.0000 
    104 CZ         63.8292  -11.1334  -21.6265 C.ar      5 PHE5        0.0000 
    105 CZ         61.8443  -11.8661  -21.4736 C.ar      5 PHE5        0.0000 
    106 CA         62.6860  -11.3067  -22.5820 C.3       6 GLY6        0.0000 
    107 CZ         63.5277  -10.7473  -23.6905 C.ar      5 PHE5        0.0000 
    108 CZ         59.8595  -12.5988  -21.3206 C.ar      5 PHE5        0.0000 
    109 CA         60.7011  -12.0394  -22.4291 C.3       6 GLY6        0.0000 
    110 CA         61.5428  -11.4800  -23.5376 C.3       6 GLY6        0.0000 
    111 O          58.7163  -12.7722  -22.2762 O.2       2 ALA2        0.0000 
    112 CA         60.3996  -11.6533  -24.4931 C.3       6 GLY6        0.0000 
@<TRIPOS>BOND
@<TRIPOS>SUBSTRUCTURE
     1 SER1       59 GROUP   
     2 ALA2        1 GROUP   
     3 ASP3       69 GROUP   
     4 LYS4       73 GROUP   
     5 PHE5        2 GROUP   
     6 GLY6       26 GROUP   
     7 CUB7        5 GROUP   
@<TRIPOS>SET

