#    Name: 2vqz_MGT_3_INTS_M
#    Modification time : Tue Mar 25 02:48:44 2014

@<TRIPOS>MOLECULE
2vqz_MGT_3_INTS_M
   45     0    12     0     0
SMALL
NO_CHARGES


@<TRIPOS>ATOM
      1 NZ         61.7440  -19.3900  -24.6705 N.4       3 LYC4        0.0000 
      2 NZ         61.4750  -17.7700  -25.5480 N.4      11 LYL4        0.0000 
      3 NZ         62.0130  -21.0100  -23.7930 N.4       7 LYP4        0.0000 
      4 NZ         62.3580  -18.7115  -26.4065 N.4       3 LYC4        0.0000 
      5 NZ         62.9780  -19.2950  -28.5240 N.4       7 LYP4        0.0000 
      6 N          62.3580  -18.7115  -26.4065 N.am      2 SEC2        0.0000 
      7 N          61.4750  -17.7700  -25.5480 N.am     10 SEL2        0.0000 
      8 N          63.2410  -19.6530  -27.2650 N.am      6 SEP2        0.0000 
      9 NZ         62.3330  -19.2195  -23.5950 N.4       3 LYC4        0.0000 
     10 NZ         62.6530  -17.4290  -23.3970 N.4      11 LYL4        0.0000 
     11 N          66.7985  -12.6550  -26.6295 N.am      2 SEC2        0.0000 
     12 N          66.8840  -12.9150  -25.0080 N.am     10 SEL2        0.0000 
     13 N          66.7130  -12.3950  -28.2510 N.am      6 SEP2        0.0000 
     14 CA         65.8815  -10.8715  -22.0635 C.3       4 GLC5        0.0000 
     15 CA         66.1390  -12.9820  -22.1460 C.3      12 GLL5        0.0000 
     16 CA         65.6240   -8.7610  -21.9810 C.3       8 GLP5        0.0000 
     17 CA         65.5400  -13.3965  -19.3420 C.3       4 GLC5        0.0000 
     18 CA         65.5710  -13.9100  -21.0750 C.3      12 GLL5        0.0000 
     19 CA         65.5090  -12.8830  -17.6090 C.3       8 GLP5        0.0000 
     20 CA         63.8130  -13.5345  -18.9730 C.3       4 GLC5        0.0000 
     21 CA         63.3970  -14.6060  -20.5310 C.3      12 GLL5        0.0000 
     22 CA         64.2290  -12.4630  -17.4150 C.3       8 GLP5        0.0000 
     23 CA         59.9500  -14.4470  -21.9300 C.3       4 GLC5        0.0000 
     24 CA         61.5370  -13.1520  -21.4550 C.3      12 GLL5        0.0000 
     25 CA         58.3630  -15.7420  -22.4050 C.3       8 GLP5        0.0000 
     26 CA         61.4290  -12.0955  -20.0200 C.3       4 GLC5        0.0000 
     27 CA         61.3210  -11.0390  -18.5850 C.3       8 GLP5        0.0000 
     28 CA         58.8675  -13.8790  -22.1265 C.3       4 GLC5        0.0000 
     29 CA         59.3720  -12.0160  -21.8480 C.3      12 GLL5        0.0000 
     30 CA         60.3465  -11.5275  -20.2165 C.3       4 GLC5        0.0000 
     31 CA         57.9895  -11.0440  -22.8920 C.3       4 GLC5        0.0000 
     32 CA         56.6070  -10.0720  -23.9360 C.3       8 GLP5        0.0000 
     33 CA         59.8255  -10.4545  -23.0580 C.3       4 GLC5        0.0000 
     34 CA         60.2790   -8.8930  -24.2680 C.3       8 GLP5        0.0000 
     35 O          57.7645  -15.0030  -17.2820 O.2       1 ALC1        0.0000 
     36 O          58.7400  -14.8290  -18.2300 O.2       9 ALL1        0.0000 
     37 O          56.7890  -15.1770  -16.3340 O.2       5 ALP1        0.0000 
     38 O          61.1600  -17.0560  -16.4670 O.2       1 ALC1        0.0000 
     39 O          59.9780  -16.3750  -16.9710 O.2       9 ALL1        0.0000 
     40 O          62.3420  -17.7370  -15.9630 O.2       5 ALP1        0.0000 
     41 O          58.3835  -15.7760  -16.6525 O.2       1 ALC1        0.0000 
     42 O          58.8455  -16.7050  -16.2715 O.2       1 ALC1        0.0000 
     43 O          57.7130  -17.0350  -15.5720 O.2       5 ALP1        0.0000 
     44 CA         59.4038  -14.9103  -21.1578 C.3       4 GLC5        0.0000 
     45 CA         59.8720  -13.7210  -20.0820 C.3      12 GLL5        0.0000 
@<TRIPOS>BOND
@<TRIPOS>SUBSTRUCTURE
     1 ALC1       35 GROUP        1 X    ALC  0     ROOT ALC X 1
     2 SEC2        6 GROUP        1 X    SEC  0     **** SEC X 2
     3 LYC4        1 GROUP        1 X    LYC  0     **** LYC X 4
     4 GLC5       14 GROUP        1 X    GLC  0     **** GLC X 6
     5 ALP1       37 GROUP        1 Y    ALP  0     ROOT ALP Y 8
     6 SEP2        8 GROUP        1 Y    SEP  0     **** SEP Y 9
     7 LYP4        3 GROUP        1 Y    LYP  0     **** LYP Y 11
     8 GLP5       16 GROUP        1 Y    GLP  0     **** GLP Y 13
     9 ALL1       36 GROUP        1 Z    ALL  0     ROOT ALL Z 15
    10 SEL2        7 GROUP        1 Z    SEL  0     **** SEL Z 16
    11 LYL4        2 GROUP        1 Z    LYL  0     **** LYL Z 18
    12 GLL5       15 GROUP        1 Z    GLL  0     **** GLL Z 20
@<TRIPOS>SET

