#    Name: 2vqz_MGT_3_ligand
#    Modification time : Tue Mar 25 02:48:44 2014

@<TRIPOS>MOLECULE
2vqz_MGT_3_ligand
   49    51     1     0     0
SMALL
NO_CHARGES


@<TRIPOS>ATOM
      1 PG         62.3750  -16.7550  -24.6870 P.3       1 MGT1483     0.0000 
      2 O1G        61.4750  -17.7700  -25.5480 O.co2     1 MGT1483     0.0000 
      3 O2G        61.5030  -15.3620  -24.5450 O.co2     1 MGT1483     0.0000 
      4 O3G        62.6530  -17.4290  -23.3970 O.co2     1 MGT1483     0.0000 
      5 O3B        63.6730  -16.5360  -25.7160 O.3       1 MGT1483     0.0000 
      6 PB         64.9180  -15.4490  -25.7410 P.3       1 MGT1483     0.0000 
      7 O1B        65.1390  -15.2120  -27.3210 O.co2     1 MGT1483     0.0000 
      8 O2B        66.1800  -15.9700  -25.1390 O.co2     1 MGT1483     0.0000 
      9 O3A        64.4210  -13.9640  -25.2100 O.3       1 MGT1483     0.0000 
     10 PA         65.4320  -12.7500  -24.6750 P.3       1 MGT1483     0.0000 
     11 O1A        64.8070  -11.4210  -25.3260 O.co2     1 MGT1483     0.0000 
     12 O2A        66.8840  -12.9150  -25.0080 O.co2     1 MGT1483     0.0000 
     13 O5'        65.1250  -12.5900  -23.0900 O.3       1 MGT1483     0.0000 
     14 C5'        66.1390  -12.9820  -22.1460 C.3       1 MGT1483     0.0000 
     15 C4'        65.5710  -13.9100  -21.0750 C.3       1 MGT1483     0.0000 
     16 O4'        64.2370  -13.4250  -20.7230 O.3       1 MGT1483     0.0000 
     17 C3'        65.4000  -15.3510  -21.5740 C.3       1 MGT1483     0.0000 
     18 O3'        66.0520  -16.2250  -20.6460 O.3       1 MGT1483     0.0000 
     19 C2'        63.8800  -15.5780  -21.5830 C.3       1 MGT1483     0.0000 
     20 O2'        63.5710  -16.9240  -21.1810 O.3       1 MGT1483     0.0000 
     21 C1'        63.3970  -14.6060  -20.5310 C.3       1 MGT1483     0.0000 
     22 N9         61.9850  -14.0770  -20.5750 N.3       1 MGT1483     0.0000 
     23 C8         61.5370  -13.1520  -21.4550 C.3       1 MGT1483     0.0000 
     24 N7         60.2450  -12.9560  -21.1350 N.3       1 MGT1483     0.0000 
     25 CM7        59.3720  -12.0160  -21.8480 C.3       1 MGT1483     0.0000 
     26 C5         59.8720  -13.7210  -20.0820 C.2       1 MGT1483     0.0000 
     27 C6         58.7010  -13.9170  -19.2930 C.2       1 MGT1483     0.0000 
     28 O6         57.6380  -13.3270  -19.5020 O.2       1 MGT1483     0.0000 
     29 N1         58.7400  -14.8290  -18.2300 N.am      1 MGT1483     0.0000 
     30 C2         59.9150  -15.5020  -17.9540 C.2       1 MGT1483     0.0000 
     31 N2         59.9780  -16.3750  -16.9710 N.pl3     1 MGT1483     0.0000 
     32 N3         61.0040  -15.2920  -18.7020 N.2       1 MGT1483     0.0000 
     33 C4         61.0170  -14.4360  -19.7390 C.2       1 MGT1483     0.0000 
     34 H          66.5722  -12.1063  -21.6377 H         1 MGT1483     0.0000 
     35 H          66.9669  -13.5100  -22.6446 H         1 MGT1483     0.0000 
     36 H          66.2026  -13.9061  -20.2210 H         1 MGT1483     0.0000 
     37 H          65.7670  -15.4121  -22.5528 H         1 MGT1483     0.0000 
     38 H          63.5015  -15.3039  -22.5139 H         1 MGT1483     0.0000 
     39 H          63.6150  -14.9946  -19.5469 H         1 MGT1483     0.0000 
     40 H          61.6481  -13.5052  -22.4990 H         1 MGT1483     0.0000 
     41 H          62.1208  -12.2135  -21.3818 H         1 MGT1483     0.0000 
     42 H          57.8994  -14.9896  -17.6670 H         1 MGT1483     0.0000 
     43 H          60.8503  -16.8515  -16.8609 H         1 MGT1483     0.0000 
     44 H          59.1479  -16.4822  -16.4239 H         1 MGT1483     0.0000 
     45 H          59.7167  -11.0786  -21.7987 H         1 MGT1483     0.0000 
     46 H          59.2900  -12.2476  -22.8174 H         1 MGT1483     0.0000 
     47 H          58.4466  -12.0083  -21.4692 H         1 MGT1483     0.0000 
     48 H          65.3371  -16.8508  -20.3340 H         1 MGT1483     0.0000 
     49 H          63.6474  -17.4676  -22.0168 H         1 MGT1483     0.0000 
@<TRIPOS>BOND
     1    2    1 ar   
     2    3    1 ar   
     3    4    1 ar   
     4    5    1 1    
     5    6    5 1    
     6    7    6 ar   
     7    8    6 ar   
     8    9    6 1    
     9   10    9 1    
    10   11   10 ar   
    11   12   10 ar   
    12   13   10 1    
    13   14   13 1    
    14   15   14 1    
    15   34   14 1    
    16   35   14 1    
    17   16   15 1    
    18   17   15 1    
    19   36   15 1    
    20   21   16 1    
    21   18   17 1    
    22   19   17 1    
    23   37   17 1    
    24   48   18 1    
    25   20   19 1    
    26   21   19 1    
    27   38   19 1    
    28   49   20 1    
    29   22   21 1    
    30   39   21 1    
    31   23   22 1    
    32   33   22 1    
    33   24   23 1    
    34   40   23 1    
    35   41   23 1    
    36   25   24 1    
    37   26   24 1    
    38   45   25 1    
    39   46   25 1    
    40   47   25 1    
    41   27   26 1    
    42   33   26 2    
    43   28   27 2    
    44   29   27 am   
    45   30   29 1    
    46   42   29 1    
    47   31   30 1    
    48   32   30 2    
    49   43   31 1    
    50   44   31 1    
    51   33   32 1    
@<TRIPOS>SUBSTRUCTURE
     1 MGT1483     1 GROUP   
@<TRIPOS>SET

