#    Name: 1p0f_NAP_2_INTS_M
#    Modification time : Mon Mar 24 20:55:29 2014

@<TRIPOS>MOLECULE
1p0f_NAP_2_INTS_M
   91     0    12     0     0
SMALL
NO_CHARGES


@<TRIPOS>ATOM
      1 N         -18.7755   40.5665   66.0010 N.am      2 SEC2        0.0000 
      2 N         -19.0810   38.9790   66.5860 N.am     10 SEL2        0.0000 
      3 N         -18.4700   42.1540   65.4160 N.am      6 SEP2        0.0000 
      4 CA        -16.1345   37.9295   61.0370 C.3       4 GLC5        0.0000 
      5 CA        -17.1780   37.1290   62.7800 C.3      12 GLL5        0.0000 
      6 CA        -15.0910   38.7300   59.2940 C.3       8 GLP5        0.0000 
      7 CA        -18.6325   38.7535   62.8330 C.3       4 GLC5        0.0000 
      8 CA        -18.5800   36.6390   62.3100 C.3      12 GLL5        0.0000 
      9 CA        -18.6850   40.8680   63.3560 C.3       8 GLP5        0.0000 
     10 CA        -15.0270   35.3700   60.9905 C.3       4 GLC5        0.0000 
     11 CA        -16.9140   35.4570   61.0330 C.3      12 GLL5        0.0000 
     12 CA        -13.1400   35.2830   60.9480 C.3       8 GLP5        0.0000 
     13 CA        -14.5400   30.5690   60.7165 C.3       4 GLC5        0.0000 
     14 CA        -16.5950   30.6240   60.5180 C.3      12 GLL5        0.0000 
     15 CA        -12.4850   30.5140   60.9150 C.3       8 GLP5        0.0000 
     16 CA        -14.1945   31.2430   59.7515 C.3       4 GLC5        0.0000 
     17 CA        -15.9040   31.9720   58.5880 C.3      12 GLL5        0.0000 
     18 CA        -13.9070   32.7075   58.0920 C.3       4 GLC5        0.0000 
     19 CA        -11.9100   33.4430   57.5960 C.3       8 GLP5        0.0000 
     20 CA        -14.8985   34.1710   60.7355 C.3       4 GLC5        0.0000 
     21 CA        -16.6570   33.0590   60.5230 C.3      12 GLL5        0.0000 
     22 N         -15.7510   41.7700   66.2010 N.am      2 SEC2        0.0000 
     23 N         -15.6840   40.3560   66.4680 N.am     10 SEL2        0.0000 
     24 N         -15.8180   43.1840   65.9340 N.am      6 SEP2        0.0000 
     25 NZ        -17.2350   40.6510   69.1505 N.4       3 LYC4        0.0000 
     26 NZ        -16.2030   39.7160   68.9370 N.4      11 LYL4        0.0000 
     27 NZ        -18.1520   42.3840   70.4160 N.4       7 LYP4        0.0000 
     28 N         -16.5970   38.8225   69.9390 N.am      2 SEC2        0.0000 
     29 N         -16.2030   39.7160   68.9370 N.am     10 SEL2        0.0000 
     30 N         -16.9910   37.9290   70.9410 N.am      6 SEP2        0.0000 
     31 N         -17.2350   40.6510   69.1505 N.am      2 SEC2        0.0000 
     32 N         -18.2670   41.5860   69.3640 N.am      6 SEP2        0.0000 
     33 CA        -13.7705   40.3075   66.9115 C.3       4 GLC5        0.0000 
     34 CA        -14.0690   38.3890   66.3560 C.3      12 GLL5        0.0000 
     35 CA        -13.4720   42.2260   67.4670 C.3       8 GLP5        0.0000 
     36 CA        -10.8635   37.0015   66.2895 C.3       4 GLC5        0.0000 
     37 CA        -12.8440   37.5450   66.7400 C.3      12 GLL5        0.0000 
     38 CA         -8.8830   36.4580   65.8390 C.3       8 GLP5        0.0000 
     39 CA        -13.2600   36.3890   70.9880 C.3       4 GLC5        0.0000 
     40 CA        -12.5180   36.9940   69.0700 C.3      12 GLL5        0.0000 
     41 CA        -14.0020   35.7840   72.9060 C.3       8 GLP5        0.0000 
     42 N         -12.0685   36.5685   71.2480 N.am      2 SEC2        0.0000 
     43 N         -12.1240   36.0330   70.0150 N.am     10 SEL2        0.0000 
     44 N         -12.0130   37.1040   72.4810 N.am      6 SEP2        0.0000 
     45 CA        -10.1265   37.1295   67.2155 C.3       4 GLC5        0.0000 
     46 CA        -11.3700   37.8010   68.5920 C.3      12 GLL5        0.0000 
     47 CA         -9.6750   36.9320   69.2185 C.3       4 GLC5        0.0000 
     48 CA         -7.9800   36.0630   69.8450 C.3       8 GLP5        0.0000 
     49 CA         -8.8045   37.7600   69.6490 C.3       4 GLC5        0.0000 
     50 CA         -9.6290   39.4570   69.4530 C.3      12 GLL5        0.0000 
     51 N          -7.0730   43.2175   71.5475 N.am      2 SEC2        0.0000 
     52 N          -7.7310   42.0860   71.0030 N.am     10 SEL2        0.0000 
     53 N          -6.4150   44.3490   72.0920 N.am      6 SEP2        0.0000 
     54 O          -7.3400   39.4405   68.5590 O.2       1 ALC1        0.0000 
     55 O          -6.9390   40.5200   69.6660 O.2       9 ALL1        0.0000 
     56 O          -7.7410   38.3610   67.4520 O.2       5 ALP1        0.0000 
     57 O          -5.6260   41.1585   69.3570 O.2       1 ALC1        0.0000 
     58 O          -4.3130   41.7970   69.0480 O.2       5 ALP1        0.0000 
     59 N         -18.0390   39.2845   58.6285 N.am      2 SEC2        0.0000 
     60 N         -18.9990   38.4670   57.9260 N.am     10 SEL2        0.0000 
     61 N         -17.0790   40.1020   59.3310 N.am      6 SEP2        0.0000 
     62 N         -19.1420   36.0175   56.4605 N.am      2 SEC2        0.0000 
     63 N         -18.8470   35.9350   57.9020 N.am     10 SEL2        0.0000 
     64 N         -19.4370   36.1000   55.0190 N.am      6 SEP2        0.0000 
     65 N         -19.6325   34.8205   57.1740 N.am      2 SEC2        0.0000 
     66 N         -20.4180   33.7060   56.4460 N.am      6 SEP2        0.0000 
     67 NZ        -21.3400   37.9890   60.1975 N.4       3 LYC4        0.0000 
     68 NZ        -20.7140   37.1300   59.1820 N.4      11 LYL4        0.0000 
     69 NZ        -21.9660   38.8480   61.2130 N.4       7 LYP4        0.0000 
     70 N         -21.5605   36.2215   58.7810 N.am      2 SEC2        0.0000 
     71 N         -20.7140   37.1300   59.1820 N.am     10 SEL2        0.0000 
     72 N         -22.4070   35.3130   58.3800 N.am      6 SEP2        0.0000 
     73 N         -21.3400   37.9890   60.1975 N.am      2 SEC2        0.0000 
     74 N         -21.9660   38.8480   61.2130 N.am      6 SEP2        0.0000 
     75 CA        -17.8507   38.9477   63.4330 C.3       4 GLC5        0.0000 
     76 CA        -16.3545   37.2555   60.1355 C.3       4 GLC5        0.0000 
     77 CA        -18.3220   36.1050   60.9210 C.3      12 GLL5        0.0000 
     78 CA        -14.7482   36.6632   69.3978 C.3       4 GLC5        0.0000 
     79 CA        -13.0630   36.3990   67.7930 C.3      12 GLL5        0.0000 
     80 CA        -16.7060   36.6300   70.3640 C.3       8 GLP5        0.0000 
     81 CA         -9.5040   41.9260   69.2503 C.3       4 GLC5        0.0000 
     82 CA         -9.5170   43.8290   68.6620 C.3       8 GLP5        0.0000 
     83 CA        -11.7792   41.9805   72.1570 C.3       4 GLC5        0.0000 
     84 CA        -10.4180   41.2910   70.9520 C.3      12 GLL5        0.0000 
     85 CA        -12.4760   42.9190   73.4140 C.3       8 GLP5        0.0000 
     86 CA        -10.2997   42.4355   69.7810 C.3       4 GLC5        0.0000 
     87 CA        -11.7470   40.7930   70.8480 C.3      12 GLL5        0.0000 
     88 CA        -13.4802   40.0452   71.2945 C.3       4 GLC5        0.0000 
     89 CA        -15.0610   39.8700   72.1290 C.3       8 GLP5        0.0000 
     90 CA        -12.6858   41.2233   68.9635 C.3       4 GLC5        0.0000 
     91 CA        -12.0520   39.6480   70.0720 C.3      12 GLL5        0.0000 
@<TRIPOS>BOND
@<TRIPOS>SUBSTRUCTURE
     1 ALC1       54 GROUP        1 X    ALC  0     ROOT ALC X 1
     2 SEC2        1 GROUP        1 X    SEC  0     **** SEC X 2
     3 LYC4       25 GROUP        1 X    LYC  0     **** LYC X 4
     4 GLC5        4 GROUP        1 X    GLC  0     **** GLC X 6
     5 ALP1       56 GROUP        1 Y    ALP  0     ROOT ALP Y 8
     6 SEP2        3 GROUP        1 Y    SEP  0     **** SEP Y 9
     7 LYP4       27 GROUP        1 Y    LYP  0     **** LYP Y 11
     8 GLP5        6 GROUP        1 Y    GLP  0     **** GLP Y 13
     9 ALL1       55 GROUP        1 Z    ALL  0     ROOT ALL Z 15
    10 SEL2        2 GROUP        1 Z    SEL  0     **** SEL Z 16
    11 LYL4       26 GROUP        1 Z    LYL  0     **** LYL Z 18
    12 GLL5        5 GROUP        1 Z    GLL  0     **** GLL Z 20
@<TRIPOS>SET

