#    Name: 1p0f_NAP_2_ligand
#    Modification time : Mon Mar 24 20:55:30 2014

@<TRIPOS>MOLECULE
1p0f_NAP_2_ligand
   72    76     1     0     0
SMALL
NO_CHARGES


@<TRIPOS>ATOM
      1 PA        -18.2310   37.7450   66.3540 P.3       1 NAP3292     0.0000 
      2 O1A       -18.5980   36.4130   66.6500 O.co2     1 NAP3292     0.0000 
      3 O2A       -19.0810   38.9790   66.5860 O.co2     1 NAP3292     0.0000 
      4 O5B       -17.8080   37.8510   64.8190 O.3       1 NAP3292     0.0000 
      5 C5B       -16.8550   36.9260   64.2400 C.3       1 NAP3292     0.0000 
      6 C4B       -17.1780   37.1290   62.7800 C.3       1 NAP3292     0.0000 
      7 O4B       -16.2440   36.2830   61.9660 O.3       1 NAP3292     0.0000 
      8 C3B       -18.5800   36.6390   62.3100 C.3       1 NAP3292     0.0000 
      9 O3B       -19.4510   37.7660   62.3440 O.3       1 NAP3292     0.0000 
     10 C2B       -18.3220   36.1050   60.9210 C.3       1 NAP3292     0.0000 
     11 O2B       -18.3100   37.1180   59.9260 O.3       1 NAP3292     0.0000 
     12 C1B       -16.9140   35.4570   61.0330 C.3       1 NAP3292     0.0000 
     13 N9A       -17.0120   34.0380   61.3990 N.pl3     1 NAP3292     0.0000 
     14 C8A       -17.4250   33.3800   62.5490 C.2       1 NAP3292     0.0000 
     15 N7A       -17.3630   32.0580   62.4720 N.2       1 NAP3292     0.0000 
     16 C5A       -16.8750   31.8350   61.1880 C.ar      1 NAP3292     0.0000 
     17 C6A       -16.5950   30.6240   60.5180 C.ar      1 NAP3292     0.0000 
     18 N6A       -16.7460   29.3710   61.0010 N.pl3     1 NAP3292     0.0000 
     19 N1A       -16.1030   30.7210   59.2010 N.ar      1 NAP3292     0.0000 
     20 C2A       -15.9040   31.9720   58.5880 C.ar      1 NAP3292     0.0000 
     21 N3A       -16.1730   33.1760   59.2250 N.ar      1 NAP3292     0.0000 
     22 C4A       -16.6570   33.0590   60.5230 C.ar      1 NAP3292     0.0000 
     23 O3        -16.8770   38.1000   67.0870 O.3       1 NAP3292     0.0000 
     24 PN        -16.3390   39.5140   67.4680 P.3       1 NAP3292     0.0000 
     25 O1N       -15.6840   40.3560   66.4680 O.co2     1 NAP3292     0.0000 
     26 O2N       -16.2030   39.7160   68.9370 O.co2     1 NAP3292     0.0000 
     27 O5D       -14.9160   38.7000   67.5470 O.3       1 NAP3292     0.0000 
     28 C5D       -14.0690   38.3890   66.3560 C.3       1 NAP3292     0.0000 
     29 C4D       -12.8440   37.5450   66.7400 C.3       1 NAP3292     0.0000 
     30 O4D       -11.7970   38.3760   67.3110 O.3       1 NAP3292     0.0000 
     31 C3D       -13.0630   36.3990   67.7930 C.3       1 NAP3292     0.0000 
     32 O3D       -12.3500   35.2170   67.3900 O.3       1 NAP3292     0.0000 
     33 C2D       -12.5180   36.9940   69.0700 C.3       1 NAP3292     0.0000 
     34 O2D       -12.1240   36.0330   70.0150 O.3       1 NAP3292     0.0000 
     35 C1D       -11.3700   37.8010   68.5920 C.3       1 NAP3292     0.0000 
     36 N1N       -10.9760   38.9970   69.3870 N.pl3     1 NAP3292     0.0000 
     37 C2N        -9.6290   39.4570   69.4530 C.ar      1 NAP3292     0.0000 
     38 C3N        -9.3530   40.5890   70.2240 C.ar      1 NAP3292     0.0000 
     39 C7N        -7.9120   41.1080   70.3090 C.2       1 NAP3292     0.0000 
     40 O7N        -7.7310   42.0860   71.0030 O.2       1 NAP3292     0.0000 
     41 N7N        -6.9390   40.5200   69.6660 N.am      1 NAP3292     0.0000 
     42 C4N       -10.4180   41.2910   70.9520 C.ar      1 NAP3292     0.0000 
     43 C5N       -11.7470   40.7930   70.8480 C.ar      1 NAP3292     0.0000 
     44 C6N       -12.0520   39.6480   70.0720 C.ar      1 NAP3292     0.0000 
     45 P2B       -19.3000   37.1500   58.6440 P.3       1 NAP3292     0.0000 
     46 O1X       -18.9990   38.4670   57.9260 O.co2     1 NAP3292     0.0000 
     47 O2X       -18.8470   35.9350   57.9020 O.co2     1 NAP3292     0.0000 
     48 O3X       -20.7140   37.1300   59.1820 O.co2     1 NAP3292     0.0000 
     49 H         -17.0648   35.9276   64.5083 H         1 NAP3292     0.0000 
     50 H         -15.8594   37.2236   64.4219 H         1 NAP3292     0.0000 
     51 H         -17.0554   38.1409   62.4830 H         1 NAP3292     0.0000 
     52 H         -18.8610   35.8541   62.9541 H         1 NAP3292     0.0000 
     53 H         -19.0084   35.3137   60.7229 H         1 NAP3292     0.0000 
     54 H         -16.4716   35.5701   60.0422 H         1 NAP3292     0.0000 
     55 H         -17.7378   33.8895   63.3522 H         1 NAP3292     0.0000 
     56 H         -15.5366   31.9872   57.6081 H         1 NAP3292     0.0000 
     57 H         -13.7189   39.3158   65.8904 H         1 NAP3292     0.0000 
     58 H         -14.6521   37.8352   65.6133 H         1 NAP3292     0.0000 
     59 H         -12.4438   37.0633   65.8393 H         1 NAP3292     0.0000 
     60 H         -14.1068   36.2624   67.8859 H         1 NAP3292     0.0000 
     61 H         -13.2655   37.6806   69.4462 H         1 NAP3292     0.0000 
     62 H         -10.5158   37.1843   68.4025 H         1 NAP3292     0.0000 
     63 H          -8.9021   38.9687   68.9510 H         1 NAP3292     0.0000 
     64 H          -7.1968   39.7409   69.0945 H         1 NAP3292     0.0000 
     65 H          -6.0256   40.9029   69.8042 H         1 NAP3292     0.0000 
     66 H         -10.1942   42.0942   71.4996 H         1 NAP3292     0.0000 
     67 H         -12.5036   41.2790   71.3503 H         1 NAP3292     0.0000 
     68 H         -12.9885   39.2989   70.0000 H         1 NAP3292     0.0000 
     69 H         -19.2005   38.2616   63.1757 H         1 NAP3292     0.0000 
     70 H         -15.8500   28.9412   60.8898 H         1 NAP3292     0.0000 
     71 H         -11.8454   34.9291   68.2040 H         1 NAP3292     0.0000 
     72 H         -12.9786   35.6627   70.3791 H         1 NAP3292     0.0000 
@<TRIPOS>BOND
     1    2    1 ar   
     2    3    1 ar   
     3    4    1 1    
     4   23    1 1    
     5    5    4 1    
     6    6    5 1    
     7   49    5 1    
     8   50    5 1    
     9    7    6 1    
    10    8    6 1    
    11   51    6 1    
    12   12    7 1    
    13    9    8 1    
    14   10    8 1    
    15   52    8 1    
    16   69    9 1    
    17   11   10 1    
    18   12   10 1    
    19   53   10 1    
    20   45   11 1    
    21   13   12 1    
    22   54   12 1    
    23   14   13 1    
    24   22   13 1    
    25   15   14 2    
    26   55   14 1    
    27   16   15 1    
    28   17   16 ar   
    29   22   16 ar   
    30   18   17 1    
    31   19   17 ar   
    32   70   18 1    
    33   20   19 ar   
    34   21   20 ar   
    35   56   20 1    
    36   22   21 ar   
    37   24   23 1    
    38   25   24 ar   
    39   26   24 ar   
    40   27   24 1    
    41   28   27 1    
    42   29   28 1    
    43   57   28 1    
    44   58   28 1    
    45   30   29 1    
    46   31   29 1    
    47   59   29 1    
    48   35   30 1    
    49   32   31 1    
    50   33   31 1    
    51   60   31 1    
    52   71   32 1    
    53   34   33 1    
    54   35   33 1    
    55   61   33 1    
    56   72   34 1    
    57   36   35 1    
    58   62   35 1    
    59   37   36 ar   
    60   44   36 ar   
    61   38   37 ar   
    62   63   37 1    
    63   39   38 1    
    64   42   38 ar   
    65   40   39 2    
    66   41   39 am   
    67   64   41 1    
    68   65   41 1    
    69   43   42 ar   
    70   66   42 1    
    71   44   43 ar   
    72   67   43 1    
    73   68   44 1    
    74   46   45 ar   
    75   47   45 ar   
    76   48   45 ar   
@<TRIPOS>SUBSTRUCTURE
     1 NAP3292     1 GROUP   
@<TRIPOS>SET

