#    Name: 1bxs_NAD_4_INTS_M
#    Modification time : Mon Mar 24 20:01:52 2014

@<TRIPOS>MOLECULE
1bxs_NAD_4_INTS_M
   89     0     9     0     0
SMALL
NO_CHARGES


@<TRIPOS>ATOM
      1 N          58.8295   20.6315   35.0650 N.am      2 SEC2        0.0000 
      2 N          59.6830   19.6040   35.5900 N.am      8 SEL2        0.0000 
      3 N          57.9760   21.6590   34.5400 N.am      5 SEP2        0.0000 
      4 N          58.6710   19.2295   34.7720 N.am      2 SEC2        0.0000 
      5 N          57.6590   18.8550   33.9540 N.am      5 SEP2        0.0000 
      6 CA         60.6110   22.0250   36.5075 C.3       3 GLC5        0.0000 
      7 CA         62.1240   20.7020   37.1270 C.3       9 GLL5        0.0000 
      8 CA         59.0980   23.3480   35.8880 C.3       6 GLP5        0.0000 
      9 CA         65.8375   20.2020   38.9455 C.3       3 GLC5        0.0000 
     10 CA         63.9410   19.7280   38.7800 C.3       9 GLL5        0.0000 
     11 CA         67.7340   20.6760   39.1110 C.3       6 GLP5        0.0000 
     12 N          65.2750   18.8815   40.7910 N.am      2 SEC2        0.0000 
     13 N          64.5350   20.1230   40.0310 N.am      8 SEL2        0.0000 
     14 N          66.0150   17.6400   41.5510 N.am      5 SEP2        0.0000 
     15 O          64.7140   21.5230   39.8275 O.2       1 ALC1        0.0000 
     16 O          64.5350   20.1230   40.0310 O.2       7 ALL1        0.0000 
     17 O          64.8930   22.9230   39.6240 O.2       4 ALP1        0.0000 
     18 N          65.3115   17.4755   40.4020 N.am      2 SEC2        0.0000 
     19 N          64.6080   17.3110   39.2530 N.am      8 SEL2        0.0000 
     20 N          65.7960   16.9910   38.9145 N.am      2 SEC2        0.0000 
     21 N          66.9840   16.6710   38.5760 N.am      5 SEP2        0.0000 
     22 CA         62.0180   19.4060   40.9730 C.3       3 GLC5        0.0000 
     23 CA         62.2880   18.2050   39.5960 C.3       9 GLL5        0.0000 
     24 CA         61.7480   20.6070   42.3500 C.3       6 GLP5        0.0000 
     25 CA         60.6295   19.5300   39.6615 C.3       3 GLC5        0.0000 
     26 CA         58.9710   20.8550   39.7270 C.3       6 GLP5        0.0000 
     27 CA         61.6630   13.6465   39.6890 C.3       3 GLC5        0.0000 
     28 CA         60.2140   15.2570   39.7710 C.3       9 GLL5        0.0000 
     29 CA         63.1120   12.0360   39.6070 C.3       6 GLP5        0.0000 
     30 CA         60.4660   12.9245   40.9205 C.3       3 GLC5        0.0000 
     31 CA         59.2600   14.4670   40.4440 C.3       9 GLL5        0.0000 
     32 CA         61.6720   11.3820   41.3970 C.3       6 GLP5        0.0000 
     33 CA         59.6295   17.7715   43.3980 C.3       3 GLC5        0.0000 
     34 CA         59.2750   16.0510   42.1990 C.3       9 GLL5        0.0000 
     35 CA         59.9840   19.4920   44.5970 C.3       6 GLP5        0.0000 
     36 CA         60.6780   16.1065   43.4800 C.3       3 GLC5        0.0000 
     37 CA         62.0810   16.1620   44.7610 C.3       6 GLP5        0.0000 
     38 CA         59.3010   14.8460   43.7950 C.3       3 GLC5        0.0000 
     39 CA         59.3270   13.6410   45.3910 C.3       6 GLP5        0.0000 
     40 CA         58.3905   16.7885   40.5030 C.3       3 GLC5        0.0000 
     41 CA         57.5060   17.5260   38.8070 C.3       6 GLP5        0.0000 
     42 CA         57.8630   17.1840   42.5610 C.3       3 GLC5        0.0000 
     43 CA         56.4510   18.3170   42.9230 C.3       6 GLP5        0.0000 
     44 N          64.6445   20.0895   32.8120 N.am      2 SEC2        0.0000 
     45 N          63.8300   18.9220   33.1790 N.am      8 SEL2        0.0000 
     46 N          65.4590   21.2570   32.4450 N.am      5 SEP2        0.0000 
     47 CA         58.7475   19.8515   31.4375 C.3       3 GLC5        0.0000 
     48 CA         60.0690   19.8560   29.8990 C.3       9 GLL5        0.0000 
     49 CA         57.4260   19.8470   32.9760 C.3       6 GLP5        0.0000 
     50 CA         61.6500   22.7355   28.6040 C.3       3 GLC5        0.0000 
     51 CA         60.6770   20.9350   29.0110 C.3       9 GLL5        0.0000 
     52 CA         62.6230   24.5360   28.1970 C.3       6 GLP5        0.0000 
     53 N          62.0165   20.8630   26.9665 N.am      2 SEC2        0.0000 
     54 N          60.8820   20.5770   27.6400 N.am      8 SEL2        0.0000 
     55 N          63.1510   21.1490   26.2930 N.am      5 SEP2        0.0000 
     56 N          59.7395   20.0285   27.1075 N.am      2 SEC2        0.0000 
     57 N          58.5970   19.4800   26.5750 N.am      5 SEP2        0.0000 
     58 CA         60.6665   23.4465   28.3015 C.3       3 GLC5        0.0000 
     59 CA         59.7940   22.1580   29.2620 C.3       9 GLL5        0.0000 
     60 CA         61.5390   24.7350   27.3410 C.3       6 GLP5        0.0000 
     61 O          57.8275   23.1135   28.6560 O.2       1 ALC1        0.0000 
     62 O          58.6140   22.1000   28.4350 O.2       7 ALL1        0.0000 
     63 O          57.0410   24.1270   28.8770 O.2       4 ALP1        0.0000 
     64 CA         58.4435   20.9720   31.8690 C.3       3 GLC5        0.0000 
     65 CA         59.4610   22.0970   30.7620 C.3       9 GLL5        0.0000 
     66 CA         58.2545   22.7365   32.7925 C.3       3 GLC5        0.0000 
     67 CA         59.5350   24.3020   31.9880 C.3       9 GLL5        0.0000 
     68 CA         56.9740   21.1710   33.5970 C.3       6 GLP5        0.0000 
     69 N          62.0035   27.9895   32.8480 N.am      2 SEC2        0.0000 
     70 N          60.4230   27.5460   33.3930 N.am      8 SEL2        0.0000 
     71 N          63.5840   28.4330   32.3030 N.am      5 SEP2        0.0000 
     72 O          57.8005   25.1950   33.9960 O.2       1 ALC1        0.0000 
     73 O          58.3810   26.6090   33.5100 O.2       7 ALL1        0.0000 
     74 O          57.2200   23.7810   34.4820 O.2       4 ALP1        0.0000 
     75 CA         63.3812   22.3315   37.4650 C.3       3 GLC5        0.0000 
     76 CA         64.4280   24.1410   37.0890 C.3       6 GLP5        0.0000 
     77 CA         60.6527   20.6885   38.7840 C.3       3 GLC5        0.0000 
     78 CA         62.4955   20.3210   40.5087 C.3       3 GLC5        0.0000 
     79 CA         62.5450   20.3420   38.5550 C.3       9 GLL5        0.0000 
     80 CA         63.2425   16.4645   40.0345 C.3       3 GLC5        0.0000 
     81 CA         63.5300   14.7030   40.8530 C.3       6 GLP5        0.0000 
     82 CA         61.8550   15.1855   40.5326 C.3       3 GLC5        0.0000 
     83 CA         58.8430   16.5970   39.5096 C.3       3 GLC5        0.0000 
     84 CA         60.6230   16.4740   40.3170 C.3       9 GLL5        0.0000 
     85 CA         59.4950   24.0525   34.1397 C.3       3 GLC5        0.0000 
     86 CA         62.6553   24.5345   34.6833 C.3       3 GLC5        0.0000 
     87 CA         61.5400   24.8500   33.2780 C.3       9 GLL5        0.0000 
     88 CA         63.4560   24.8450   36.1750 C.3       6 GLP5        0.0000 
     89 CA         60.3639   23.3983   34.3464 C.3       3 GLC5        0.0000 
@<TRIPOS>BOND
@<TRIPOS>SUBSTRUCTURE
     1 ALC1       15 GROUP        1 X    ALC  0     ROOT ALC X 1
     2 SEC2        1 GROUP        1 X    SEC  0     **** SEC X 2
     3 GLC5        6 GROUP        1 X    GLC  0     **** GLC X 6
     4 ALP1       17 GROUP        1 Y    ALP  0     ROOT ALP Y 8
     5 SEP2        3 GROUP        1 Y    SEP  0     **** SEP Y 9
     6 GLP5        8 GROUP        1 Y    GLP  0     **** GLP Y 13
     7 ALL1       16 GROUP        1 Z    ALL  0     ROOT ALL Z 15
     8 SEL2        2 GROUP        1 Z    SEL  0     **** SEL Z 16
     9 GLL5        7 GROUP        1 Z    GLL  0     **** GLL Z 20
@<TRIPOS>SET

