#    Name: 1bxs_NAD_4_ligand
#    Modification time : Mon Mar 24 20:01:52 2014

@<TRIPOS>MOLECULE
1bxs_NAD_4_ligand
   69    73     1     0     0
SMALL
NO_CHARGES


@<TRIPOS>ATOM
      1 PA         60.9950   18.9650   35.3340 P.3       1 NAD550      0.0000 
      2 O1A        59.6830   19.6040   35.5900 O.co2     1 NAD550      0.0000 
      3 O2A        61.0660   17.4860   35.2760 O.co2     1 NAD550      0.0000 
      4 O5B        62.1970   19.5870   36.2180 O.3       1 NAD550      0.0000 
      5 C5B        62.1240   20.7020   37.1270 C.3       1 NAD550      0.0000 
      6 C4B        62.5450   20.3420   38.5550 C.3       1 NAD550      0.0000 
      7 O4B        61.6300   19.4270   39.2080 O.3       1 NAD550      0.0000 
      8 C3B        63.9410   19.7280   38.7800 C.3       1 NAD550      0.0000 
      9 O3B        64.5350   20.1230   40.0310 O.3       1 NAD550      0.0000 
     10 C2B        63.6220   18.2470   38.8360 C.3       1 NAD550      0.0000 
     11 O2B        64.6080   17.3110   39.2530 O.3       1 NAD550      0.0000 
     12 C1B        62.2880   18.2050   39.5960 C.3       1 NAD550      0.0000 
     13 N9A        61.4040   17.0110   39.3760 N.pl3     1 NAD550      0.0000 
     14 C8A        61.4440   16.1230   38.3490 C.2       1 NAD550      0.0000 
     15 N7A        60.7680   15.0020   38.6030 N.2       1 NAD550      0.0000 
     16 C5A        60.2140   15.2570   39.7710 C.ar      1 NAD550      0.0000 
     17 C6A        59.2600   14.4670   40.4440 C.ar      1 NAD550      0.0000 
     18 N6A        58.8190   13.2960   40.0470 N.pl3     1 NAD550      0.0000 
     19 N1A        58.8390   14.9120   41.6480 N.ar      1 NAD550      0.0000 
     20 C2A        59.2750   16.0510   42.1990 C.ar      1 NAD550      0.0000 
     21 N3A        60.1470   16.8190   41.5420 N.ar      1 NAD550      0.0000 
     22 C4A        60.6230   16.4740   40.3170 C.ar      1 NAD550      0.0000 
     23 O3         61.5430   19.4390   33.9210 O.3       1 NAD550      0.0000 
     24 PN         62.4230   18.5920   32.8770 P.3       1 NAD550      0.0000 
     25 O1N        62.0330   17.1450   32.8860 O.co2     1 NAD550      0.0000 
     26 O2N        63.8300   18.9220   33.1790 O.co2     1 NAD550      0.0000 
     27 O5D        61.9850   19.3850   31.5220 O.3       1 NAD550      0.0000 
     28 C5D        61.1000   18.8690   30.4830 C.3       1 NAD550      0.0000 
     29 C4D        60.0690   19.8560   29.8990 C.3       1 NAD550      0.0000 
     30 O4D        59.5170   20.6500   30.9820 O.3       1 NAD550      0.0000 
     31 C3D        60.6770   20.9350   29.0110 C.3       1 NAD550      0.0000 
     32 O3D        60.8820   20.5770   27.6400 O.3       1 NAD550      0.0000 
     33 C2D        59.7940   22.1580   29.2620 C.3       1 NAD550      0.0000 
     34 O2D        58.6140   22.1000   28.4350 O.3       1 NAD550      0.0000 
     35 C1D        59.4610   22.0970   30.7620 C.3       1 NAD550      0.0000 
     36 N1N        60.1250   23.0090   31.7910 N.pl3     1 NAD550      0.0000 
     37 C2N        59.5350   24.3020   31.9880 C.ar      1 NAD550      0.0000 
     38 C3N        60.2490   25.2120   32.7950 C.ar      1 NAD550      0.0000 
     39 C7N        59.6880   26.5590   33.2730 C.2       1 NAD550      0.0000 
     40 O7N        60.4230   27.5460   33.3930 O.2       1 NAD550      0.0000 
     41 N7N        58.3810   26.6090   33.5100 N.am      1 NAD550      0.0000 
     42 C4N        61.5400   24.8500   33.2780 C.ar      1 NAD550      0.0000 
     43 C5N        62.1690   23.5980   33.1050 C.ar      1 NAD550      0.0000 
     44 C6N        61.4050   22.6730   32.4180 C.ar      1 NAD550      0.0000 
     45 H          61.0949   21.1108   37.1759 H         1 NAD550      0.0000 
     46 H          62.7711   21.5360   36.7890 H         1 NAD550      0.0000 
     47 H          62.5366   21.2887   39.1635 H         1 NAD550      0.0000 
     48 H          64.5332   19.9116   37.9369 H         1 NAD550      0.0000 
     49 H          63.2906   18.0030   37.7560 H         1 NAD550      0.0000 
     50 H          62.5372   18.2853   40.6673 H         1 NAD550      0.0000 
     51 H          61.9318   16.3030   37.4988 H         1 NAD550      0.0000 
     52 H          58.9315   16.3381   43.1446 H         1 NAD550      0.0000 
     53 H          60.5295   17.9817   30.8620 H         1 NAD550      0.0000 
     54 H          61.6987   18.4703   29.6234 H         1 NAD550      0.0000 
     55 H          59.3103   19.3541   29.3818 H         1 NAD550      0.0000 
     56 H          61.6566   21.1894   29.5047 H         1 NAD550      0.0000 
     57 H          60.3835   23.0290   29.0874 H         1 NAD550      0.0000 
     58 H          58.3225   22.3264   30.7782 H         1 NAD550      0.0000 
     59 H          58.6623   24.5346   31.5697 H         1 NAD550      0.0000 
     60 H          57.8652   25.7762   33.3090 H         1 NAD550      0.0000 
     61 H          58.0315   27.4749   33.8679 H         1 NAD550      0.0000 
     62 H          62.0737   25.5938   33.8168 H         1 NAD550      0.0000 
     63 H          63.0736   23.4143   33.4493 H         1 NAD550      0.0000 
     64 H          61.7231   21.6890   32.3236 H         1 NAD550      0.0000 
     65 H          65.1130   20.9076   39.8066 H         1 NAD550      0.0000 
     66 H          64.0921   16.5481   39.6427 H         1 NAD550      0.0000 
     67 H          59.6088   12.8521   39.6237 H         1 NAD550      0.0000 
     68 H          61.2655   19.6539   27.6683 H         1 NAD550      0.0000 
     69 H          57.9057   22.5703   28.9615 H         1 NAD550      0.0000 
@<TRIPOS>BOND
     1    2    1 ar   
     2    3    1 ar   
     3    4    1 1    
     4   23    1 1    
     5    5    4 1    
     6    6    5 1    
     7   45    5 1    
     8   46    5 1    
     9    7    6 1    
    10    8    6 1    
    11   47    6 1    
    12   12    7 1    
    13    9    8 1    
    14   10    8 1    
    15   48    8 1    
    16   65    9 1    
    17   11   10 1    
    18   12   10 1    
    19   49   10 1    
    20   66   11 1    
    21   13   12 1    
    22   50   12 1    
    23   14   13 1    
    24   22   13 1    
    25   15   14 2    
    26   51   14 1    
    27   16   15 1    
    28   17   16 ar   
    29   22   16 ar   
    30   18   17 1    
    31   19   17 ar   
    32   67   18 1    
    33   20   19 ar   
    34   21   20 ar   
    35   52   20 1    
    36   22   21 ar   
    37   24   23 1    
    38   25   24 ar   
    39   26   24 ar   
    40   27   24 1    
    41   28   27 1    
    42   29   28 1    
    43   53   28 1    
    44   54   28 1    
    45   30   29 1    
    46   31   29 1    
    47   55   29 1    
    48   35   30 1    
    49   32   31 1    
    50   33   31 1    
    51   56   31 1    
    52   68   32 1    
    53   34   33 1    
    54   35   33 1    
    55   57   33 1    
    56   69   34 1    
    57   36   35 1    
    58   58   35 1    
    59   37   36 ar   
    60   44   36 ar   
    61   38   37 ar   
    62   59   37 1    
    63   39   38 1    
    64   42   38 ar   
    65   40   39 2    
    66   41   39 am   
    67   60   41 1    
    68   61   41 1    
    69   43   42 ar   
    70   62   42 1    
    71   44   43 ar   
    72   63   43 1    
    73   64   44 1    
@<TRIPOS>SUBSTRUCTURE
     1 NAD550      1 GROUP   
@<TRIPOS>SET

