#    Name: 4o67_1SY_1_INTS_M
#    Modification time : Tue Mar 25 13:30:43 2014

@<TRIPOS>MOLECULE
4o67_1SY_1_INTS_M
   43     0    12     0     0
SMALL
NO_CHARGES


@<TRIPOS>ATOM
      1 CA         12.1225   44.7555  133.0250 C.3       4 GLC5        0.0000 
      2 CA         12.0040   43.4210  131.6970 C.3      12 GLL5        0.0000 
      3 CA         12.2410   46.0900  134.3530 C.3       8 GLP5        0.0000 
      4 CA         13.5665   44.6450  131.0725 C.3       4 GLC5        0.0000 
      5 CA         15.1290   45.8690  130.4480 C.3       8 GLP5        0.0000 
      6 N           6.7130   45.5540  132.6235 N.am      2 SEC2        0.0000 
      7 N           6.3460   44.1630  132.7220 N.am     10 SEL2        0.0000 
      8 N           7.0800   46.9450  132.5250 N.am      6 SEP2        0.0000 
      9 CA          6.4290   37.7820  129.7540 C.3       4 GLC5        0.0000 
     10 CA          6.9410   39.4440  128.8740 C.3      12 GLL5        0.0000 
     11 CA          5.9170   36.1200  130.6340 C.3       8 GLP5        0.0000 
     12 CA          8.3010   37.3535  127.3090 C.3       4 GLC5        0.0000 
     13 CA          8.1960   39.4040  128.0510 C.3      12 GLL5        0.0000 
     14 CA          8.4060   35.3030  126.5670 C.3       8 GLP5        0.0000 
     15 CA          7.7525   37.5540  129.1140 C.3       4 GLC5        0.0000 
     16 CA          7.3090   35.7040  130.1770 C.3       8 GLP5        0.0000 
     17 NZ         11.1695   38.7260  127.8330 N.4       3 LYC4        0.0000 
     18 NZ         11.1850   39.7340  128.9600 N.4      11 LYL4        0.0000 
     19 NZ         11.1540   37.7180  126.7060 N.4       7 LYP4        0.0000 
     20 NZ         11.0115   39.1095  126.7275 N.4       3 LYC4        0.0000 
     21 NZ         10.8690   40.5010  126.7490 N.4      11 LYL4        0.0000 
     22 N          11.0115   39.1095  126.7275 N.am      2 SEC2        0.0000 
     23 N          10.8690   40.5010  126.7490 N.am     10 SEL2        0.0000 
     24 N          11.1540   37.7180  126.7060 N.am      6 SEP2        0.0000 
     25 CA          4.7685   39.7215  131.3895 C.3       4 GLC5        0.0000 
     26 CA          7.0090   39.7290  131.1940 C.3      12 GLL5        0.0000 
     27 CA          2.5280   39.7140  131.5850 C.3       8 GLP5        0.0000 
     28 CA          6.4630   37.9245  130.9140 C.3       4 GLC5        0.0000 
     29 N          11.4240   39.2495  133.1520 N.am      2 SEC2        0.0000 
     30 N          10.1890   39.3650  132.5860 N.am     10 SEL2        0.0000 
     31 N          12.6590   39.1340  133.7180 N.am      6 SEP2        0.0000 
     32 O           6.2175   39.0380  137.9870 O.2       1 ALC1        0.0000 
     33 O           6.1650   38.9380  136.5150 O.2       9 ALL1        0.0000 
     34 O           6.2700   39.1380  139.4590 O.2       5 ALP1        0.0000 
     35 O           4.9615   38.6735  135.9615 O.2       1 ALC1        0.0000 
     36 O           3.7580   38.4090  135.4080 O.2       5 ALP1        0.0000 
     37 N          11.7640   38.9970  134.6355 N.am      2 SEC2        0.0000 
     38 N          10.8690   38.8600  135.5530 N.am     10 SEL2        0.0000 
     39 CA          5.5282   40.4207  127.3755 C.3       4 GLC5        0.0000 
     40 CA          4.3480   40.7230  125.7150 C.3       8 GLP5        0.0000 
     41 CA          8.9887   37.5565  132.8717 C.3       4 GLC5        0.0000 
     42 CA          8.0920   39.3610  133.2900 C.3      12 GLL5        0.0000 
     43 CA          9.2260   35.8150  132.2500 C.3       8 GLP5        0.0000 
@<TRIPOS>BOND
@<TRIPOS>SUBSTRUCTURE
     1 ALC1       32 GROUP        1 X    ALC  0     ROOT ALC X 1
     2 SEC2        6 GROUP        1 X    SEC  0     **** SEC X 2
     3 LYC4       17 GROUP        1 X    LYC  0     **** LYC X 4
     4 GLC5        1 GROUP        1 X    GLC  0     **** GLC X 6
     5 ALP1       34 GROUP        1 Y    ALP  0     ROOT ALP Y 8
     6 SEP2        8 GROUP        1 Y    SEP  0     **** SEP Y 9
     7 LYP4       19 GROUP        1 Y    LYP  0     **** LYP Y 11
     8 GLP5        3 GROUP        1 Y    GLP  0     **** GLP Y 13
     9 ALL1       33 GROUP        1 Z    ALL  0     ROOT ALL Z 15
    10 SEL2        7 GROUP        1 Z    SEL  0     **** SEL Z 16
    11 LYL4       18 GROUP        1 Z    LYL  0     **** LYL Z 18
    12 GLL5        2 GROUP        1 Z    GLL  0     **** GLL Z 20
@<TRIPOS>SET

