#    Name: 4o67_1SY_1_ligand
#    Modification time : Tue Mar 25 13:30:43 2014

@<TRIPOS>MOLECULE
4o67_1SY_1_ligand
   67    73     1     0     0
SMALL
NO_CHARGES


@<TRIPOS>ATOM
      1 C2         14.7330   42.1400  134.7290 C.ar      1 1SY601      0.0000 
      2 N01        12.2600   41.3070  137.3620 N.pl3     1 1SY601      0.0000 
      3 C6         12.8480   41.7530  136.0770 C.ar      1 1SY601      0.0000 
      4 N1         14.1850   41.7440  135.8930 N.ar      1 1SY601      0.0000 
      5 N3         13.9770   42.5550  133.7070 N.ar      1 1SY601      0.0000 
      6 C4         12.6110   42.6000  133.7990 C.ar      1 1SY601      0.0000 
      7 C5         11.9860   42.1890  135.0110 C.ar      1 1SY601      0.0000 
      8 N7         10.6230   42.3320  134.8330 N.2       1 1SY601      0.0000 
      9 C8         10.3730   42.8080  133.5890 C.2       1 1SY601      0.0000 
     10 N9         11.5670   42.9690  132.9890 N.pl3     1 1SY601      0.0000 
     11 C1'        12.0040   43.4210  131.6970 C.3       1 1SY601      0.0000 
     12 C2'        11.8590   42.3190  130.7440 C.3       1 1SY601      0.0000 
     13 O2'        13.0630   42.2070  129.9730 O.3       1 1SY601      0.0000 
     14 C3'        10.6680   42.6340  129.9310 C.3       1 1SY601      0.0000 
     15 C4'        10.4240   44.0810  130.0690 C.3       1 1SY601      0.0000 
     16 C16         8.9540   44.4260  130.1850 C.3       1 1SY601      0.0000 
     17 O17         8.3610   43.5990  131.1380 O.3       1 1SY601      0.0000 
     18 P18         6.7760   43.5220  131.3940 P.3       1 1SY601      0.0000 
     19 O19         6.3460   44.1630  132.7220 O.co2     1 1SY601      0.0000 
     20 O20         6.2080   42.0040  131.2440 O.3       1 1SY601      0.0000 
     21 C21         7.0180   41.0740  130.5540 C.3       1 1SY601      0.0000 
     22 C22         6.4760   40.7930  129.1980 C.3       1 1SY601      0.0000 
     23 O23         5.0760   40.7820  129.2800 O.3       1 1SY601      0.0000 
     24 C24         6.9410   39.4440  128.8740 C.3       1 1SY601      0.0000 
     25 C25         8.1960   39.4040  128.0510 C.3       1 1SY601      0.0000 
     26 O26         8.8530   40.6460  128.1520 O.3       1 1SY601      0.0000 
     27 P27        10.4510   40.7410  128.1410 P.3       1 1SY601      0.0000 
     28 O28        10.9130   42.2700  128.5370 O.3       1 1SY601      0.0000 
     29 O29        11.1850   39.7340  128.9600 O.co2     1 1SY601      0.0000 
     30 O30        10.8690   40.5010  126.7490 O.co2     1 1SY601      0.0000 
     31 O31         7.1830   38.7710  130.1300 O.3       1 1SY601      0.0000 
     32 C32         7.0090   39.7290  131.1940 C.3       1 1SY601      0.0000 
     33 N33         8.1210   39.5630  131.9500 N.pl3     1 1SY601      0.0000 
     34 C34         9.3740   39.5640  131.5350 C.2       1 1SY601      0.0000 
     35 N35        10.1890   39.3650  132.5860 N.2       1 1SY601      0.0000 
     36 C36         8.0920   39.3610  133.2900 C.2       1 1SY601      0.0000 
     37 C37         9.4110   39.2350  133.6970 C.2       1 1SY601      0.0000 
     38 C38         9.6950   38.9870  135.1490 C.2       1 1SY601      0.0000 
     39 N39         8.6120   38.8900  136.0630 N.2       1 1SY601      0.0000 
     40 C40         7.2620   39.0210  135.6100 C.2       1 1SY601      0.0000 
     41 N41         6.1650   38.9380  136.5150 N.pl3     1 1SY601      0.0000 
     42 N42         6.9900   39.2620  134.2180 N.pl3     1 1SY601      0.0000 
     43 O43        10.8690   38.8600  135.5530 O.2       1 1SY601      0.0000 
     44 O44         6.1290   44.3130  130.3420 O.co2     1 1SY601      0.0000 
     45 O4'        11.1750   44.4900  131.2450 O.3       1 1SY601      0.0000 
     46 H          15.7822   42.1211  134.6246 H         1 1SY601      0.0000 
     47 H          12.9076   40.9980  138.0585 H         1 1SY601      0.0000 
     48 H          11.2632   41.3511  137.4286 H         1 1SY601      0.0000 
     49 H           9.5140   42.9917  133.2157 H         1 1SY601      0.0000 
     50 H          13.0325   43.7246  131.7291 H         1 1SY601      0.0000 
     51 H          11.6703   41.4110  131.3051 H         1 1SY601      0.0000 
     52 H           9.8255   42.0908  130.3210 H         1 1SY601      0.0000 
     53 H          10.8375   44.5852  129.1957 H         1 1SY601      0.0000 
     54 H           8.5052   44.3066  129.1879 H         1 1SY601      0.0000 
     55 H           8.8828   45.4910  130.4507 H         1 1SY601      0.0000 
     56 H           8.0346   41.3911  130.4480 H         1 1SY601      0.0000 
     57 H           6.8549   41.4909  128.5132 H         1 1SY601      0.0000 
     58 H           6.1559   38.9091  128.3405 H         1 1SY601      0.0000 
     59 H           7.9180   39.1707  127.0142 H         1 1SY601      0.0000 
     60 H           8.8207   38.5789  128.4195 H         1 1SY601      0.0000 
     61 H           6.1083   39.5635  131.6946 H         1 1SY601      0.0000 
     62 H           9.6762   39.6884  130.6137 H         1 1SY601      0.0000 
     63 H           5.3110   38.5780  136.1394 H         1 1SY601      0.0000 
     64 H           6.3413   39.2468  137.4497 H         1 1SY601      0.0000 
     65 H           6.0433   39.3608  133.8923 H         1 1SY601      0.0000 
     66 H          13.7858   42.5548  130.5701 H         1 1SY601      0.0000 
     67 H           4.8584   41.3594  130.0670 H         1 1SY601      0.0000 
@<TRIPOS>BOND
     1    4    1 ar   
     2    5    1 ar   
     3   46    1 1    
     4    3    2 1    
     5   47    2 1    
     6   48    2 1    
     7    4    3 ar   
     8    7    3 ar   
     9    6    5 ar   
    10    7    6 ar   
    11   10    6 1    
    12    8    7 1    
    13    9    8 2    
    14   10    9 1    
    15   49    9 1    
    16   11   10 1    
    17   12   11 1    
    18   45   11 1    
    19   50   11 1    
    20   13   12 1    
    21   14   12 1    
    22   51   12 1    
    23   66   13 1    
    24   15   14 1    
    25   28   14 1    
    26   52   14 1    
    27   16   15 1    
    28   45   15 1    
    29   53   15 1    
    30   17   16 1    
    31   54   16 1    
    32   55   16 1    
    33   18   17 1    
    34   19   18 ar   
    35   20   18 1    
    36   44   18 ar   
    37   21   20 1    
    38   22   21 1    
    39   32   21 1    
    40   56   21 1    
    41   23   22 1    
    42   24   22 1    
    43   57   22 1    
    44   67   23 1    
    45   25   24 1    
    46   31   24 1    
    47   58   24 1    
    48   26   25 1    
    49   59   25 1    
    50   60   25 1    
    51   27   26 1    
    52   28   27 1    
    53   29   27 ar   
    54   30   27 ar   
    55   32   31 1    
    56   33   32 1    
    57   61   32 1    
    58   34   33 1    
    59   36   33 1    
    60   35   34 2    
    61   62   34 1    
    62   37   35 1    
    63   37   36 2    
    64   42   36 1    
    65   38   37 1    
    66   39   38 1    
    67   43   38 2    
    68   40   39 2    
    69   41   40 1    
    70   42   40 1    
    71   63   41 1    
    72   64   41 1    
    73   65   42 1    
@<TRIPOS>SUBSTRUCTURE
     1 1SY601      1 GROUP   
@<TRIPOS>SET

