#    Name: 4ea2_RWZ_1_INTS_M
#    Modification time : Tue Mar 25 10:47:55 2014

@<TRIPOS>MOLECULE
4ea2_RWZ_1_INTS_M
   67     0     3     0     0
SMALL
NO_CHARGES


@<TRIPOS>ATOM
      1 CA        -29.5585  -11.7780   -8.6310 C.3       1 GLC5        0.0000 
      2 CA        -28.1770  -10.5540   -7.8900 C.3       3 GLL5        0.0000 
      3 CA        -30.9400  -13.0020   -9.3720 C.3       2 GLP5        0.0000 
      4 CA        -28.0420   -8.7995   -8.1425 C.3       1 GLC5        0.0000 
      5 CA        -27.9070   -7.0450   -8.3950 C.3       2 GLP5        0.0000 
      6 CA        -24.2230  -10.4440   -5.7290 C.3       1 GLC5        0.0000 
      7 CA        -26.1730  -11.0390   -6.2920 C.3       3 GLL5        0.0000 
      8 CA        -22.2730   -9.8490   -5.1660 C.3       2 GLP5        0.0000 
      9 CA        -26.2740  -10.3195   -4.3700 C.3       1 GLC5        0.0000 
     10 CA        -26.3750   -9.6000   -2.4480 C.3       2 GLP5        0.0000 
     11 CA        -26.4775  -16.1930   -8.6365 C.3       1 GLC5        0.0000 
     12 CA        -24.6530  -15.7330   -8.8150 C.3       3 GLL5        0.0000 
     13 CA        -28.3020  -16.6530   -8.4580 C.3       2 GLP5        0.0000 
     14 CA        -28.8415  -12.8145   -8.7130 C.3       1 GLC5        0.0000 
     15 CA        -26.7430  -12.6270   -8.0540 C.3       3 GLL5        0.0000 
     16 CA        -21.9210  -12.0185   -9.5250 C.3       1 GLC5        0.0000 
     17 CA        -21.4680  -13.7220   -8.8200 C.3       3 GLL5        0.0000 
     18 CA        -22.3740  -10.3150  -10.2300 C.3       2 GLP5        0.0000 
     19 CA        -21.1700  -13.5395  -10.9810 C.3       1 GLC5        0.0000 
     20 CA        -20.8720  -13.3570  -13.1420 C.3       2 GLP5        0.0000 
     21 CA        -19.8885  -12.1550   -8.6205 C.3       1 GLC5        0.0000 
     22 CA        -18.3090  -10.5880   -8.4210 C.3       2 GLP5        0.0000 
     23 CA        -18.6660  -14.6980   -9.7035 C.3       1 GLC5        0.0000 
     24 CA        -20.1210  -15.6310   -8.2750 C.3       3 GLL5        0.0000 
     25 CA        -17.2110  -13.7650  -11.1320 C.3       2 GLP5        0.0000 
     26 CA        -23.1265  -12.0600   -7.1820 C.3       1 GLC5        0.0000 
     27 CA        -24.4350  -13.2160   -8.4240 C.3       3 GLL5        0.0000 
     28 CA        -21.8180  -10.9040   -5.9400 C.3       2 GLP5        0.0000 
     29 CA        -25.5310  -12.3710  -10.0395 C.3       1 GLC5        0.0000 
     30 CA        -26.6270  -11.5260  -11.6550 C.3       2 GLP5        0.0000 
     31 CA        -23.1595  -21.4415   -4.6320 C.3       1 GLC5        0.0000 
     32 CA        -23.1400  -20.2180   -5.9240 C.3       3 GLL5        0.0000 
     33 CA        -23.1790  -22.6650   -3.3400 C.3       2 GLP5        0.0000 
     34 CA        -25.2205  -21.1565   -9.4910 C.3       1 GLC5        0.0000 
     35 CA        -24.1020  -20.0310   -8.1940 C.3       3 GLL5        0.0000 
     36 CA        -26.3390  -22.2820  -10.7880 C.3       2 GLP5        0.0000 
     37 CA        -22.1845  -17.3490   -4.3625 C.3       1 GLC5        0.0000 
     38 CA        -21.9710  -18.0740   -6.2480 C.3       3 GLL5        0.0000 
     39 CA        -22.3980  -16.6240   -2.4770 C.3       2 GLP5        0.0000 
     40 CA        -21.1825  -20.8855   -4.7455 C.3       1 GLC5        0.0000 
     41 CA        -21.8840  -19.5830   -6.4350 C.3       3 GLL5        0.0000 
     42 CA        -20.4810  -22.1880   -3.0560 C.3       2 GLP5        0.0000 
     43 CA        -22.7640  -19.1570  -10.8755 C.3       1 GLC5        0.0000 
     44 CA        -22.8530  -19.3720   -8.7100 C.3       3 GLL5        0.0000 
     45 CA        -22.6750  -18.9420  -13.0410 C.3       2 GLP5        0.0000 
     46 CA        -28.3716  -12.0796   -5.8849 C.3       1 GLC5        0.0000 
     47 CA        -27.0420  -11.4490   -7.4370 C.3       3 GLL5        0.0000 
     48 CA        -29.8520  -13.1390   -4.7920 C.3       2 GLP5        0.0000 
     49 CA        -25.4801  -10.2271   -7.7814 C.3       1 GLC5        0.0000 
     50 CA        -24.0690   -9.4340   -8.5850 C.3       2 GLP5        0.0000 
     51 CA        -27.1670  -14.5135   -7.4883 C.3       1 GLC5        0.0000 
     52 CA        -25.7230  -13.4570   -7.6630 C.3       3 GLL5        0.0000 
     53 CA        -28.1010  -15.9850   -7.1180 C.3       2 GLP5        0.0000 
     54 CA        -26.9016  -11.6701   -9.7569 C.3       1 GLC5        0.0000 
     55 CA        -21.7855  -13.1862   -7.1030 C.3       1 GLC5        0.0000 
     56 CA        -22.4240  -14.6930   -8.8840 C.3       3 GLL5        0.0000 
     57 CA        -21.6250  -12.1650   -5.3540 C.3       2 GLP5        0.0000 
     58 CA        -24.0915  -15.2204  -10.5590 C.3       1 GLC5        0.0000 
     59 CA        -24.8640  -15.5280  -12.2930 C.3       2 GLP5        0.0000 
     60 CA        -24.7015  -11.2815   -8.3631 C.3       1 GLC5        0.0000 
     61 CA        -21.8573  -21.8034   -7.0671 C.3       1 GLC5        0.0000 
     62 CA        -21.6030  -23.6850   -7.0930 C.3       2 GLP5        0.0000 
     63 CA        -25.5239  -19.9989   -6.0701 C.3       1 GLC5        0.0000 
     64 CA        -26.8980  -20.8940   -5.2640 C.3       2 GLP5        0.0000 
     65 CA        -26.0219  -18.5739   -7.7159 C.3       1 GLC5        0.0000 
     66 CA        -24.2990  -19.6980   -6.7290 C.3       3 GLL5        0.0000 
     67 CA        -27.7490  -18.1090   -8.4550 C.3       2 GLP5        0.0000 
@<TRIPOS>BOND
@<TRIPOS>SUBSTRUCTURE
     1 GLC5        1 GROUP        1 X    GLC  0     ROOT GLC X 6
     2 GLP5        3 GROUP        1 Y    GLP  0     ROOT GLP Y 13
     3 GLL5        2 GROUP        1 Z    GLL  0     ROOT GLL Z 20
@<TRIPOS>SET

