#    Name: 4ea2_RWZ_1_ligand
#    Modification time : Tue Mar 25 10:47:56 2014

@<TRIPOS>MOLECULE
4ea2_RWZ_1_ligand
   60    62     1     0     0
SMALL
NO_CHARGES


@<TRIPOS>ATOM
      1 CAA       -28.1770  -10.5540   -7.8900 C.3       1 RWZ301      0.0000 
      2 CAB       -26.1730  -11.0390   -6.2920 C.3       1 RWZ301      0.0000 
      3 CAC       -24.6530  -15.7330   -8.8150 C.3       1 RWZ301      0.0000 
      4 CAD       -26.7430  -12.6270   -8.0540 C.2       1 RWZ301      0.0000 
      5 CAE       -22.4240  -14.6930   -8.8840 C.2       1 RWZ301      0.0000 
      6 CAF       -25.7230  -13.4570   -7.6630 C.3       1 RWZ301      0.0000 
      7 CAG       -21.4680  -13.7220   -8.8200 C.3       1 RWZ301      0.0000 
      8 CAH       -20.1210  -15.6310   -8.2750 C.3       1 RWZ301      0.0000 
      9 CAI       -21.3150  -16.3980   -7.8140 C.3       1 RWZ301      0.0000 
     10 CAJ       -24.4350  -13.2160   -8.4240 C.3       1 RWZ301      0.0000 
     11 CAK       -23.1400  -20.2180   -5.9240 C.3       1 RWZ301      0.0000 
     12 CAL       -21.7110  -19.9430   -7.9030 C.3       1 RWZ301      0.0000 
     13 CAM       -24.1020  -20.0310   -8.1940 C.3       1 RWZ301      0.0000 
     14 CAN       -21.9710  -18.0740   -6.2480 C.3       1 RWZ301      0.0000 
     15 CAO       -24.3890  -18.2130   -6.4920 C.3       1 RWZ301      0.0000 
     16 NAP       -20.3520  -14.2200   -8.0310 N.3       1 RWZ301      0.0000 
     17 NAQ       -21.6980  -17.2760   -8.8970 N.4       1 RWZ301      0.0000 
     18 CAR       -27.0420  -11.4490   -7.4370 C.2       1 RWZ301      0.0000 
     19 CAS       -23.7750  -14.5320   -8.7170 C.2       1 RWZ301      0.0000 
     20 CAT       -21.8840  -19.5830   -6.4350 C.3       1 RWZ301      0.0000 
     21 CAU       -24.2990  -19.6980   -6.7290 C.3       1 RWZ301      0.0000 
     22 CAV       -22.8530  -19.3720   -8.7100 C.3       1 RWZ301      0.0000 
     23 CAW       -23.1450  -17.5450   -7.0310 C.3       1 RWZ301      0.0000 
     24 CAX       -22.9470  -17.8780   -8.4970 C.3       1 RWZ301      0.0000 
     25 H         -27.3325  -12.9231   -8.8872 H         1 RWZ301      0.0000 
     26 H         -22.0809  -15.7015   -9.0889 H         1 RWZ301      0.0000 
     27 H         -25.9777  -14.5385   -7.7946 H         1 RWZ301      0.0000 
     28 H         -25.4796  -13.3524   -6.5760 H         1 RWZ301      0.0000 
     29 H         -21.8445  -12.7921   -8.3516 H         1 RWZ301      0.0000 
     30 H         -21.0925  -13.4356   -9.8214 H         1 RWZ301      0.0000 
     31 H         -19.9642  -15.8197   -9.3398 H         1 RWZ301      0.0000 
     32 H         -19.2402  -15.9795   -7.7304 H         1 RWZ301      0.0000 
     33 H         -22.1146  -15.7030   -7.5733 H         1 RWZ301      0.0000 
     34 H         -21.0534  -16.9654   -6.9251 H         1 RWZ301      0.0000 
     35 H         -23.7735  -12.5971   -7.8230 H         1 RWZ301      0.0000 
     36 H         -24.6590  -12.7002   -9.3544 H         1 RWZ301      0.0000 
     37 H         -23.2813  -19.9656   -4.8782 H         1 RWZ301      0.0000 
     38 H         -23.0776  -21.2960   -6.0308 H         1 RWZ301      0.0000 
     39 H         -21.6946  -21.0253   -8.0069 H         1 RWZ301      0.0000 
     40 H         -20.7690  -19.5361   -8.2630 H         1 RWZ301      0.0000 
     41 H         -24.9639  -19.6804   -8.7612 H         1 RWZ301      0.0000 
     42 H         -24.0220  -21.1117   -8.3092 H         1 RWZ301      0.0000 
     43 H         -21.0544  -17.6168   -6.6047 H         1 RWZ301      0.0000 
     44 H         -22.1010  -17.8519   -5.1943 H         1 RWZ301      0.0000 
     45 H         -24.4724  -18.0172   -5.4266 H         1 RWZ301      0.0000 
     46 H         -25.2630  -17.8141   -6.9994 H         1 RWZ301      0.0000 
     47 H         -21.0449  -19.9582   -5.8806 H         1 RWZ301      0.0000 
     48 H         -25.2015  -20.1666   -6.3729 H         1 RWZ301      0.0000 
     49 H         -22.7213  -19.5983   -9.7308 H         1 RWZ301      0.0000 
     50 H         -23.2135  -16.4942   -6.9008 H         1 RWZ301      0.0000 
     51 H         -23.7577  -17.4822   -9.0596 H         1 RWZ301      0.0000 
     52 H         -27.8483   -9.6547   -8.1786 H         1 RWZ301      0.0000 
     53 H         -28.6735  -10.9469   -8.6641 H         1 RWZ301      0.0000 
     54 H         -28.8440  -10.4021   -7.1606 H         1 RWZ301      0.0000 
     55 H         -25.4647  -11.7186   -6.1014 H         1 RWZ301      0.0000 
     56 H         -25.7072  -10.1724   -6.4710 H         1 RWZ301      0.0000 
     57 H         -26.6994  -10.9203   -5.4501 H         1 RWZ301      0.0000 
     58 H         -24.5795  -16.1748   -9.7091 H         1 RWZ301      0.0000 
     59 H         -24.4192  -16.4210   -8.1280 H         1 RWZ301      0.0000 
     60 H         -25.6164  -15.5007   -8.6812 H         1 RWZ301      0.0000 
@<TRIPOS>BOND
     1   18    1 1    
     2   52    1 1    
     3   53    1 1    
     4   54    1 1    
     5   18    2 1    
     6   55    2 1    
     7   56    2 1    
     8   57    2 1    
     9   19    3 1    
    10   58    3 1    
    11   59    3 1    
    12   60    3 1    
    13    6    4 1    
    14   18    4 2    
    15   25    4 1    
    16    7    5 1    
    17   19    5 2    
    18   26    5 1    
    19   10    6 1    
    20   27    6 1    
    21   28    6 1    
    22   16    7 1    
    23   29    7 1    
    24   30    7 1    
    25    9    8 1    
    26   16    8 1    
    27   31    8 1    
    28   32    8 1    
    29   17    9 1    
    30   33    9 1    
    31   34    9 1    
    32   19   10 1    
    33   35   10 1    
    34   36   10 1    
    35   20   11 1    
    36   21   11 1    
    37   37   11 1    
    38   38   11 1    
    39   20   12 1    
    40   22   12 1    
    41   39   12 1    
    42   40   12 1    
    43   21   13 1    
    44   22   13 1    
    45   41   13 1    
    46   42   13 1    
    47   20   14 1    
    48   23   14 1    
    49   43   14 1    
    50   44   14 1    
    51   21   15 1    
    52   23   15 1    
    53   45   15 1    
    54   46   15 1    
    55   24   17 1    
    56   47   20 1    
    57   48   21 1    
    58   24   22 1    
    59   49   22 1    
    60   24   23 1    
    61   50   23 1    
    62   51   24 1    
@<TRIPOS>SUBSTRUCTURE
     1 RWZ301      1 GROUP   
@<TRIPOS>SET

