#    Name: 3vru_YS3_1_INTS_M
#    Modification time : Tue Mar 25 01:21:18 2014

@<TRIPOS>MOLECULE
3vru_YS3_1_INTS_M
  103     0     9     0     0
SMALL
NO_CHARGES


@<TRIPOS>ATOM
      1 N         -12.4195   19.6045   -8.7075 N.am      2 SEC2        0.0000 
      2 N         -11.9620   19.4710   -7.4140 N.am      8 SEL2        0.0000 
      3 N         -12.8770   19.7380  -10.0010 N.am      5 SEP2        0.0000 
      4 N         -13.0450   18.6555   -7.1200 N.am      2 SEC2        0.0000 
      5 N         -14.1280   17.8400   -6.8260 N.am      5 SEP2        0.0000 
      6 CA         -8.4210   21.3630   -7.7320 C.3       3 GLC5        0.0000 
      7 CA        -10.0270   20.8420   -7.1020 C.3       9 GLL5        0.0000 
      8 CA         -6.8150   21.8840   -8.3620 C.3       6 GLP5        0.0000 
      9 CA        -11.7100   21.2695   -3.8885 C.3       3 GLC5        0.0000 
     10 CA        -11.3550   20.0000   -5.1770 C.3       9 GLL5        0.0000 
     11 CA        -12.0650   22.5390   -2.6000 C.3       6 GLP5        0.0000 
     12 CA        -11.7975   18.5250   -3.9605 C.3       3 GLC5        0.0000 
     13 CA        -12.2400   17.0500   -2.7440 C.3       6 GLP5        0.0000 
     14 CA        -14.1110   21.5030   -9.3115 C.3       3 GLC5        0.0000 
     15 CA        -15.2130   22.0500   -7.9950 C.3       9 GLL5        0.0000 
     16 CA        -13.0090   20.9560  -10.6280 C.3       6 GLP5        0.0000 
     17 CA        -16.1520   20.9255   -9.2395 C.3       3 GLC5        0.0000 
     18 CA        -17.0910   19.8010  -10.4840 C.3       6 GLP5        0.0000 
     19 CA        -15.2565   20.0135   -7.7515 C.3       3 GLC5        0.0000 
     20 CA        -15.3000   17.9770   -7.5080 C.3       6 GLP5        0.0000 
     21 CA        -16.1830   20.7110   -4.2200 C.3       3 GLC5        0.0000 
     22 CA        -16.2600   22.6260   -4.8310 C.3       9 GLL5        0.0000 
     23 CA        -16.1060   18.7960   -3.6090 C.3       6 GLP5        0.0000 
     24 CA        -16.8950   23.1705   -2.0240 C.3       3 GLC5        0.0000 
     25 CA        -17.0250   23.6570   -3.9660 C.3       9 GLL5        0.0000 
     26 CA        -16.7650   22.6840   -0.0820 C.3       6 GLP5        0.0000 
     27 CA        -18.8755   22.4630   -4.1420 C.3       3 GLC5        0.0000 
     28 CA        -20.7260   21.2690   -4.3180 C.3       6 GLP5        0.0000 
     29 CA        -12.7805   26.3550   -4.8000 C.3       3 GLC5        0.0000 
     30 CA        -14.1950   24.8090   -4.3840 C.3       9 GLL5        0.0000 
     31 CA        -11.3660   27.9010   -5.2160 C.3       6 GLP5        0.0000 
     32 CA        -13.5020   26.4255   -3.0530 C.3       3 GLC5        0.0000 
     33 CA        -12.8090   28.0420   -1.7220 C.3       6 GLP5        0.0000 
     34 CA        -13.1300   23.6740   -3.4920 C.3       3 GLC5        0.0000 
     35 CA        -17.2135   28.5490   -6.3375 C.3       3 GLC5        0.0000 
     36 CA        -15.5410   27.4340   -5.7610 C.3       9 GLL5        0.0000 
     37 CA        -18.8860   29.6640   -6.9140 C.3       6 GLP5        0.0000 
     38 CA        -15.1360   29.4180   -6.1335 C.3       3 GLC5        0.0000 
     39 CA        -14.7310   31.4020   -6.5060 C.3       6 GLP5        0.0000 
     40 CA        -18.1210   28.4535   -5.2575 C.3       3 GLC5        0.0000 
     41 CA        -16.8420   27.4790   -4.8990 C.3       9 GLL5        0.0000 
     42 CA        -19.4000   29.4280   -5.6160 C.3       6 GLP5        0.0000 
     43 CA        -18.5330   27.2720   -4.6465 C.3       3 GLC5        0.0000 
     44 CA        -16.8910   26.2970   -3.9120 C.3       9 GLL5        0.0000 
     45 CA        -20.1750   28.2470   -5.3810 C.3       6 GLP5        0.0000 
     46 CA        -16.8625   24.5555   -1.2910 C.3       3 GLC5        0.0000 
     47 CA        -16.9600   26.4270   -2.5000 C.3       9 GLL5        0.0000 
     48 CA        -14.2535   27.3120    0.5910 C.3       3 GLC5        0.0000 
     49 CA        -16.1530   26.6870    0.4400 C.3       9 GLL5        0.0000 
     50 CA        -12.3540   27.9370    0.7420 C.3       6 GLP5        0.0000 
     51 CA        -16.4590   24.6855    0.1790 C.3       3 GLC5        0.0000 
     52 CA        -15.4975   25.1605    2.3425 C.3       3 GLC5        0.0000 
     53 CA        -16.9160   26.7950    1.7760 C.3       9 GLL5        0.0000 
     54 CA        -14.0790   23.5260    2.9090 C.3       6 GLP5        0.0000 
     55 CA        -18.3070   25.5915    2.6365 C.3       3 GLC5        0.0000 
     56 CA        -19.6980   24.3880    3.4970 C.3       6 GLP5        0.0000 
     57 N         -16.8265   25.5955    3.9860 N.am      2 SEC2        0.0000 
     58 N         -16.5560   25.7980    2.6850 N.am      8 SEL2        0.0000 
     59 N         -17.0970   25.3930    5.2870 N.am      5 SEP2        0.0000 
     60 O         -15.2715   25.3715    2.6820 O.2       1 ALC1        0.0000 
     61 O         -16.5560   25.7980    2.6850 O.2       7 ALL1        0.0000 
     62 O         -13.9870   24.9450    2.6790 O.2       4 ALP1        0.0000 
     63 CA        -18.2585   29.6675    3.1795 C.3       3 GLC5        0.0000 
     64 CA        -16.9460   29.3370    1.5010 C.3       9 GLL5        0.0000 
     65 CA        -19.5710   29.9980    4.8580 C.3       6 GLP5        0.0000 
     66 CA        -18.2980   30.8545    0.8900 C.3       3 GLC5        0.0000 
     67 CA        -19.6500   32.3720    0.2790 C.3       6 GLP5        0.0000 
     68 N         -18.9860   29.9125    2.5425 N.am      2 SEC2        0.0000 
     69 N         -18.3770   29.2630    1.4850 N.am      8 SEL2        0.0000 
     70 N         -19.5950   30.5620    3.6000 N.am      5 SEP2        0.0000 
     71 O         -18.8580   30.3000    0.4150 O.2       1 ALC1        0.0000 
     72 O         -18.3770   29.2630    1.4850 O.2       7 ALL1        0.0000 
     73 O         -19.3390   31.3370   -0.6550 O.2       4 ALP1        0.0000 
     74 CA        -12.4360   21.0560   -8.6955 C.3       3 GLC5        0.0000 
     75 CA        -12.3050   21.7910   -6.8870 C.3       9 GLL5        0.0000 
     76 CA        -12.5015   22.2088   -4.5367 C.3       3 GLC5        0.0000 
     77 CA        -15.0267   23.6562   -8.9923 C.3       3 GLC5        0.0000 
     78 CA        -14.5560   22.8230   -6.8340 C.3       9 GLL5        0.0000 
     79 CA        -15.1690   24.8760  -10.5700 C.3       6 GLP5        0.0000 
     80 CA        -13.3825   27.3158   -5.6423 C.3       3 GLC5        0.0000 
     81 CA        -15.2570   26.0270   -6.3760 C.3       9 GLL5        0.0000 
     82 CA        -15.4860   26.9623   -7.8253 C.3       3 GLC5        0.0000 
     83 CA        -15.5730   27.1940   -9.5820 C.3       6 GLP5        0.0000 
     84 CA        -18.4803   26.4880   -2.1195 C.3       3 GLC5        0.0000 
     85 CA        -20.0350   26.6140   -1.0330 C.3       6 GLP5        0.0000 
     86 CA        -18.3555   28.2110   -2.8275 C.3       3 GLC5        0.0000 
     87 CA        -19.9530   29.3990   -3.4640 C.3       6 GLP5        0.0000 
     88 CA        -18.3053   27.1648   -1.1132 C.3       3 GLC5        0.0000 
     89 CA        -16.5560   27.6190   -1.8820 C.3       9 GLL5        0.0000 
     90 CA        -14.8293   29.9870    1.4890 C.3       3 GLC5        0.0000 
     91 CA        -16.3630   29.2230    0.0510 C.3       9 GLL5        0.0000 
     92 CA        -13.0040   30.6940    2.2020 C.3       6 GLP5        0.0000 
     93 CA        -14.6391   28.2556   -1.1466 C.3       3 GLC5        0.0000 
     94 CA        -16.3043   30.9445    0.4110 C.3       3 GLC5        0.0000 
     95 CA        -15.9540   32.6090    0.0460 C.3       6 GLP5        0.0000 
     96 CA        -18.2848   26.6775    0.0375 C.3       3 GLC5        0.0000 
     97 CA        -14.6457   29.4557    2.5915 C.3       3 GLC5        0.0000 
     98 CA        -16.0200   28.2940    3.6070 C.3       9 GLL5        0.0000 
     99 CA        -17.9099   28.2240    3.9221 C.3       3 GLC5        0.0000 
    100 CA        -19.4420   28.5670    5.0080 C.3       6 GLP5        0.0000 
    101 CA        -16.7749   30.5161    3.0500 C.3       3 GLC5        0.0000 
    102 CA        -16.5550   28.1410    2.3550 C.3       9 GLL5        0.0000 
    103 CA        -16.9330   32.2550    3.8590 C.3       6 GLP5        0.0000 
@<TRIPOS>BOND
@<TRIPOS>SUBSTRUCTURE
     1 ALC1       60 GROUP        1 X    ALC  0     ROOT ALC X 1
     2 SEC2        1 GROUP        1 X    SEC  0     **** SEC X 2
     3 GLC5        6 GROUP        1 X    GLC  0     **** GLC X 6
     4 ALP1       62 GROUP        1 Y    ALP  0     ROOT ALP Y 8
     5 SEP2        3 GROUP        1 Y    SEP  0     **** SEP Y 9
     6 GLP5        8 GROUP        1 Y    GLP  0     **** GLP Y 13
     7 ALL1       61 GROUP        1 Z    ALL  0     ROOT ALL Z 15
     8 SEL2        2 GROUP        1 Z    SEL  0     **** SEL Z 16
     9 GLL5        7 GROUP        1 Z    GLL  0     **** GLL Z 20
@<TRIPOS>SET

