#    Name: 3vru_YS3_1_ligand
#    Modification time : Tue Mar 25 01:21:19 2014

@<TRIPOS>MOLECULE
3vru_YS3_1_ligand
   69    71     1     0     0
SMALL
NO_CHARGES


@<TRIPOS>ATOM
      1 OAH       -11.9620   19.4710   -7.4140 O.3       1 YS3501      0.0000 
      2 CBA       -11.4210   20.5210   -6.6390 C.3       1 YS3501      0.0000 
      3 CAC       -10.0270   20.8420   -7.1020 C.3       1 YS3501      0.0000 
      4 CAD       -11.3550   20.0000   -5.1770 C.3       1 YS3501      0.0000 
      5 CAP       -12.3050   21.7910   -6.8870 C.3       1 YS3501      0.0000 
      6 CAM       -13.5710   21.9660   -6.0600 C.3       1 YS3501      0.0000 
      7 CAW       -14.5560   22.8230   -6.8340 C.3       1 YS3501      0.0000 
      8 CAB       -15.2130   22.0500   -7.9950 C.3       1 YS3501      0.0000 
      9 CAZ       -15.6920   23.4790   -6.0040 C.3       1 YS3501      0.0000 
     10 CAN       -16.2600   22.6260   -4.8310 C.3       1 YS3501      0.0000 
     11 CAQ       -17.0250   23.6570   -3.9660 C.3       1 YS3501      0.0000 
     12 CBB       -16.7790   24.9840   -4.6930 C.3       1 YS3501      0.0000 
     13 CBC       -15.3950   24.8520   -5.3460 C.3       1 YS3501      0.0000 
     14 CAE       -14.1950   24.8090   -4.3840 C.3       1 YS3501      0.0000 
     15 CAO       -15.2570   26.0270   -6.3760 C.3       1 YS3501      0.0000 
     16 CAK       -15.5410   27.4340   -5.7610 C.3       1 YS3501      0.0000 
     17 CAL       -16.8420   27.4790   -4.8990 C.3       1 YS3501      0.0000 
     18 CAV       -16.8910   26.2970   -3.9120 C.2       1 YS3501      0.0000 
     19 CAJ       -16.9600   26.4270   -2.5000 C.2       1 YS3501      0.0000 
     20 CAI       -16.5560   27.6190   -1.8820 C.2       1 YS3501      0.0000 
     21 CAU       -16.5950   27.8120   -0.5050 C.2       1 YS3501      0.0000 
     22 CAS       -16.3630   29.2230    0.0510 C.3       1 YS3501      0.0000 
     23 CAR       -16.1530   26.6870    0.4400 C.3       1 YS3501      0.0000 
     24 CAX       -16.9160   26.7950    1.7760 C.3       1 YS3501      0.0000 
     25 OAF       -16.5560   25.7980    2.6850 O.3       1 YS3501      0.0000 
     26 CAT       -16.5550   28.1410    2.3550 C.2       1 YS3501      0.0000 
     27 CAA       -16.0200   28.2940    3.6070 C.2       1 YS3501      0.0000 
     28 CAY       -16.9460   29.3370    1.5010 C.3       1 YS3501      0.0000 
     29 OAG       -18.3770   29.2630    1.4850 O.3       1 YS3501      0.0000 
     30 H         -12.5730   21.8043   -7.9738 H         1 YS3501      0.0000 
     31 H         -11.6491   22.6871   -6.7462 H         1 YS3501      0.0000 
     32 H         -13.3248   22.4518   -5.1235 H         1 YS3501      0.0000 
     33 H         -14.0101   20.9952   -5.8643 H         1 YS3501      0.0000 
     34 H         -13.9971   23.6595   -7.3121 H         1 YS3501      0.0000 
     35 H         -16.5692   23.6582   -6.6762 H         1 YS3501      0.0000 
     36 H         -15.4615   22.2183   -4.2766 H         1 YS3501      0.0000 
     37 H         -16.9341   21.9112   -5.2130 H         1 YS3501      0.0000 
     38 H         -16.5988   23.6896   -3.0003 H         1 YS3501      0.0000 
     39 H         -18.0554   23.4260   -3.9744 H         1 YS3501      0.0000 
     40 H         -17.4932   25.0221   -5.5489 H         1 YS3501      0.0000 
     41 H         -15.9565   25.8534   -7.1974 H         1 YS3501      0.0000 
     42 H         -14.2420   26.0173   -6.7806 H         1 YS3501      0.0000 
     43 H         -15.6317   28.1597   -6.5719 H         1 YS3501      0.0000 
     44 H         -14.6941   27.7204   -5.1339 H         1 YS3501      0.0000 
     45 H         -17.6990   27.4323   -5.5618 H         1 YS3501      0.0000 
     46 H         -16.8600   28.4120   -4.3468 H         1 YS3501      0.0000 
     47 H         -17.3062   25.6451   -1.9392 H         1 YS3501      0.0000 
     48 H         -16.2089   28.3989   -2.4905 H         1 YS3501      0.0000 
     49 H         -16.8601   29.9500   -0.5764 H         1 YS3501      0.0000 
     50 H         -15.3026   29.4311    0.0906 H         1 YS3501      0.0000 
     51 H         -15.0911   26.7732    0.6305 H         1 YS3501      0.0000 
     52 H         -16.3690   25.7289   -0.0149 H         1 YS3501      0.0000 
     53 H         -17.9664   26.8072    1.5506 H         1 YS3501      0.0000 
     54 H         -16.6013   30.2190    1.9591 H         1 YS3501      0.0000 
     55 H          -9.6204   21.5842   -6.5692 H         1 YS3501      0.0000 
     56 H          -9.4174   20.0536   -7.0192 H         1 YS3501      0.0000 
     57 H         -10.0102   21.1260   -8.0607 H         1 YS3501      0.0000 
     58 H         -10.7778   19.1872   -5.0981 H         1 YS3501      0.0000 
     59 H         -10.9804   20.6871   -4.5544 H         1 YS3501      0.0000 
     60 H         -12.2595   19.7521   -4.8299 H         1 YS3501      0.0000 
     61 H         -14.5356   21.7234   -8.6541 H         1 YS3501      0.0000 
     62 H         -15.7159   21.2490   -7.6703 H         1 YS3501      0.0000 
     63 H         -15.8623   22.6190   -8.4996 H         1 YS3501      0.0000 
     64 H         -13.3557   24.5279   -4.8495 H         1 YS3501      0.0000 
     65 H         -14.0167   25.7028   -3.9725 H         1 YS3501      0.0000 
     66 H         -14.3436   24.1651   -3.6334 H         1 YS3501      0.0000 
     67 H         -11.3846   20.0484   -6.8366 H         1 YS3501      0.0000 
     68 H         -15.5900   25.6165    2.5008 H         1 YS3501      0.0000 
     69 H         -18.6723   30.0745    0.9807 H         1 YS3501      0.0000 
@<TRIPOS>BOND
     1    2    1 1    
     2   67    1 1    
     3    3    2 1    
     4    4    2 1    
     5    5    2 1    
     6   55    3 1    
     7   56    3 1    
     8   57    3 1    
     9   58    4 1    
    10   59    4 1    
    11   60    4 1    
    12    6    5 1    
    13   30    5 1    
    14   31    5 1    
    15    7    6 1    
    16   32    6 1    
    17   33    6 1    
    18    8    7 1    
    19    9    7 1    
    20   34    7 1    
    21   61    8 1    
    22   62    8 1    
    23   63    8 1    
    24   10    9 1    
    25   13    9 1    
    26   35    9 1    
    27   11   10 1    
    28   36   10 1    
    29   37   10 1    
    30   12   11 1    
    31   38   11 1    
    32   39   11 1    
    33   13   12 1    
    34   18   12 1    
    35   40   12 1    
    36   14   13 1    
    37   15   13 1    
    38   64   14 1    
    39   65   14 1    
    40   66   14 1    
    41   16   15 1    
    42   41   15 1    
    43   42   15 1    
    44   17   16 1    
    45   43   16 1    
    46   44   16 1    
    47   18   17 1    
    48   45   17 1    
    49   46   17 1    
    50   19   18 2    
    51   20   19 1    
    52   47   19 1    
    53   21   20 2    
    54   48   20 1    
    55   22   21 1    
    56   23   21 1    
    57   28   22 1    
    58   49   22 1    
    59   50   22 1    
    60   24   23 1    
    61   51   23 1    
    62   52   23 1    
    63   25   24 1    
    64   26   24 1    
    65   53   24 1    
    66   68   25 1    
    67   27   26 2    
    68   28   26 1    
    69   29   28 1    
    70   54   28 1    
    71   69   29 1    
@<TRIPOS>SUBSTRUCTURE
     1 YS3501      1 GROUP   
@<TRIPOS>SET

