#    Name: 3VLN_1_CAVITY_N1_6.mol2
#    Modification time : Tue Mar 11 11:39:38 2014

@<TRIPOS>MOLECULE
3VLN_1_CAVITY_N1_6.mol2
   37     0     6     0     0
SMALL
NO_CHARGES


@<TRIPOS>ATOM
      1 OD1        13.9710   -5.6102    9.7126 O.3       3 ASP3        0.0000 
      2 CA         13.4373   -6.2510   10.9595 C.3       5 GLY6        0.0000 
      3 OG         14.9288   -4.1250   10.8858 O.2       1 SER1        0.0000 
      4 OG         14.3952   -4.7657   12.1327 O.2       1 SER1        0.0000 
      5 CA         15.3178   -5.4744   10.3588 C.3       5 GLY6        0.0000 
      6 CA         14.7842   -6.1151   11.6057 C.3       5 GLY6        0.0000 
      7 CA         14.2505   -6.7559   12.8526 C.3       5 GLY6        0.0000 
      8 CA         15.1731   -7.4646   11.0787 C.3       5 GLY6        0.0000 
      9 OG         14.8194   -3.9212   14.5528 O.2       1 SER1        0.0000 
     10 OG         15.7420   -4.6299   12.7789 O.2       1 SER1        0.0000 
     11 DU         15.2084   -5.2706   14.0258 H         6 CUB7        0.0000 
     12 CA         16.1310   -5.9793   12.2519 C.3       5 GLY6        0.0000 
     13 DU         15.5974   -6.6200   13.4988 H         6 CUB7        0.0000 
     14 CA         16.5200   -7.3287   11.7249 C.3       5 GLY6        0.0000 
     15 N          15.9863   -7.9695   12.9718 N.2       2 ALA2        0.0000 
     16 DU         14.7100   -3.7174   18.2197 H         6 CUB7        0.0000 
     17 OG         16.6999   -3.1446   13.9521 O.2       1 SER1        0.0000 
     18 OG         16.1662   -3.7853   15.1990 O.2       1 SER1        0.0000 
     19 DU         15.6326   -4.4261   16.4459 H         6 CUB7        0.0000 
     20 OG         17.0888   -4.4940   13.4251 O.2       1 SER1        0.0000 
     21 DU         16.5552   -5.1347   14.6720 H         6 CUB7        0.0000 
     22 CZ         16.0216   -5.7755   15.9189 C.ar      4 PHE5        0.0000 
     23 CA         17.4778   -5.8434   12.8981 C.3       5 GLY6        0.0000 
     24 DU         16.9442   -6.4842   14.1450 H         6 CUB7        0.0000 
     25 CZ         16.4106   -7.1249   15.3919 C.ar      4 PHE5        0.0000 
     26 CA         17.8668   -7.1929   12.3712 C.3       5 GLY6        0.0000 
     27 OG         17.3332   -7.8336   13.6180 O.2       1 SER1        0.0000 
     28 DU         17.5131   -3.6495   15.8452 H         6 CUB7        0.0000 
     29 DU         16.9794   -4.2902   17.0921 H         6 CUB7        0.0000 
     30 CZ         16.4458   -4.9310   18.3390 C.ar      4 PHE5        0.0000 
     31 CZ         15.9122   -5.5717   19.5858 C.ar      4 PHE5        0.0000 
     32 OG         18.4357   -4.3581   14.0714 O.2       1 SER1        0.0000 
     33 DU         17.9020   -4.9989   15.3182 H         6 CUB7        0.0000 
     34 CZ         17.3684   -5.6396   16.5651 C.ar      4 PHE5        0.0000 
     35 CA         18.8246   -5.7076   13.5444 C.3       5 GLY6        0.0000 
     36 OG         18.2910   -6.3483   14.7912 O.2       1 SER1        0.0000 
     37 CA         19.2489   -4.8630   15.9644 C.3       5 GLY6        0.0000 
@<TRIPOS>BOND
@<TRIPOS>SUBSTRUCTURE
     1 SER1        3 GROUP   
     2 ALA2       15 GROUP   
     3 ASP3        1 GROUP   
     4 PHE5       22 GROUP   
     5 GLY6        2 GROUP   
     6 CUB7       11 GROUP   
@<TRIPOS>SET

