#    Name: 3vln_ASC_1_INTS_M
#    Modification time : Tue Mar 25 01:09:59 2014

@<TRIPOS>MOLECULE
3vln_ASC_1_INTS_M
   24     0     6     0     0
SMALL
NO_CHARGES


@<TRIPOS>ATOM
      1 CA         16.0170   -9.2190   16.3310 C.3       2 GLC5        0.0000 
      2 CA         14.8560   -9.6630   15.1330 C.3       6 GLL5        0.0000 
      3 CA         17.1780   -8.7750   17.5290 C.3       4 GLP5        0.0000 
      4 CA         16.3795  -10.5130   16.4740 C.3       2 GLC5        0.0000 
      5 CA         15.1490  -10.9230   15.2410 C.3       6 GLL5        0.0000 
      6 CA         17.6100  -10.1030   17.7070 C.3       4 GLP5        0.0000 
      7 CA         14.8595  -14.9290   15.9315 C.3       2 GLC5        0.0000 
      8 CA         14.8450  -12.9880   16.6620 C.3       6 GLL5        0.0000 
      9 CA         14.8740  -16.8700   15.2010 C.3       4 GLP5        0.0000 
     10 CA         16.1935  -12.0190   18.4405 C.3       2 GLC5        0.0000 
     11 CA         15.2830  -13.2010   18.1140 C.3       6 GLL5        0.0000 
     12 CA         17.1040  -10.8370   18.7670 C.3       4 GLP5        0.0000 
     13 N          16.3410  -14.6900   16.1200 N.am      1 SEC2        0.0000 
     14 N          15.9340  -13.3290   15.7250 N.am      5 SEL2        0.0000 
     15 N          16.7480  -16.0510   16.5150 N.am      3 SEP2        0.0000 
     16 N          16.2320  -14.3375   18.8215 N.am      1 SEC2        0.0000 
     17 N          14.7980  -14.2890   18.8900 N.am      5 SEL2        0.0000 
     18 N          17.6660  -14.3860   18.7530 N.am      3 SEP2        0.0000 
     19 CA         15.8238  -11.5785   17.5988 C.3       2 GLC5        0.0000 
     20 CA         14.2420  -11.6520   16.1990 C.3       6 GLL5        0.0000 
     21 CA         13.2681  -10.8493   14.3100 C.3       2 GLC5        0.0000 
     22 CA         11.9140  -10.7260   12.9270 C.3       4 GLP5        0.0000 
     23 CA         16.7700  -13.9053   17.5195 C.3       2 GLC5        0.0000 
     24 CA         18.4760  -14.7160   17.6510 C.3       4 GLP5        0.0000 
@<TRIPOS>BOND
@<TRIPOS>SUBSTRUCTURE
     1 SEC2       13 GROUP        1 X    SEC  0     ROOT SEC X 2
     2 GLC5        1 GROUP        1 X    GLC  0     **** GLC X 6
     3 SEP2       15 GROUP        1 Y    SEP  0     ROOT SEP Y 9
     4 GLP5        3 GROUP        1 Y    GLP  0     **** GLP Y 13
     5 SEL2       14 GROUP        1 Z    SEL  0     ROOT SEL Z 16
     6 GLL5        2 GROUP        1 Z    GLL  0     **** GLL Z 20
@<TRIPOS>SET

