#    Name: 3vln_ASC_1_ligand
#    Modification time : Tue Mar 25 01:09:59 2014

@<TRIPOS>MOLECULE
3vln_ASC_1_ligand
   20    20     1     0     0
SMALL
NO_CHARGES


@<TRIPOS>ATOM
      1 C1         13.8410   -9.4600   16.1420 C.2       1 ASC904      0.0000 
      2 C2         14.8560   -9.6630   15.1330 C.2       1 ASC904      0.0000 
      3 C3         15.1490  -10.9230   15.2410 C.2       1 ASC904      0.0000 
      4 C4         14.2420  -11.6520   16.1990 C.3       1 ASC904      0.0000 
      5 C5         14.8450  -12.9880   16.6620 C.3       1 ASC904      0.0000 
      6 C6         15.2830  -13.2010   18.1140 C.3       1 ASC904      0.0000 
      7 O1         13.1400   -8.4660   16.2640 O.2       1 ASC904      0.0000 
      8 O2         15.3960   -8.8120   14.2700 O.3       1 ASC904      0.0000 
      9 O3         16.0420  -11.4970   14.5510 O.3       1 ASC904      0.0000 
     10 O4         13.7670  -10.6140   17.0340 O.3       1 ASC904      0.0000 
     11 O5         15.9340  -13.3290   15.7250 O.3       1 ASC904      0.0000 
     12 O6         14.7980  -14.2890   18.8900 O.3       1 ASC904      0.0000 
     13 H          13.3568  -11.9393   15.4919 H         1 ASC904      0.0000 
     14 H          14.0353  -13.7720   16.4520 H         1 ASC904      0.0000 
     15 H          15.0790  -12.2069   18.6551 H         1 ASC904      0.0000 
     16 H          16.4329  -13.2063   18.1001 H         1 ASC904      0.0000 
     17 H          16.0973   -9.3397   13.7907 H         1 ASC904      0.0000 
     18 H          15.7928  -12.4654   14.5594 H         1 ASC904      0.0000 
     19 H          16.6856  -12.7157   15.9677 H         1 ASC904      0.0000 
     20 H          14.0506  -14.6780   18.3514 H         1 ASC904      0.0000 
@<TRIPOS>BOND
     1    2    1 1    
     2    7    1 2    
     3   10    1 1    
     4    3    2 2    
     5    8    2 1    
     6    4    3 1    
     7    9    3 1    
     8    5    4 1    
     9   10    4 1    
    10   13    4 1    
    11    6    5 1    
    12   11    5 1    
    13   14    5 1    
    14   12    6 1    
    15   15    6 1    
    16   16    6 1    
    17   17    8 1    
    18   18    9 1    
    19   19   11 1    
    20   20   12 1    
@<TRIPOS>SUBSTRUCTURE
     1 ASC904      1 GROUP   
@<TRIPOS>SET

