#    Name: 4GST_2_CAVITY_N1_6.mol2
#    Modification time : Tue Mar 11 00:33:00 2014

@<TRIPOS>MOLECULE
4GST_2_CAVITY_N1_6.mol2
   94     0     6     0     0
SMALL
NO_CHARGES


@<TRIPOS>ATOM
      1 CA         31.1721   11.7487    9.0225 C.3       5 GLY6        0.0000 
      2 CA         29.4553   10.1976   10.2043 C.3       5 GLY6        0.0000 
      3 CA         29.1106   11.3041    9.2520 C.3       5 GLY6        0.0000 
      4 O          28.7660   12.4105    8.2996 O.2       2 ALA2        0.0000 
      5 CA         28.4811    9.2945    9.5077 C.3       5 GLY6        0.0000 
      6 O          28.1364   10.4009    8.5553 O.2       2 ALA2        0.0000 
      7 OG         27.8516    7.2850    9.7635 O.2       1 SER1        0.0000 
      8 CA         27.5069    8.3914    8.8111 C.3       5 GLY6        0.0000 
      9 OG         28.7128    9.5497   12.0828 O.2       1 SER1        0.0000 
     10 DU         28.3681   10.6561   11.1305 H         6 CUB7        0.0000 
     11 DU         28.0234   11.7625   10.1781 H         6 CUB7        0.0000 
     12 O          27.6787   12.8689    9.2257 O.2       2 ALA2        0.0000 
     13 O          27.3340   13.9754    8.2734 O.2       2 ALA2        0.0000 
     14 O          26.9894   15.0818    7.3210 O.2       2 ALA2        0.0000 
     15 OD1        26.6447   16.1882    6.3686 O.3       3 ASP3        0.0000 
     16 OG         27.7386    8.6465   11.3862 O.2       1 SER1        0.0000 
     17 O          27.3939    9.7530   10.4338 O.2       2 ALA2        0.0000 
     18 O          27.0492   10.8594    9.4815 O.2       2 ALA2        0.0000 
     19 O          26.7045   11.9658    8.5291 O.2       2 ALA2        0.0000 
     20 O          26.3598   13.0723    7.5767 O.2       2 ALA2        0.0000 
     21 O          26.0151   14.1787    6.6244 O.2       2 ALA2        0.0000 
     22 OG         27.1090    6.6370   11.6419 O.2       1 SER1        0.0000 
     23 OG         26.7643    7.7434   10.6896 O.2       1 SER1        0.0000 
     24 CA         26.4197    8.8498    9.7372 C.3       5 GLY6        0.0000 
     25 CA         26.1348    5.7339   10.9453 C.3       5 GLY6        0.0000 
     26 CA         25.7901    6.8403    9.9929 C.3       5 GLY6        0.0000 
     27 CZ         28.9444    9.8048   14.6580 C.ar      4 PHE5        0.0000 
     28 OD1        26.5316   17.5498    7.9914 O.3       3 ASP3        0.0000 
     29 CZ         27.9702    8.9017   13.9613 C.ar      4 PHE5        0.0000 
     30 OG         27.6255   10.0081   13.0090 O.2       1 SER1        0.0000 
     31 DU         26.5915   13.3274   10.1518 H         6 CUB7        0.0000 
     32 DU         26.2468   14.4338    9.1995 H         6 CUB7        0.0000 
     33 DU         25.9021   15.5403    8.2471 H         6 CUB7        0.0000 
     34 OD1        25.5574   16.6467    7.2947 O.3       3 ASP3        0.0000 
     35 OG         26.6513    9.1050   12.3123 O.2       1 SER1        0.0000 
     36 DU         26.3066   10.2114   11.3600 H         6 CUB7        0.0000 
     37 O          25.9619   11.3179   10.4076 O.2       2 ALA2        0.0000 
     38 O          25.6173   12.4243    9.4552 O.2       2 ALA2        0.0000 
     39 N          25.2726   13.5307    8.5028 N.2       2 ALA2        0.0000 
     40 N          24.9279   14.6371    7.5505 N.2       2 ALA2        0.0000 
     41 OG         26.0218    7.0954   12.5681 O.2       1 SER1        0.0000 
     42 DU         25.6771    8.2019   11.6157 H         6 CUB7        0.0000 
     43 CA         25.3324    9.3083   10.6633 C.3       5 GLY6        0.0000 
     44 O          24.9877   10.4147    9.7110 O.2       2 ALA2        0.0000 
     45 O          24.6430   11.5212    8.7586 O.2       2 ALA2        0.0000 
     46 CA         24.2984   12.6276    7.8062 C.3       5 GLY6        0.0000 
     47 CA         23.9537   13.7340    6.8539 C.3       5 GLY6        0.0000 
     48 OG         25.0476    6.1923   11.8714 O.2       1 SER1        0.0000 
     49 OG         24.7029    7.2988   10.9191 O.2       1 SER1        0.0000 
     50 OG         24.3582    8.4052    9.9667 O.2       1 SER1        0.0000 
     51 CA         24.0135    9.5116    9.0143 C.3       5 GLY6        0.0000 
     52 CZ         26.8829    9.3601   14.8874 C.ar      4 PHE5        0.0000 
     53 DU         26.5383   10.4666   13.9351 H         6 CUB7        0.0000 
     54 DU         25.5042   13.7859   11.0780 H         6 CUB7        0.0000 
     55 CZ         26.2534    7.3506   15.1432 C.ar      4 PHE5        0.0000 
     56 OG         25.9087    8.4570   14.1908 O.2       1 SER1        0.0000 
     57 DU         25.5640    9.5635   13.2384 H         6 CUB7        0.0000 
     58 DU         24.5300   12.8827   10.3813 H         6 CUB7        0.0000 
     59 N          24.1853   13.9892    9.4290 N.2       2 ALA2        0.0000 
     60 CZ         25.2792    6.4475   14.4466 C.ar      4 PHE5        0.0000 
     61 OG         24.9345    7.5539   13.4942 O.2       1 SER1        0.0000 
     62 OG         24.5898    8.6603   12.5418 O.2       1 SER1        0.0000 
     63 OG         24.2452    9.7668   11.5894 O.2       1 SER1        0.0000 
     64 DU         23.9005   10.8732   10.6371 H         6 CUB7        0.0000 
     65 N          23.5558   11.9796    9.6847 N.2       2 ALA2        0.0000 
     66 N          23.2111   13.0861    8.7323 N.2       2 ALA2        0.0000 
     67 CA         23.9603    6.6508   12.7976 C.3       5 GLY6        0.0000 
     68 OG         22.9263    9.9701    9.9404 O.2       1 SER1        0.0000 
     69 CA         25.7957    9.8186   15.8136 C.3       5 GLY6        0.0000 
     70 DU         25.4510   10.9250   14.8612 H         6 CUB7        0.0000 
     71 CA         24.8215    8.9155   15.1169 C.3       5 GLY6        0.0000 
     72 DU         24.4768   10.0219   14.1646 H         6 CUB7        0.0000 
     73 DU         24.1321   11.1283   13.2122 H         6 CUB7        0.0000 
     74 CA         23.8473    8.0124   14.4203 C.3       5 GLY6        0.0000 
     75 DU         23.5026    9.1188   13.4679 H         6 CUB7        0.0000 
     76 CA         23.1579   10.2252   12.5156 C.3       5 GLY6        0.0000 
     77 DU         22.8132   11.3317   11.5632 H         6 CUB7        0.0000 
     78 CZ         23.2177    6.0028   14.6760 C.ar      4 PHE5        0.0000 
     79 O          22.8731    7.1092   13.7237 O.2       2 ALA2        0.0000 
     80 OG         22.5284    8.2157   12.7713 O.2       1 SER1        0.0000 
     81 OG         22.1837    9.3221   11.8189 O.2       1 SER1        0.0000 
     82 N          21.8390   10.4285   10.8666 N.2       2 ALA2        0.0000 
     83 CA         24.7084   10.2771   16.7397 C.3       5 GLY6        0.0000 
     84 CA         24.3638   11.3835   15.7873 C.3       5 GLY6        0.0000 
     85 CA         23.7342    9.3739   16.0431 C.3       5 GLY6        0.0000 
     86 CA         23.3895   10.4804   15.0907 C.3       5 GLY6        0.0000 
     87 DU         23.0449   11.5868   14.1383 H         6 CUB7        0.0000 
     88 CA         22.7600    8.4708   15.3464 C.3       5 GLY6        0.0000 
     89 CA         22.4153    9.5773   14.3941 C.3       5 GLY6        0.0000 
     90 CA         22.0707   10.6837   13.4417 C.3       5 GLY6        0.0000 
     91 CA         21.7858    7.5677   14.6498 C.3       5 GLY6        0.0000 
     92 CA         22.3023   10.9388   16.0168 C.3       5 GLY6        0.0000 
     93 CA         21.6728    8.9293   16.2725 C.3       5 GLY6        0.0000 
     94 CA         21.3281   10.0357   15.3202 C.3       5 GLY6        0.0000 
@<TRIPOS>BOND
@<TRIPOS>SUBSTRUCTURE
     1 SER1        7 GROUP   
     2 ALA2        4 GROUP   
     3 ASP3       15 GROUP   
     4 PHE5       27 GROUP   
     5 GLY6        1 GROUP   
     6 CUB7       10 GROUP   
@<TRIPOS>SET

