#    Name: 4gst_GTD_2_INTS_M
#    Modification time : Mon Mar 24 23:37:34 2014

@<TRIPOS>MOLECULE
4gst_GTD_2_INTS_M
   67     0    15     0     0
SMALL
NO_CHARGES


@<TRIPOS>ATOM
      1 OD1        18.6540   15.9290   14.3220 O.co2     3 ASC3        0.0000 
      2 OD1        18.0310   14.8660   13.5660 O.co2    13 ASL3        0.0000 
      3 OD1        19.2770   16.9920   15.0780 O.co2     8 ASP3        0.0000 
      4 OD1        18.7565   16.1880   13.2830 O.co2     3 ASC3        0.0000 
      5 OD1        19.4820   17.5100   13.0000 O.co2     8 ASP3        0.0000 
      6 O          18.6540   15.9290   14.3220 O.2       1 ALC1        0.0000 
      7 O          18.0310   14.8660   13.5660 O.2      11 ALL1        0.0000 
      8 O          19.2770   16.9920   15.0780 O.2       6 ALP1        0.0000 
      9 O          18.7565   16.1880   13.2830 O.2       1 ALC1        0.0000 
     10 O          19.4820   17.5100   13.0000 O.2       6 ALP1        0.0000 
     11 O          17.0865   15.6400   12.9740 O.2       1 ALC1        0.0000 
     12 O          16.1420   16.4140   12.3820 O.2       6 ALP1        0.0000 
     13 N          16.0370   12.7885   10.3845 N.am      2 SEC2        0.0000 
     14 N          17.4050   13.0210   10.5540 N.am     12 SEL2        0.0000 
     15 N          14.6690   12.5560   10.2150 N.am      7 SEP2        0.0000 
     16 N          15.7280   12.6255   11.4415 N.am      2 SEC2        0.0000 
     17 N          16.7870   12.6950   12.6680 N.am     12 SEL2        0.0000 
     18 N          16.0610   11.6215   12.5115 N.am      2 SEC2        0.0000 
     19 N          15.3350   10.5480   12.3550 N.am      7 SEP2        0.0000 
     20 CA         19.6940   11.7380   12.8625 C.3       5 GLC5        0.0000 
     21 CA         19.9780   13.8320   12.3630 C.3      15 GLL5        0.0000 
     22 CA         19.4100    9.6440   13.3620 C.3      10 GLP5        0.0000 
     23 O          21.6805   12.3125    9.0335 O.2       1 ALC1        0.0000 
     24 O          22.5750   12.7360    9.9800 O.2      11 ALL1        0.0000 
     25 O          20.7860   11.8890    8.0870 O.2       6 ALP1        0.0000 
     26 N          25.7750   10.9135    7.5080 N.am      2 SEC2        0.0000 
     27 N          25.5790   12.0290    8.2230 N.am     12 SEL2        0.0000 
     28 N          25.9710    9.7980    6.7930 N.am      7 SEP2        0.0000 
     29 CA         22.5185    9.3915    8.9515 C.3       5 GLC5        0.0000 
     30 CA         23.8320   10.6150    9.9540 C.3      15 GLL5        0.0000 
     31 CA         21.2050    8.1680    7.9490 C.3      10 GLP5        0.0000 
     32 CA         24.5820    9.6010    8.4370 C.3       5 GLC5        0.0000 
     33 CA         25.3320    8.5870    6.9200 C.3      10 GLP5        0.0000 
     34 CA         22.2950    8.4870    9.9820 C.3       5 GLC5        0.0000 
     35 CA         22.9330    9.9240   11.3080 C.3      15 GLL5        0.0000 
     36 CA         21.6570    7.0500    8.6560 C.3      10 GLP5        0.0000 
     37 CA         21.2240    9.1580   11.8955 C.3       5 GLC5        0.0000 
     38 CA         19.5150    8.3920   12.4830 C.3      10 GLP5        0.0000 
     39 O          22.9705   14.5540    8.1970 O.2       1 ALC1        0.0000 
     40 O          24.0390   13.7100    8.0720 O.2      11 ALL1        0.0000 
     41 O          21.9020   15.3980    8.3220 O.2       6 ALP1        0.0000 
     42 CA         24.6020   14.3665    4.7975 C.3       5 GLC5        0.0000 
     43 CA         24.6140   14.2040    6.8250 C.3      15 GLL5        0.0000 
     44 CA         24.5900   14.5290    2.7700 C.3      10 GLP5        0.0000 
     45 CA         22.7575   15.1500    6.2720 C.3       5 GLC5        0.0000 
     46 CA         20.9010   16.0960    5.7190 C.3      10 GLP5        0.0000 
     47 CA         23.3780   12.9375    6.2280 C.3       5 GLC5        0.0000 
     48 CA         22.1420   11.6710    5.6310 C.3      10 GLP5        0.0000 
     49 NZ         25.7005   17.4600    6.8105 N.4       4 LYC4        0.0000 
     50 NZ         25.5360   16.0160    8.0930 N.4      14 LYL4        0.0000 
     51 NZ         25.8650   18.9040    5.5280 N.4       9 LYP4        0.0000 
     52 NZ         25.7490   17.5605    5.7000 N.4       4 LYC4        0.0000 
     53 NZ         25.6330   16.2170    5.8720 N.4      14 LYL4        0.0000 
     54 N          25.6435   15.4290    4.7410 N.am      2 SEC2        0.0000 
     55 N          25.6330   16.2170    5.8720 N.am     12 SEL2        0.0000 
     56 N          25.6540   14.6410    3.6100 N.am      7 SEP2        0.0000 
     57 N          25.7490   17.5605    5.7000 N.am      2 SEC2        0.0000 
     58 N          25.8650   18.9040    5.5280 N.am      7 SEP2        0.0000 
     59 CA         22.8655    5.6285   12.5465 C.3       5 GLC5        0.0000 
     60 CA         23.7160    7.1980   13.2820 C.3      15 GLL5        0.0000 
     61 CA         22.0150    4.0590   11.8110 C.3      10 GLP5        0.0000 
     62 CA         21.4470    7.9250   13.1562 C.3       5 GLC5        0.0000 
     63 CA         23.0420    7.7180   14.3770 C.3      15 GLL5        0.0000 
     64 CA         23.6648    7.8293   16.1695 C.3       5 GLC5        0.0000 
     65 CA         24.3100    7.2630   17.8130 C.3      10 GLP5        0.0000 
     66 CA         21.3597    9.5810   13.8057 C.3       5 GLC5        0.0000 
     67 CA         22.9970    9.0730   14.6750 C.3      15 GLL5        0.0000 
@<TRIPOS>BOND
@<TRIPOS>SUBSTRUCTURE
     1 ALC1        6 GROUP        1 X    ALC  0     ROOT ALC X 1
     2 SEC2       13 GROUP        1 X    SEC  0     **** SEC X 2
     3 ASC3        1 GROUP        1 X    ASC  0     **** ASC X 3
     4 LYC4       49 GROUP        1 X    LYC  0     **** LYC X 4
     5 GLC5       20 GROUP        1 X    GLC  0     **** GLC X 6
     6 ALP1        8 GROUP        1 Y    ALP  0     ROOT ALP Y 8
     7 SEP2       15 GROUP        1 Y    SEP  0     **** SEP Y 9
     8 ASP3        3 GROUP        1 Y    ASP  0     **** ASP Y 10
     9 LYP4       51 GROUP        1 Y    LYP  0     **** LYP Y 11
    10 GLP5       22 GROUP        1 Y    GLP  0     **** GLP Y 13
    11 ALL1        7 GROUP        1 Z    ALL  0     ROOT ALL Z 15
    12 SEL2       14 GROUP        1 Z    SEL  0     **** SEL Z 16
    13 ASL3        2 GROUP        1 Z    ASL  0     **** ASL Z 17
    14 LYL4       50 GROUP        1 Z    LYL  0     **** LYL Z 18
    15 GLL5       21 GROUP        1 Z    GLL  0     **** GLL Z 20
@<TRIPOS>SET

