#    Name: 4gst_GTD_2_ligand
#    Modification time : Mon Mar 24 23:37:34 2014

@<TRIPOS>MOLECULE
4gst_GTD_2_ligand
   54    54     1     0     0
SMALL
NO_CHARGES


@<TRIPOS>ATOM
      1 N1         18.0310   14.8660   13.5660 N.4       1 GTD220      0.0000 
      2 CA1        18.5260   14.3710   12.2100 C.3       1 GTD220      0.0000 
      3 C1         17.5500   13.3100   11.7360 C.2       1 GTD220      0.0000 
      4 O11        17.4050   13.0210   10.5540 O.co2     1 GTD220      0.0000 
      5 O12        16.7870   12.6950   12.6680 O.co2     1 GTD220      0.0000 
      6 CB1        19.9780   13.8320   12.3630 C.3       1 GTD220      0.0000 
      7 CG1        20.5790   13.5850   10.9850 C.3       1 GTD220      0.0000 
      8 CD1        22.0810   13.4010   11.0150 C.2       1 GTD220      0.0000 
      9 OE1        22.8320   13.8550   11.9440 O.2       1 GTD220      0.0000 
     10 N2         22.5750   12.7360    9.9800 N.am      1 GTD220      0.0000 
     11 CA2        23.9180   12.1250    9.9490 C.3       1 GTD220      0.0000 
     12 C2         24.5840   12.6180    8.6570 C.2       1 GTD220      0.0000 
     13 O2         25.5790   12.0290    8.2230 O.2       1 GTD220      0.0000 
     14 CB2        23.8320   10.6150    9.9540 C.3       1 GTD220      0.0000 
     15 SG2        22.9330    9.9240   11.3080 S.3       1 GTD220      0.0000 
     16 N3         24.0390   13.7100    8.0720 N.am      1 GTD220      0.0000 
     17 CA3        24.6140   14.2040    6.8250 C.3       1 GTD220      0.0000 
     18 C3         25.2860   15.5610    6.9810 C.2       1 GTD220      0.0000 
     19 O31        25.5360   16.0160    8.0930 O.co2     1 GTD220      0.0000 
     20 O32        25.6330   16.2170    5.8720 O.co2     1 GTD220      0.0000 
     21 C1'        24.2080    9.5730   12.4930 C.3       1 GTD220      0.0000 
     22 C2'        24.3710    8.0760   12.4590 C.2       1 GTD220      0.0000 
     23 N2'        25.2210    7.4180   11.4870 N.pl3     1 GTD220      0.0000 
     24 O21        25.2430    7.8850   10.3360 O.2       1 GTD220      0.0000 
     25 O22        25.7940    6.3690   11.8700 O.2       1 GTD220      0.0000 
     26 C3'        23.7160    7.1980   13.2820 C.2       1 GTD220      0.0000 
     27 C4'        23.0420    7.7180   14.3770 C.3       1 GTD220      0.0000 
     28 N4'        22.2350    6.7930   15.1770 N.pl3     1 GTD220      0.0000 
     29 O41        22.4030    5.5570   15.0530 O.2       1 GTD220      0.0000 
     30 O42        21.4050    7.1810   16.0180 O.2       1 GTD220      0.0000 
     31 C5'        22.9970    9.0730   14.6750 C.2       1 GTD220      0.0000 
     32 C6'        23.6220    9.9630   13.8240 C.2       1 GTD220      0.0000 
     33 N6'        23.9100   11.3250   14.1360 N.pl3     1 GTD220      0.0000 
     34 O61        23.0440   11.9310   14.7850 O.2       1 GTD220      0.0000 
     35 O62        24.9540   11.8570   13.7850 O.2       1 GTD220      0.0000 
     36 H          18.5273   15.1936   11.5282 H         1 GTD220      0.0000 
     37 H          19.9459   12.9075   12.9222 H         1 GTD220      0.0000 
     38 H          20.5650   14.5676   12.8947 H         1 GTD220      0.0000 
     39 H          20.3299   14.4342   10.3303 H         1 GTD220      0.0000 
     40 H          20.1118   12.6892   10.5479 H         1 GTD220      0.0000 
     41 H          22.0181   12.6016    9.0912 H         1 GTD220      0.0000 
     42 H          24.4995   12.4658   10.7752 H         1 GTD220      0.0000 
     43 H          24.8055   10.1353   10.0347 H         1 GTD220      0.0000 
     44 H          23.3118   10.2172    9.0848 H         1 GTD220      0.0000 
     45 H          23.2426   14.2116    8.4563 H         1 GTD220      0.0000 
     46 H          23.8337   14.2952    6.0467 H         1 GTD220      0.0000 
     47 H          25.3650   13.4923    6.4347 H         1 GTD220      0.0000 
     48 H          24.9963   10.1014   12.1948 H         1 GTD220      0.0000 
     49 H          23.7192    6.1968   13.1028 H         1 GTD220      0.0000 
     50 H          24.1508    7.5057   15.2298 H         1 GTD220      0.0000 
     51 H          22.5090    9.4029   15.5104 H         1 GTD220      0.0000 
     52 H          17.1135   15.2592   13.5055 H         1 GTD220      0.0000 
     53 H          17.9894   14.1271   14.2385 H         1 GTD220      0.0000 
     54 H          18.6286   15.5731   13.9440 H         1 GTD220      0.0000 
@<TRIPOS>BOND
     1    2    1 1    
     2   52    1 1    
     3   53    1 1    
     4   54    1 1    
     5    3    2 1    
     6    6    2 1    
     7   36    2 1    
     8    4    3 ar   
     9    5    3 ar   
    10    7    6 1    
    11   37    6 1    
    12   38    6 1    
    13    8    7 1    
    14   39    7 1    
    15   40    7 1    
    16    9    8 2    
    17   10    8 am   
    18   11   10 1    
    19   41   10 1    
    20   12   11 1    
    21   14   11 1    
    22   42   11 1    
    23   13   12 2    
    24   16   12 am   
    25   15   14 1    
    26   43   14 1    
    27   44   14 1    
    28   21   15 1    
    29   17   16 1    
    30   45   16 1    
    31   18   17 1    
    32   46   17 1    
    33   47   17 1    
    34   19   18 ar   
    35   20   18 ar   
    36   22   21 1    
    37   32   21 1    
    38   48   21 1    
    39   23   22 1    
    40   26   22 2    
    41   24   23 2    
    42   25   23 2    
    43   27   26 1    
    44   49   26 1    
    45   28   27 1    
    46   31   27 1    
    47   50   27 1    
    48   29   28 2    
    49   30   28 2    
    50   32   31 2    
    51   51   31 1    
    52   33   32 1    
    53   34   33 2    
    54   35   33 2    
@<TRIPOS>SUBSTRUCTURE
     1 GTD220      1 GROUP   
@<TRIPOS>SET

