#    Name: 3lal_KRV_1_INTS_M
#    Modification time : Mon Mar 24 21:15:35 2014

@<TRIPOS>MOLECULE
3lal_KRV_1_INTS_M
   66     0     6     0     0
SMALL
NO_CHARGES


@<TRIPOS>ATOM
      1 CA          7.2325   13.7635   16.7800 C.3       2 GLC5        0.0000 
      2 CA          6.6360   11.7730   16.6360 C.3       6 GLL5        0.0000 
      3 CA          7.8290   15.7540   16.9240 C.3       4 GLP5        0.0000 
      4 CA          5.7040   11.8570   18.4615 C.3       2 GLC5        0.0000 
      5 CA          4.7720   11.9410   20.2870 C.3       4 GLP5        0.0000 
      6 CA          7.4660    8.7280   15.9795 C.3       2 GLC5        0.0000 
      7 CA          6.1900   10.3340   16.2550 C.3       6 GLL5        0.0000 
      8 CA          8.7420    7.1220   15.7040 C.3       4 GLP5        0.0000 
      9 CA          7.0335    8.8280   17.6420 C.3       2 GLC5        0.0000 
     10 CA          7.8770    7.3220   19.0290 C.3       4 GLP5        0.0000 
     11 CA          4.6360    9.2195   15.3565 C.3       2 GLC5        0.0000 
     12 CA          3.0820    8.1050   14.4580 C.3       4 GLP5        0.0000 
     13 O           8.2360   13.7145   12.5650 O.2       1 ALC1        0.0000 
     14 O           8.6390   13.1690   13.8170 O.2       5 ALL1        0.0000 
     15 O           7.8330   14.2600   11.3130 O.2       3 ALP1        0.0000 
     16 CA         11.6615   11.3055   22.7430 C.3       2 GLC5        0.0000 
     17 CA         10.0030   11.2530   22.6040 C.3       6 GLL5        0.0000 
     18 CA         13.3200   11.3580   22.8820 C.3       4 GLP5        0.0000 
     19 CA          8.3795   10.0230   22.4585 C.3       2 GLC5        0.0000 
     20 CA          6.7560    8.7930   22.3130 C.3       4 GLP5        0.0000 
     21 CA         10.9430   17.9465   19.9570 C.3       2 GLC5        0.0000 
     22 CA         10.6020   15.8370   20.3130 C.3       6 GLL5        0.0000 
     23 CA         11.2840   20.0560   19.6010 C.3       4 GLP5        0.0000 
     24 CA         12.1545   16.6950   19.0785 C.3       2 GLC5        0.0000 
     25 CA         13.7070   17.5530   17.8440 C.3       4 GLP5        0.0000 
     26 CA         12.1560   14.6010   20.6745 C.3       2 GLC5        0.0000 
     27 CA         13.7100   13.3650   21.0360 C.3       4 GLP5        0.0000 
     28 CA         10.1610   16.9220   21.8130 C.3       2 GLC5        0.0000 
     29 CA          9.7200   18.0070   23.3130 C.3       4 GLP5        0.0000 
     30 CA         11.0185   15.5105   16.0760 C.3       2 GLC5        0.0000 
     31 CA         12.3180   13.9480   16.2250 C.3       6 GLL5        0.0000 
     32 CA          9.7190   17.0730   15.9270 C.3       4 GLP5        0.0000 
     33 CA         13.6470   14.2025   14.5430 C.3       2 GLC5        0.0000 
     34 CA         14.9760   14.4570   12.8610 C.3       4 GLP5        0.0000 
     35 CA         13.4910   15.1650   16.1110 C.3       2 GLC5        0.0000 
     36 CA         14.6640   16.3820   15.9970 C.3       4 GLP5        0.0000 
     37 CA         11.1950   10.2765   14.6180 C.3       2 GLC5        0.0000 
     38 CA         12.6680   11.7040   15.0370 C.3       6 GLL5        0.0000 
     39 CA          9.7220    8.8490   14.1990 C.3       4 GLP5        0.0000 
     40 CA         13.8220   13.0805   13.9490 C.3       2 GLC5        0.0000 
     41 CA         14.1890   10.5000   15.2520 C.3       2 GLC5        0.0000 
     42 CA         15.7100    9.2960   15.4670 C.3       4 GLP5        0.0000 
     43 CA         13.0775   10.4935   13.7230 C.3       2 GLC5        0.0000 
     44 CA         13.4870    9.2830   12.4090 C.3       4 GLP5        0.0000 
     45 CA          4.9685   12.4207   15.9202 C.3       2 GLC5        0.0000 
     46 CA          3.5240   13.7880   15.3950 C.3       4 GLP5        0.0000 
     47 CA          8.7858   14.0560   16.4333 C.3       2 GLC5        0.0000 
     48 CA          9.1840   12.1400   16.3200 C.3       6 GLL5        0.0000 
     49 CA          9.7323   10.6035   15.0708 C.3       2 GLC5        0.0000 
     50 CA          8.8277   14.3777   17.9722 C.3       2 GLC5        0.0000 
     51 CA          9.6780   12.2990   18.9930 C.3       6 GLL5        0.0000 
     52 CA          8.3115   12.5452   21.5730 C.3       2 GLC5        0.0000 
     53 CA          6.6160   13.4080   21.1240 C.3       4 GLP5        0.0000 
     54 CA          8.9860   12.9261   23.3442 C.3       2 GLC5        0.0000 
     55 CA         10.0110   12.1120   21.4400 C.3       6 GLL5        0.0000 
     56 CA          7.8130   13.2430   24.9210 C.3       4 GLP5        0.0000 
     57 CA          8.4582   13.6717   21.0153 C.3       2 GLC5        0.0000 
     58 CA         10.3110   13.5360   21.5130 C.3       6 GLL5        0.0000 
     59 CA          9.1375   15.4200   18.6152 C.3       2 GLC5        0.0000 
     60 CA         10.2900   14.3350   20.3000 C.3       6 GLL5        0.0000 
     61 CA         11.8514   12.2577   19.2309 C.3       2 GLC5        0.0000 
     62 CA          9.9750   13.7040   19.0480 C.3       6 GLL5        0.0000 
     63 CA         13.8670   11.7080   19.1410 C.3       4 GLP5        0.0000 
     64 CA          8.2259   13.1077   20.2224 C.3       2 GLC5        0.0000 
     65 CA         13.1110   12.0869   17.3612 C.3       2 GLC5        0.0000 
     66 CA         11.7660   12.5070   16.0270 C.3       6 GLL5        0.0000 
@<TRIPOS>BOND
@<TRIPOS>SUBSTRUCTURE
     1 ALC1       13 GROUP        1 X    ALC  0     ROOT ALC X 1
     2 GLC5        1 GROUP        1 X    GLC  0     **** GLC X 6
     3 ALP1       15 GROUP        1 Y    ALP  0     ROOT ALP Y 8
     4 GLP5        3 GROUP        1 Y    GLP  0     **** GLP Y 13
     5 ALL1       14 GROUP        1 Z    ALL  0     ROOT ALL Z 15
     6 GLL5        2 GROUP        1 Z    GLL  0     **** GLL Z 20
@<TRIPOS>SET

