#    Name: 3lal_KRV_1_ligand
#    Modification time : Mon Mar 24 21:15:35 2014

@<TRIPOS>MOLECULE
3lal_KRV_1_ligand
   43    44     1     0     0
SMALL
NO_CHARGES


@<TRIPOS>ATOM
      1 C1          6.6360   11.7730   16.6360 C.3       1 KRV561      0.0000 
      2 C2          6.1900   10.3340   16.2550 C.3       1 KRV561      0.0000 
      3 N8          7.8530   12.2330   15.8290 N.am      1 KRV561      0.0000 
      4 C9          7.6070   12.7290   14.5950 C.2       1 KRV561      0.0000 
      5 N10         8.6390   13.1690   13.8170 N.am      1 KRV561      0.0000 
      6 C11         9.9500   13.1340   14.1880 C.2       1 KRV561      0.0000 
      7 C12        10.3010   12.5760   15.5650 C.2       1 KRV561      0.0000 
      8 C13         9.1840   12.1400   16.3200 C.2       1 KRV561      0.0000 
      9 C14         9.3260   11.5570   17.7120 C.2       1 KRV561      0.0000 
     10 O15         9.0990   10.3410   17.7730 O.2       1 KRV561      0.0000 
     11 C16         9.6780   12.2990   18.9930 C.ar      1 KRV561      0.0000 
     12 C17         9.7150   11.5230   20.1940 C.ar      1 KRV561      0.0000 
     13 C18        10.0110   12.1120   21.4400 C.ar      1 KRV561      0.0000 
     14 C19        10.0030   11.2530   22.6040 C.1       1 KRV561      0.0000 
     15 N20         9.9890   10.5350   23.5190 N.1       1 KRV561      0.0000 
     16 C21        10.3110   13.5360   21.5130 C.ar      1 KRV561      0.0000 
     17 C22        10.2900   14.3350   20.3000 C.ar      1 KRV561      0.0000 
     18 C23         9.9750   13.7040   19.0480 C.ar      1 KRV561      0.0000 
     19 C24        10.6020   15.8370   20.3130 C.3       1 KRV561      0.0000 
     20 C25        11.7660   12.5070   16.0270 C.3       1 KRV561      0.0000 
     21 C26        12.3180   13.9480   16.2250 C.3       1 KRV561      0.0000 
     22 C27        12.6680   11.7040   15.0370 C.3       1 KRV561      0.0000 
     23 O28        10.8180   13.5560   13.4130 O.2       1 KRV561      0.0000 
     24 O29         6.4630   12.8160   14.1360 O.2       1 KRV561      0.0000 
     25 H           6.8771   11.7916   17.7002 H         1 KRV561      0.0000 
     26 H           5.8022   12.4539   16.4568 H         1 KRV561      0.0000 
     27 H           8.4027   13.5663   12.8553 H         1 KRV561      0.0000 
     28 H           9.5202   10.5146   20.1380 H         1 KRV561      0.0000 
     29 H          10.5303   13.9598   22.3956 H         1 KRV561      0.0000 
     30 H           9.9621   14.2559   18.1943 H         1 KRV561      0.0000 
     31 H          11.8000   12.0100   16.9928 H         1 KRV561      0.0000 
     32 H           6.9161    9.6654   16.4156 H         1 KRV561      0.0000 
     33 H           5.3963   10.0382   16.7866 H         1 KRV561      0.0000 
     34 H           5.9379   10.2667   15.2897 H         1 KRV561      0.0000 
     35 H          11.5215   16.0223   20.6597 H         1 KRV561      0.0000 
     36 H          10.5482   16.2354   19.3974 H         1 KRV561      0.0000 
     37 H           9.9630   16.3441   20.8914 H         1 KRV561      0.0000 
     38 H          13.2708   13.9423   16.5286 H         1 KRV561      0.0000 
     39 H          12.2834   14.4786   15.3781 H         1 KRV561      0.0000 
     40 H          11.7951   14.4551   16.9101 H         1 KRV561      0.0000 
     41 H          13.6170   11.6626   15.3495 H         1 KRV561      0.0000 
     42 H          12.3534   10.7609   14.9295 H         1 KRV561      0.0000 
     43 H          12.6772   12.1156   14.1257 H         1 KRV561      0.0000 
@<TRIPOS>BOND
     1    2    1 1    
     2    3    1 1    
     3   25    1 1    
     4   26    1 1    
     5   32    2 1    
     6   33    2 1    
     7   34    2 1    
     8    4    3 1    
     9    8    3 1    
    10    5    4 1    
    11   24    4 2    
    12    6    5 1    
    13   27    5 1    
    14    7    6 1    
    15   23    6 2    
    16    8    7 2    
    17   20    7 1    
    18    9    8 1    
    19   10    9 2    
    20   11    9 1    
    21   12   11 ar   
    22   18   11 ar   
    23   13   12 ar   
    24   28   12 1    
    25   14   13 1    
    26   16   13 ar   
    27   15   14 3    
    28   17   16 ar   
    29   29   16 1    
    30   18   17 ar   
    31   19   17 1    
    32   30   18 1    
    33   35   19 1    
    34   36   19 1    
    35   37   19 1    
    36   21   20 1    
    37   22   20 1    
    38   31   20 1    
    39   38   21 1    
    40   39   21 1    
    41   40   21 1    
    42   41   22 1    
    43   42   22 1    
    44   43   22 1    
@<TRIPOS>SUBSTRUCTURE
     1 KRV561      1 GROUP   
@<TRIPOS>SET

