#    Name: 4bgg_844_4_INTS_M
#    Modification time : Tue Mar 25 07:43:26 2014

@<TRIPOS>MOLECULE
4bgg_844_4_INTS_M
   62     0     6     0     0
SMALL
NO_CHARGES


@<TRIPOS>ATOM
      1 CA         69.6825  -64.4065   -8.1820 C.3       2 GLC5        0.0000 
      2 CA         69.0790  -63.0240   -6.7030 C.3       6 GLL5        0.0000 
      3 CA         70.2860  -65.7890   -9.6610 C.3       4 GLP5        0.0000 
      4 CA         67.3420  -62.3380   -6.7020 C.3       2 GLC5        0.0000 
      5 CA         65.6050  -61.6520   -6.7010 C.3       4 GLP5        0.0000 
      6 CA         69.2445  -61.3725   -5.4040 C.3       2 GLC5        0.0000 
      7 CA         69.4100  -59.7210   -4.1050 C.3       4 GLP5        0.0000 
      8 CA         70.6740  -62.5160   -6.3300 C.3       2 GLC5        0.0000 
      9 CA         72.2690  -62.0080   -5.9570 C.3       4 GLP5        0.0000 
     10 CA         66.8905  -63.1770   -5.9580 C.3       2 GLC5        0.0000 
     11 CA         68.1760  -64.7020   -5.2150 C.3       6 GLL5        0.0000 
     12 CA         66.1380  -63.4240   -4.1520 C.3       2 GLC5        0.0000 
     13 CA         67.5360  -64.9840   -3.9430 C.3       6 GLL5        0.0000 
     14 CA         64.7400  -61.8640   -4.3610 C.3       4 GLP5        0.0000 
     15 CA         66.3690  -62.4755   -3.4330 C.3       2 GLC5        0.0000 
     16 CA         67.9980  -63.0870   -2.5050 C.3       6 GLL5        0.0000 
     17 CA         69.9110  -64.0160   -2.9935 C.3       2 GLC5        0.0000 
     18 CA         71.8240  -64.9450   -3.4820 C.3       4 GLP5        0.0000 
     19 CA         68.7040  -61.4040   -3.3050 C.3       2 GLC5        0.0000 
     20 CA         68.1525  -63.1010   -0.5520 C.3       2 GLC5        0.0000 
     21 CA         68.3070  -63.1150    1.4010 C.3       4 GLP5        0.0000 
     22 CA         68.8400  -66.3760   -1.9945 C.3       2 GLC5        0.0000 
     23 CA         67.3890  -66.3200   -3.5140 C.3       6 GLL5        0.0000 
     24 CA         70.2910  -66.4320   -0.4750 C.3       4 GLP5        0.0000 
     25 CA         69.4745  -65.7730   -7.8390 C.3       2 GLC5        0.0000 
     26 CA         68.6630  -65.7570   -6.0170 C.3       6 GLL5        0.0000 
     27 CA         71.7105  -70.9975   -8.3065 C.3       2 GLC5        0.0000 
     28 CA         69.8310  -70.2950   -8.1510 C.3       6 GLL5        0.0000 
     29 CA         73.5900  -71.7000   -8.4620 C.3       4 GLP5        0.0000 
     30 N          71.9745  -69.8340   -8.3830 N.am      1 SEC2        0.0000 
     31 N          70.6690  -69.2830   -7.7930 N.am      5 SEL2        0.0000 
     32 N          73.2800  -70.3850   -8.9730 N.am      3 SEP2        0.0000 
     33 CA         66.1420  -72.5415  -10.7715 C.3       2 GLC5        0.0000 
     34 CA         67.1320  -73.5380   -9.3980 C.3       6 GLL5        0.0000 
     35 CA         65.1520  -71.5450  -12.1450 C.3       4 GLP5        0.0000 
     36 CA         66.0550  -65.2175   -5.6625 C.3       2 GLC5        0.0000 
     37 CA         64.2540  -65.5920   -6.7460 C.3       4 GLP5        0.0000 
     38 CA         69.7382  -68.1190   -4.2777 C.3       2 GLC5        0.0000 
     39 CA         68.5050  -67.1520   -5.5840 C.3       6 GLL5        0.0000 
     40 CA         71.2920  -68.9480   -3.5940 C.3       4 GLP5        0.0000 
     41 CA         67.1730  -66.4983   -7.1438 C.3       2 GLC5        0.0000 
     42 CA         65.7620  -66.5420   -8.4870 C.3       4 GLP5        0.0000 
     43 CA         70.0418  -65.1225   -4.3900 C.3       2 GLC5        0.0000 
     44 CA         67.1437  -67.6792   -7.5795 C.3       2 GLC5        0.0000 
     45 CA         68.9840  -68.3100   -6.4860 C.3       6 GLL5        0.0000 
     46 CA         69.9607  -67.0480   -8.2037 C.3       2 GLC5        0.0000 
     47 CA         70.4638  -68.6275   -5.1702 C.3       2 GLC5        0.0000 
     48 CA         70.2870  -68.3040   -7.0070 C.3       6 GLL5        0.0000 
     49 CA         69.4198  -70.4711   -5.7799 C.3       2 GLC5        0.0000 
     50 CA         69.7810  -70.8800   -3.8480 C.3       4 GLP5        0.0000 
     51 CA         68.2413  -73.7265   -7.7370 C.3       2 GLC5        0.0000 
     52 CA         67.9970  -72.4040   -9.0580 C.3       6 GLL5        0.0000 
     53 CA         68.9180  -74.4820   -6.2460 C.3       4 GLP5        0.0000 
     54 CA         65.0960  -72.1840   -9.5418 C.3       2 GLC5        0.0000 
     55 CA         65.8980  -73.7640   -8.6880 C.3       6 GLL5        0.0000 
     56 CA         64.4560  -71.0410  -10.8890 C.3       4 GLP5        0.0000 
     57 CA         67.3270  -73.9045   -7.2203 C.3       2 GLC5        0.0000 
     58 CA         66.1478  -70.7070   -9.1713 C.3       2 GLC5        0.0000 
     59 CA         66.4430  -71.7260   -7.3610 C.3       6 GLL5        0.0000 
     60 CA         65.0580  -69.7220  -10.4290 C.3       4 GLP5        0.0000 
     61 CA         68.0866  -72.9005   -6.9319 C.3       2 GLC5        0.0000 
     62 CA         67.6300  -71.4880   -8.0620 C.3       6 GLL5        0.0000 
@<TRIPOS>BOND
@<TRIPOS>SUBSTRUCTURE
     1 SEC2       30 GROUP        1 X    SEC  0     ROOT SEC X 2
     2 GLC5        1 GROUP        1 X    GLC  0     **** GLC X 6
     3 SEP2       32 GROUP        1 Y    SEP  0     ROOT SEP Y 9
     4 GLP5        3 GROUP        1 Y    GLP  0     **** GLP Y 13
     5 SEL2       31 GROUP        1 Z    SEL  0     ROOT SEL Z 16
     6 GLL5        2 GROUP        1 Z    GLL  0     **** GLL Z 20
@<TRIPOS>SET

