#    Name: 4bgg_844_4_ligand
#    Modification time : Tue Mar 25 07:43:26 2014

@<TRIPOS>MOLECULE
4bgg_844_4_ligand
   56    59     1     0     0
SMALL
NO_CHARGES


@<TRIPOS>ATOM
      1 C01        69.0790  -63.0240   -6.7030 C.3       1 8441000     0.0000 
      2 O02        68.3020  -63.3320   -5.6080 O.3       1 8441000     0.0000 
      3 C03        68.1760  -64.7020   -5.2150 C.ar      1 8441000     0.0000 
      4 C04        67.5360  -64.9840   -3.9430 C.ar      1 8441000     0.0000 
      5 O05        67.0510  -63.9230   -3.0990 O.3       1 8441000     0.0000 
      6 C06        67.9980  -63.0870   -2.5050 C.3       1 8441000     0.0000 
      7 C07        67.3890  -66.3200   -3.5140 C.ar      1 8441000     0.0000 
      8 C08        67.8640  -67.4280   -4.3390 C.ar      1 8441000     0.0000 
      9 C09        68.5050  -67.1520   -5.5840 C.ar      1 8441000     0.0000 
     10 C10        68.6630  -65.7570   -6.0170 C.ar      1 8441000     0.0000 
     11 C11        68.9840  -68.3100   -6.4860 C.ar      1 8441000     0.0000 
     12 C12        68.0670  -69.3230   -6.8580 C.ar      1 8441000     0.0000 
     13 C13        68.5050  -70.3360   -7.6870 C.ar      1 8441000     0.0000 
     14 C14        69.8310  -70.2950   -8.1510 C.ar      1 8441000     0.0000 
     15 N15        70.6690  -69.2830   -7.7930 N.ar      1 8441000     0.0000 
     16 C16        70.2870  -68.3040   -7.0070 C.ar      1 8441000     0.0000 
     17 C17        67.6300  -71.4880   -8.0620 C.ar      1 8441000     0.0000 
     18 C18        67.9970  -72.4040   -9.0580 C.ar      1 8441000     0.0000 
     19 C19        67.1320  -73.5380   -9.3980 C.ar      1 8441000     0.0000 
     20 C20        65.8980  -73.7640   -8.6880 C.ar      1 8441000     0.0000 
     21 C21        65.5740  -72.8900   -7.7010 C.ar      1 8441000     0.0000 
     22 C22        66.4430  -71.7260   -7.3610 C.ar      1 8441000     0.0000 
     23 N23        65.0780  -74.8880   -9.0120 N.3       1 8441000     0.0000 
     24 C24        65.5580  -76.0950   -9.6180 C.3       1 8441000     0.0000 
     25 C25        64.8780  -77.3930   -9.1490 C.3       1 8441000     0.0000 
     26 N26        63.4400  -77.3470   -9.1700 N.4       1 8441000     0.0000 
     27 C27        62.8530  -76.0660   -8.8470 C.3       1 8441000     0.0000 
     28 C28        63.8440  -75.0390   -8.2910 C.3       1 8441000     0.0000 
     29 O29        66.7410  -66.5170   -2.2600 O.3       1 8441000     0.0000 
     30 C30        65.9580  -67.6170   -2.0440 C.3       1 8441000     0.0000 
     31 H          67.7332  -68.3734   -4.0188 H         1 8441000     0.0000 
     32 H          69.1278  -65.5770   -6.9005 H         1 8441000     0.0000 
     33 H          67.1123  -69.2901   -6.5139 H         1 8441000     0.0000 
     34 H          70.1585  -71.0567   -8.7754 H         1 8441000     0.0000 
     35 H          70.9085  -67.5172   -6.7493 H         1 8441000     0.0000 
     36 H          68.8751  -72.3039   -9.5706 H         1 8441000     0.0000 
     37 H          67.4144  -74.1643  -10.1426 H         1 8441000     0.0000 
     38 H          64.7142  -72.9842   -7.1370 H         1 8441000     0.0000 
     39 H          66.1337  -71.1216   -6.6038 H         1 8441000     0.0000 
     40 H          66.6572  -76.2222   -9.4447 H         1 8441000     0.0000 
     41 H          65.4510  -76.0555  -10.7322 H         1 8441000     0.0000 
     42 H          65.2572  -77.6117   -8.1260 H         1 8441000     0.0000 
     43 H          65.2622  -78.2162   -9.7917 H         1 8441000     0.0000 
     44 H          62.0374  -76.1818   -8.0983 H         1 8441000     0.0000 
     45 H          62.3716  -75.6138   -9.7432 H         1 8441000     0.0000 
     46 H          63.2997  -74.0588   -8.2248 H         1 8441000     0.0000 
     47 H          64.0403  -75.3171   -7.2207 H         1 8441000     0.0000 
     48 H          70.0276  -63.3154   -6.5791 H         1 8441000     0.0000 
     49 H          68.7424  -63.4673   -7.5338 H         1 8441000     0.0000 
     50 H          69.0955  -62.0402   -6.8818 H         1 8441000     0.0000 
     51 H          68.6238  -63.5958   -1.9138 H         1 8441000     0.0000 
     52 H          68.5572  -62.6157   -3.1870 H         1 8441000     0.0000 
     53 H          67.5689  -62.3822   -1.9400 H         1 8441000     0.0000 
     54 H          66.4746  -68.4669   -2.1484 H         1 8441000     0.0000 
     55 H          65.5697  -67.6213   -1.1225 H         1 8441000     0.0000 
     56 H          65.1917  -67.6591   -2.6851 H         1 8441000     0.0000 
@<TRIPOS>BOND
     1    2    1 1    
     2   48    1 1    
     3   49    1 1    
     4   50    1 1    
     5    3    2 1    
     6    4    3 ar   
     7   10    3 ar   
     8    5    4 1    
     9    7    4 ar   
    10    6    5 1    
    11   51    6 1    
    12   52    6 1    
    13   53    6 1    
    14    8    7 ar   
    15   29    7 1    
    16    9    8 ar   
    17   31    8 1    
    18   10    9 ar   
    19   11    9 1    
    20   32   10 1    
    21   12   11 ar   
    22   16   11 ar   
    23   13   12 ar   
    24   33   12 1    
    25   14   13 ar   
    26   17   13 1    
    27   15   14 ar   
    28   34   14 1    
    29   16   15 ar   
    30   35   16 1    
    31   18   17 ar   
    32   22   17 ar   
    33   19   18 ar   
    34   36   18 1    
    35   20   19 ar   
    36   37   19 1    
    37   21   20 ar   
    38   23   20 1    
    39   22   21 ar   
    40   38   21 1    
    41   39   22 1    
    42   24   23 1    
    43   28   23 1    
    44   25   24 1    
    45   40   24 1    
    46   41   24 1    
    47   26   25 1    
    48   42   25 1    
    49   43   25 1    
    50   27   26 1    
    51   28   27 1    
    52   44   27 1    
    53   45   27 1    
    54   46   28 1    
    55   47   28 1    
    56   30   29 1    
    57   54   30 1    
    58   55   30 1    
    59   56   30 1    
@<TRIPOS>SUBSTRUCTURE
     1 8441000     1 GROUP   
@<TRIPOS>SET

