#    Name: 3uzx_AOX_2_INTS_M
#    Modification time : Mon Mar 24 23:47:44 2014

@<TRIPOS>MOLECULE
3uzx_AOX_2_INTS_M
   58     0     9     0     0
SMALL
NO_CHARGES


@<TRIPOS>ATOM
      1 CA          5.1425   22.1850  -32.6940 C.3       3 GLC5        0.0000 
      2 CA          4.6740   20.7460  -31.4620 C.3       9 GLL5        0.0000 
      3 CA          5.6110   23.6240  -33.9260 C.3       6 GLP5        0.0000 
      4 CA          2.9455   22.9995  -30.7620 C.3       3 GLC5        0.0000 
      5 CA          3.7340   21.1690  -30.3400 C.3       9 GLL5        0.0000 
      6 CA          2.1570   24.8300  -31.1840 C.3       6 GLP5        0.0000 
      7 CA          0.9525   17.0040  -33.1040 C.3       3 GLC5        0.0000 
      8 CA          2.3250   18.5870  -33.6060 C.3       9 GLL5        0.0000 
      9 CA         -0.4200   15.4210  -32.6020 C.3       6 GLP5        0.0000 
     10 CA          4.6395   15.8515  -33.0640 C.3       3 GLC5        0.0000 
     11 CA          4.6850   17.8370  -34.0390 C.3       9 GLL5        0.0000 
     12 CA          4.5940   13.8660  -32.0890 C.3       6 GLP5        0.0000 
     13 CA          5.9690   20.4510  -34.4835 C.3       3 GLC5        0.0000 
     14 CA          5.2080   19.0300  -33.2020 C.3       9 GLL5        0.0000 
     15 CA          6.7300   21.8720  -35.7650 C.3       6 GLP5        0.0000 
     16 CA          7.0665   20.6265  -33.6965 C.3       3 GLC5        0.0000 
     17 CA          6.6450   18.8150  -32.6700 C.3       9 GLL5        0.0000 
     18 CA          7.4880   22.4380  -34.7230 C.3       6 GLP5        0.0000 
     19 CA          8.2270   19.7835  -34.8535 C.3       3 GLC5        0.0000 
     20 CA          7.6260   18.4590  -33.7940 C.3       9 GLL5        0.0000 
     21 CA          8.8280   21.1080  -35.9130 C.3       6 GLP5        0.0000 
     22 CA          7.3590   19.1155  -35.5160 C.3       3 GLC5        0.0000 
     23 CA          7.1130   17.2030  -34.5170 C.3       9 GLL5        0.0000 
     24 CA          7.6050   21.0280  -36.5150 C.3       6 GLP5        0.0000 
     25 CA          4.1920   16.6485  -37.5540 C.3       3 GLC5        0.0000 
     26 CA          5.4860   16.3940  -36.1140 C.3       9 GLL5        0.0000 
     27 CA          2.8980   16.9030  -38.9940 C.3       6 GLP5        0.0000 
     28 CA          5.8805   14.9070  -32.8580 C.3       3 GLC5        0.0000 
     29 CA          7.1670   15.9480  -33.6270 C.3       9 GLL5        0.0000 
     30 CA          5.9110   18.9540  -29.9195 C.3       3 GLC5        0.0000 
     31 CA          4.1700   18.3440  -30.9570 C.3       9 GLL5        0.0000 
     32 CA          7.6520   19.5640  -28.8820 C.3       6 GLP5        0.0000 
     33 CA          2.9590   17.0885  -29.8165 C.3       3 GLC5        0.0000 
     34 CA          1.7480   15.8330  -28.6760 C.3       6 GLP5        0.0000 
     35 CA          3.6690   19.1905  -28.9880 C.3       3 GLC5        0.0000 
     36 CA          3.1680   20.0370  -27.0190 C.3       6 GLP5        0.0000 
     37 N           1.6415   21.6385  -28.3625 N.am      2 SEC2        0.0000 
     38 N           1.4620   21.2530  -29.6260 N.am      8 SEL2        0.0000 
     39 N           1.8210   22.0240  -27.0990 N.am      5 SEP2        0.0000 
     40 O           0.2825   20.5255  -29.5040 O.2       1 ALC1        0.0000 
     41 O           1.4620   21.2530  -29.6260 O.2       7 ALL1        0.0000 
     42 O          -0.8970   19.7980  -29.3820 O.2       4 ALP1        0.0000 
     43 CA          5.6240   21.3987  -29.6210 C.3       3 GLC5        0.0000 
     44 CA          7.0440   21.8400  -28.3410 C.3       6 GLP5        0.0000 
     45 CA          3.0890   20.6157  -28.7882 C.3       3 GLC5        0.0000 
     46 CA          1.5370   22.3543  -31.2927 C.3       3 GLC5        0.0000 
     47 CA          2.2860   21.2200  -30.7750 C.3       9 GLL5        0.0000 
     48 CA          1.0210   24.0620  -31.3830 C.3       6 GLP5        0.0000 
     49 CA          2.0805   19.2658  -35.7868 C.3       3 GLC5        0.0000 
     50 CA          1.3200   20.1300  -37.4380 C.3       6 GLP5        0.0000 
     51 CA          1.9010   16.9498  -35.1097 C.3       3 GLC5        0.0000 
     52 CA          3.3570   18.2160  -34.6650 C.3       9 GLL5        0.0000 
     53 CA          0.9610   15.4980  -36.0840 C.3       6 GLP5        0.0000 
     54 CA          7.7937   19.3250  -31.5665 C.3       3 GLC5        0.0000 
     55 CA          8.4520   20.0130  -29.9010 C.3       6 GLP5        0.0000 
     56 CA          6.7428   18.4084  -36.9505 C.3       3 GLC5        0.0000 
     57 CA          5.7340   17.5250  -35.0960 C.3       9 GLL5        0.0000 
     58 CA          7.2380   20.2150  -37.7150 C.3       6 GLP5        0.0000 
@<TRIPOS>BOND
@<TRIPOS>SUBSTRUCTURE
     1 ALC1       40 GROUP        1 X    ALC  0     ROOT ALC X 1
     2 SEC2       37 GROUP        1 X    SEC  0     **** SEC X 2
     3 GLC5        1 GROUP        1 X    GLC  0     **** GLC X 6
     4 ALP1       42 GROUP        1 Y    ALP  0     ROOT ALP Y 8
     5 SEP2       39 GROUP        1 Y    SEP  0     **** SEP Y 9
     6 GLP5        3 GROUP        1 Y    GLP  0     **** GLP Y 13
     7 ALL1       41 GROUP        1 Z    ALL  0     ROOT ALL Z 15
     8 SEL2       38 GROUP        1 Z    SEL  0     **** SEL Z 16
     9 GLL5        2 GROUP        1 Z    GLL  0     **** GLL Z 20
@<TRIPOS>SET

