#    Name: 3uzx_AOX_2_ligand
#    Modification time : Mon Mar 24 23:47:44 2014

@<TRIPOS>MOLECULE
3uzx_AOX_2_ligand
   51    54     1     0     0
SMALL
NO_CHARGES


@<TRIPOS>ATOM
      1 C1          4.6740   20.7460  -31.4620 C.3       1 AOX501      0.0000 
      2 C2          3.7340   21.1690  -30.3400 C.3       1 AOX501      0.0000 
      3 C3          2.2860   21.2200  -30.7750 C.3       1 AOX501      0.0000 
      4 C4          1.8200   20.0730  -31.6300 C.3       1 AOX501      0.0000 
      5 C5          2.8430   19.7060  -32.7100 C.3       1 AOX501      0.0000 
      6 C6          2.3250   18.5870  -33.6060 C.3       1 AOX501      0.0000 
      7 C7          3.3570   18.2160  -34.6650 C.3       1 AOX501      0.0000 
      8 C8          4.6850   17.8370  -34.0390 C.3       1 AOX501      0.0000 
      9 C9          5.2080   19.0300  -33.2020 C.3       1 AOX501      0.0000 
     10 C10         4.2160   19.4190  -32.0660 C.3       1 AOX501      0.0000 
     11 C11         6.6450   18.8150  -32.6700 C.3       1 AOX501      0.0000 
     12 C12         7.6260   18.4590  -33.7940 C.3       1 AOX501      0.0000 
     13 C13         7.1130   17.2030  -34.5170 C.3       1 AOX501      0.0000 
     14 C14         5.7340   17.5250  -35.0960 C.3       1 AOX501      0.0000 
     15 C15         5.4860   16.3940  -36.1140 C.3       1 AOX501      0.0000 
     16 C16         6.8850   16.2440  -36.7670 C.3       1 AOX501      0.0000 
     17 C17         7.8590   16.8260  -35.7900 C.2       1 AOX501      0.0000 
     18 C18         7.1670   15.9480  -33.6270 C.3       1 AOX501      0.0000 
     19 C19         4.1700   18.3440  -30.9570 C.3       1 AOX501      0.0000 
     20 O3          1.4620   21.2530  -29.6260 O.3       1 AOX501      0.0000 
     21 O17         9.0240   17.0640  -36.0110 O.2       1 AOX501      0.0000 
     22 H           5.6801   20.6313  -31.0667 H         1 AOX501      0.0000 
     23 H           4.6791   21.5090  -32.2362 H         1 AOX501      0.0000 
     24 H           4.0393   22.1599  -29.9741 H         1 AOX501      0.0000 
     25 H           3.8380   20.4635  -29.5031 H         1 AOX501      0.0000 
     26 H           2.1354   22.1488  -31.3460 H         1 AOX501      0.0000 
     27 H           0.8738   20.3351  -32.1179 H         1 AOX501      0.0000 
     28 H           1.6412   19.1919  -31.0025 H         1 AOX501      0.0000 
     29 H           2.9685   20.6126  -33.3418 H         1 AOX501      0.0000 
     30 H           1.4080   18.9136  -34.0961 H         1 AOX501      0.0000 
     31 H           2.1040   17.7109  -32.9965 H         1 AOX501      0.0000 
     32 H           3.5015   19.0665  -35.3368 H         1 AOX501      0.0000 
     33 H           2.9794   17.3752  -35.2531 H         1 AOX501      0.0000 
     34 H           4.5660   17.0024  -33.3914 H         1 AOX501      0.0000 
     35 H           5.2491   19.9089  -33.8905 H         1 AOX501      0.0000 
     36 H           6.6304   18.0089  -31.9350 H         1 AOX501      0.0000 
     37 H           6.9775   19.7297  -32.1771 H         1 AOX501      0.0000 
     38 H           8.5973   18.2562  -33.3723 H         1 AOX501      0.0000 
     39 H           7.6814   19.2764  -34.4948 H         1 AOX501      0.0000 
     40 H           5.9057   18.4517  -35.7164 H         1 AOX501      0.0000 
     41 H           4.7944   16.7091  -36.8361 H         1 AOX501      0.0000 
     42 H           5.2378   15.5086  -35.6104 H         1 AOX501      0.0000 
     43 H           6.8939   16.7928  -37.6851 H         1 AOX501      0.0000 
     44 H           7.0792   15.2038  -36.9232 H         1 AOX501      0.0000 
     45 H           8.0990   15.7461  -33.3259 H         1 AOX501      0.0000 
     46 H           6.6091   16.0523  -32.8037 H         1 AOX501      0.0000 
     47 H           6.8321   15.1374  -34.1073 H         1 AOX501      0.0000 
     48 H           5.0668   18.2053  -30.5368 H         1 AOX501      0.0000 
     49 H           3.5381   18.5940  -30.2234 H         1 AOX501      0.0000 
     50 H           3.8719   17.4576  -31.3111 H         1 AOX501      0.0000 
     51 H           0.7288   20.5997  -29.8146 H         1 AOX501      0.0000 
@<TRIPOS>BOND
     1    2    1 1    
     2   10    1 1    
     3   22    1 1    
     4   23    1 1    
     5    3    2 1    
     6   24    2 1    
     7   25    2 1    
     8    4    3 1    
     9   20    3 1    
    10   26    3 1    
    11    5    4 1    
    12   27    4 1    
    13   28    4 1    
    14    6    5 1    
    15   10    5 1    
    16   29    5 1    
    17    7    6 1    
    18   30    6 1    
    19   31    6 1    
    20    8    7 1    
    21   32    7 1    
    22   33    7 1    
    23    9    8 1    
    24   14    8 1    
    25   34    8 1    
    26   10    9 1    
    27   11    9 1    
    28   35    9 1    
    29   19   10 1    
    30   12   11 1    
    31   36   11 1    
    32   37   11 1    
    33   13   12 1    
    34   38   12 1    
    35   39   12 1    
    36   14   13 1    
    37   17   13 1    
    38   18   13 1    
    39   15   14 1    
    40   40   14 1    
    41   16   15 1    
    42   41   15 1    
    43   42   15 1    
    44   17   16 1    
    45   43   16 1    
    46   44   16 1    
    47   21   17 2    
    48   45   18 1    
    49   46   18 1    
    50   47   18 1    
    51   48   19 1    
    52   49   19 1    
    53   50   19 1    
    54   51   20 1    
@<TRIPOS>SUBSTRUCTURE
     1 AOX501      1 GROUP   
@<TRIPOS>SET

