#    Name: 1kij_NOV_2_INTS_M
#    Modification time : Tue Mar 25 10:10:00 2014

@<TRIPOS>MOLECULE
1kij_NOV_2_INTS_M
   86     0     9     0     0
SMALL
NO_CHARGES


@<TRIPOS>ATOM
      1 CA          6.4655   34.5515   29.2655 C.3       3 GLC5        0.0000 
      2 CA          6.2710   34.7940   31.1380 C.3       9 GLL5        0.0000 
      3 CA          6.6600   34.3090   27.3930 C.3       6 GLP5        0.0000 
      4 CA          6.4090   36.6950   31.8525 C.3       3 GLC5        0.0000 
      5 CA          6.5470   38.5960   32.5670 C.3       6 GLP5        0.0000 
      6 CA          6.3855   34.4565   33.1285 C.3       3 GLC5        0.0000 
      7 CA          6.5000   34.1190   35.1190 C.3       6 GLP5        0.0000 
      8 CA          8.0785   35.5550   32.0270 C.3       3 GLC5        0.0000 
      9 CA          9.8860   36.3160   32.9160 C.3       6 GLP5        0.0000 
     10 CA          7.7645   33.6665   31.7600 C.3       3 GLC5        0.0000 
     11 CA          9.2580   32.5390   32.3820 C.3       6 GLP5        0.0000 
     12 O           5.9800   39.6595   27.0675 O.2       1 ALC1        0.0000 
     13 O           5.9000   38.4800   27.7660 O.2       7 ALL1        0.0000 
     14 O           6.0600   40.8390   26.3690 O.2       4 ALP1        0.0000 
     15 CA          5.3120   34.8215   29.1090 C.3       3 GLC5        0.0000 
     16 CA          3.9640   35.3340   30.8250 C.3       9 GLL5        0.0000 
     17 CA          4.4085   37.9730   31.2135 C.3       3 GLC5        0.0000 
     18 CA          3.5190   36.5370   29.9420 C.3       9 GLL5        0.0000 
     19 CA          5.2980   39.4090   32.4850 C.3       6 GLP5        0.0000 
     20 CA          1.8575   37.6245   27.8630 C.3       3 GLC5        0.0000 
     21 CA          2.3100   36.0600   29.1080 C.3       9 GLL5        0.0000 
     22 CA          1.4050   39.1890   26.6180 C.3       6 GLP5        0.0000 
     23 O           3.3210   35.3600   27.1065 O.2       1 ALC1        0.0000 
     24 O           2.5930   35.0240   28.2400 O.2       7 ALL1        0.0000 
     25 O           4.0490   35.6960   25.9730 O.2       4 ALP1        0.0000 
     26 CA          3.5470   37.2715   33.8460 C.3       3 GLC5        0.0000 
     27 CA          2.5600   35.6760   32.8750 C.3       9 GLL5        0.0000 
     28 CA          4.5340   38.8670   34.8170 C.3       6 GLP5        0.0000 
     29 CA          3.1965   34.5670   34.5960 C.3       3 GLC5        0.0000 
     30 CA          3.8330   33.4580   36.3170 C.3       6 GLP5        0.0000 
     31 CA          3.5210   33.4285   34.1975 C.3       3 GLC5        0.0000 
     32 CA          3.2090   33.3990   32.0780 C.3       9 GLL5        0.0000 
     33 CA          1.4060   32.6615   32.6890 C.3       3 GLC5        0.0000 
     34 CA         -0.3970   31.9240   33.3000 C.3       6 GLP5        0.0000 
     35 CA          3.4815   31.7430   32.8890 C.3       3 GLC5        0.0000 
     36 CA          3.7540   30.0870   33.7000 C.3       6 GLP5        0.0000 
     37 CA         -0.2725   41.4060   30.5040 C.3       3 GLC5        0.0000 
     38 CA          0.6110   39.6780   31.1360 C.3       9 GLL5        0.0000 
     39 CA         -1.1560   43.1340   29.8720 C.3       6 GLP5        0.0000 
     40 CA          2.1025   40.2810   32.3835 C.3       3 GLC5        0.0000 
     41 CA          3.5940   40.8840   33.6310 C.3       6 GLP5        0.0000 
     42 CA         -2.3925   40.3650   30.9505 C.3       3 GLC5        0.0000 
     43 CA         -1.4860   38.8850   32.3110 C.3       9 GLL5        0.0000 
     44 CA         -3.2990   41.8450   29.5900 C.3       6 GLP5        0.0000 
     45 CA         -2.9995   34.9765   33.2685 C.3       3 GLC5        0.0000 
     46 CA         -2.2170   36.5690   32.3030 C.3       9 GLL5        0.0000 
     47 CA         -3.7820   33.3840   34.2340 C.3       6 GLP5        0.0000 
     48 N          -1.9335   42.8040   33.5195 N.am      2 SEC2        0.0000 
     49 N          -3.0620   41.7990   33.5090 N.am      8 SEL2        0.0000 
     50 N          -0.8050   43.8090   33.5300 N.am      5 SEP2        0.0000 
     51 N          -2.5615   42.7550   34.4785 N.am      2 SEC2        0.0000 
     52 N          -2.0610   43.7110   35.4480 N.am      5 SEP2        0.0000 
     53 O          -0.8755   40.5995   40.3105 O.2       1 ALC1        0.0000 
     54 O          -1.6070   39.7370   39.7550 O.2       7 ALL1        0.0000 
     55 O          -0.1440   41.4620   40.8660 O.2       4 ALP1        0.0000 
     56 CA         -1.9065   40.9370   36.5945 C.3       3 GLC5        0.0000 
     57 CA         -3.7630   41.4030   37.2330 C.3       9 GLL5        0.0000 
     58 CA         -0.0500   40.4710   35.9560 C.3       6 GLP5        0.0000 
     59 CA         -3.8715   36.3480   39.3140 C.3       3 GLC5        0.0000 
     60 CA         -2.4460   37.4130   38.2300 C.3       9 GLL5        0.0000 
     61 CA         -5.2970   35.2830   40.3980 C.3       6 GLP5        0.0000 
     62 CA          0.7340   37.7575   38.9075 C.3       3 GLC5        0.0000 
     63 CA         -1.0010   37.2290   37.8540 C.3       9 GLL5        0.0000 
     64 CA          2.4690   38.2860   39.9610 C.3       6 GLP5        0.0000 
     65 CA          1.0940   38.2885   35.8980 C.3       3 GLC5        0.0000 
     66 CA          1.0100   36.4300   36.6710 C.3       9 GLL5        0.0000 
     67 CA          1.1780   40.1470   35.1250 C.3       6 GLP5        0.0000 
     68 CA          1.7395   37.3580   38.3160 C.3       3 GLC5        0.0000 
     69 CA          2.8105   35.5670   36.6705 C.3       3 GLC5        0.0000 
     70 CA          4.6110   34.7040   36.6700 C.3       6 GLP5        0.0000 
     71 CA         -1.8810   34.4310   34.9450 C.3       3 GLC5        0.0000 
     72 CA         -1.2890   36.2110   35.5700 C.3       9 GLL5        0.0000 
     73 CA         -2.4730   32.6510   34.3200 C.3       6 GLP5        0.0000 
     74 CA          0.2527   39.5777   33.4809 C.3       3 GLC5        0.0000 
     75 CA         -0.3290   38.5860   31.5890 C.3       9 GLL5        0.0000 
     76 CA         -1.7465   39.8509   36.6406 C.3       3 GLC5        0.0000 
     77 CA         -3.7830   39.0080   36.8960 C.3       9 GLL5        0.0000 
     78 CA         -1.0443   40.6868   37.8903 C.3       3 GLC5        0.0000 
     79 CA         -2.4380   39.9160   38.6720 C.3       9 GLL5        0.0000 
     80 CA          0.5630   40.8110   37.2870 C.3       6 GLP5        0.0000 
     81 CA         -1.1233   35.8270   38.6060 C.3       3 GLC5        0.0000 
     82 CA         -0.5230   34.3330   39.1700 C.3       6 GLP5        0.0000 
     83 CA         -0.5639   34.9856   37.0009 C.3       3 GLC5        0.0000 
     84 CA         -0.4790   36.6530   36.7560 C.3       9 GLL5        0.0000 
     85 CA         -0.6160   33.5950   37.8600 C.3       6 GLP5        0.0000 
     86 CA         -0.5323   38.5235   36.1968 C.3       3 GLC5        0.0000 
@<TRIPOS>BOND
@<TRIPOS>SUBSTRUCTURE
     1 ALC1       12 GROUP        1 X    ALC  0     ROOT ALC X 1
     2 SEC2       48 GROUP        1 X    SEC  0     **** SEC X 2
     3 GLC5        1 GROUP        1 X    GLC  0     **** GLC X 6
     4 ALP1       14 GROUP        1 Y    ALP  0     ROOT ALP Y 8
     5 SEP2       50 GROUP        1 Y    SEP  0     **** SEP Y 9
     6 GLP5        3 GROUP        1 Y    GLP  0     **** GLP Y 13
     7 ALL1       13 GROUP        1 Z    ALL  0     ROOT ALL Z 15
     8 SEL2       49 GROUP        1 Z    SEL  0     **** SEL Z 16
     9 GLL5        2 GROUP        1 Z    GLL  0     **** GLL Z 20
@<TRIPOS>SET

