#    Name: 1kij_NOV_2_ligand
#    Modification time : Tue Mar 25 10:10:00 2014

@<TRIPOS>MOLECULE
1kij_NOV_2_ligand
   80    83     1     0     0
SMALL
NO_CHARGES


@<TRIPOS>ATOM
      1 C1          6.2710   34.7940   31.1380 C.3       1 NOV444      0.0000 
      2 O1          5.1380   35.4930   31.5820 O.3       1 NOV444      0.0000 
      3 N1          5.9000   38.4800   27.7660 N.am      1 NOV444      0.0000 
      4 C12         4.7750   38.3070   28.4810 C.2       1 NOV444      0.0000 
      5 O4          4.0360   39.2490   28.5790 O.2       1 NOV444      0.0000 
      6 O5          4.5950   37.0450   29.0540 O.3       1 NOV444      0.0000 
      7 C27         3.9640   35.3340   30.8250 C.3       1 NOV444      0.0000 
      8 C28         3.5190   36.5370   29.9420 C.3       1 NOV444      0.0000 
      9 C29         2.3100   36.0600   29.1080 C.3       1 NOV444      0.0000 
     10 O6          2.5930   35.0240   28.2400 O.3       1 NOV444      0.0000 
     11 C30         1.2140   35.7130   30.0550 C.3       1 NOV444      0.0000 
     12 O7          1.6030   34.6700   30.9380 O.3       1 NOV444      0.0000 
     13 C31         2.8120   34.7950   31.6710 C.3       1 NOV444      0.0000 
     14 C23         2.5600   35.6760   32.8750 C.3       1 NOV444      0.0000 
     15 C26         3.2090   33.3990   32.0780 C.3       1 NOV444      0.0000 
     16 O8          1.0530   36.9570   30.7170 O.3       1 NOV444      0.0000 
     17 C3         -0.1080   37.2360   31.3220 C.ar      1 NOV444      0.0000 
     18 C4         -0.3290   38.5860   31.5890 C.ar      1 NOV444      0.0000 
     19 C2          0.6110   39.6780   31.1360 C.3       1 NOV444      0.0000 
     20 C5         -1.4860   38.8850   32.3110 C.ar      1 NOV444      0.0000 
     21 C9         -2.4460   37.9030   32.6790 C.ar      1 NOV444      0.0000 
     22 C10        -2.2170   36.5690   32.3030 C.ar      1 NOV444      0.0000 
     23 C11        -1.0520   36.2480   31.6670 C.ar      1 NOV444      0.0000 
     24 O10        -1.6830   40.1740   32.6950 O.3       1 NOV444      0.0000 
     25 C6         -2.8840   40.5530   33.2990 C.2       1 NOV444      0.0000 
     26 O11        -3.0620   41.7990   33.5090 O.2       1 NOV444      0.0000 
     27 C7         -3.8520   39.6140   33.6370 C.2       1 NOV444      0.0000 
     28 C8         -3.5980   38.2870   33.3720 C.2       1 NOV444      0.0000 
     29 O9         -4.5280   37.4100   33.8670 O.3       1 NOV444      0.0000 
     30 N2         -5.0250   39.9440   34.2700 N.am      1 NOV444      0.0000 
     31 C13        -5.1920   40.5330   35.4570 C.2       1 NOV444      0.0000 
     32 O2         -6.1510   41.2710   35.6100 O.2       1 NOV444      0.0000 
     33 C14        -4.2290   40.2990   36.5370 C.ar      1 NOV444      0.0000 
     34 C15        -3.7830   39.0080   36.8960 C.ar      1 NOV444      0.0000 
     35 C16        -2.8800   38.8080   37.9340 C.ar      1 NOV444      0.0000 
     36 C17        -2.4380   39.9160   38.6720 C.ar      1 NOV444      0.0000 
     37 O3         -1.6070   39.7370   39.7550 O.3       1 NOV444      0.0000 
     38 C18        -2.8650   41.2090   38.3150 C.ar      1 NOV444      0.0000 
     39 C19        -3.7630   41.4030   37.2330 C.ar      1 NOV444      0.0000 
     40 C20        -2.4460   37.4130   38.2300 C.3       1 NOV444      0.0000 
     41 C21        -1.0010   37.2290   37.8540 C.2       1 NOV444      0.0000 
     42 C22        -0.4790   36.6530   36.7560 C.2       1 NOV444      0.0000 
     43 C24         1.0100   36.4300   36.6710 C.3       1 NOV444      0.0000 
     44 C25        -1.2890   36.2110   35.5700 C.3       1 NOV444      0.0000 
     45 H           6.0185   39.3781   27.3425 H         1 NOV444      0.0000 
     46 H           6.5181   37.6951   27.7214 H         1 NOV444      0.0000 
     47 H           4.1490   34.4856   30.0583 H         1 NOV444      0.0000 
     48 H           3.1648   37.3146   30.6035 H         1 NOV444      0.0000 
     49 H           1.9646   36.9663   28.5544 H         1 NOV444      0.0000 
     50 H           0.3477   35.4835   29.4805 H         1 NOV444      0.0000 
     51 H          -2.9257   35.8595   32.5112 H         1 NOV444      0.0000 
     52 H          -0.8395   35.2602   31.4242 H         1 NOV444      0.0000 
     53 H          -5.9386   39.6837   33.7162 H         1 NOV444      0.0000 
     54 H          -4.1443   38.1933   36.3653 H         1 NOV444      0.0000 
     55 H          -2.5265   42.0231   38.8392 H         1 NOV444      0.0000 
     56 H          -4.0518   42.3470   36.9835 H         1 NOV444      0.0000 
     57 H          -3.0588   36.7061   37.6655 H         1 NOV444      0.0000 
     58 H          -2.5715   37.2035   39.2950 H         1 NOV444      0.0000 
     59 H          -0.3335   37.6346   38.6067 H         1 NOV444      0.0000 
     60 H           7.0620   34.9556   31.7282 H         1 NOV444      0.0000 
     61 H           6.1150   33.8064   31.1208 H         1 NOV444      0.0000 
     62 H           6.5356   35.0651   30.2125 H         1 NOV444      0.0000 
     63 H           3.3640   35.7352   33.4666 H         1 NOV444      0.0000 
     64 H           2.3227   36.6102   32.6085 H         1 NOV444      0.0000 
     65 H           1.8077   35.3313   33.4365 H         1 NOV444      0.0000 
     66 H           3.3605   32.8097   31.2844 H         1 NOV444      0.0000 
     67 H           4.0543   33.3942   32.6123 H         1 NOV444      0.0000 
     68 H           2.5057   32.9613   32.6381 H         1 NOV444      0.0000 
     69 H           1.5295   39.5573   31.5126 H         1 NOV444      0.0000 
     70 H           0.7029   39.6996   30.1405 H         1 NOV444      0.0000 
     71 H           0.2940   40.5827   31.4208 H         1 NOV444      0.0000 
     72 H           1.5183   37.2890   36.7326 H         1 NOV444      0.0000 
     73 H           1.3400   35.8406   37.4084 H         1 NOV444      0.0000 
     74 H           1.2719   35.9956   35.8092 H         1 NOV444      0.0000 
     75 H          -0.7147   35.8080   34.8574 H         1 NOV444      0.0000 
     76 H          -1.9704   35.5235   35.8210 H         1 NOV444      0.0000 
     77 H          -1.7825   36.9738   35.1522 H         1 NOV444      0.0000 
     78 H           3.0993   35.4471   27.4886 H         1 NOV444      0.0000 
     79 H          -4.9688   37.0175   33.0598 H         1 NOV444      0.0000 
     80 H          -1.1929   40.6332   39.9142 H         1 NOV444      0.0000 
@<TRIPOS>BOND
     1    2    1 1    
     2   60    1 1    
     3   61    1 1    
     4   62    1 1    
     5    7    2 1    
     6    4    3 am   
     7   45    3 1    
     8   46    3 1    
     9    5    4 2    
    10    6    4 1    
    11    8    6 1    
    12    8    7 1    
    13   13    7 1    
    14   47    7 1    
    15    9    8 1    
    16   48    8 1    
    17   10    9 1    
    18   11    9 1    
    19   49    9 1    
    20   78   10 1    
    21   12   11 1    
    22   16   11 1    
    23   50   11 1    
    24   13   12 1    
    25   14   13 1    
    26   15   13 1    
    27   63   14 1    
    28   64   14 1    
    29   65   14 1    
    30   66   15 1    
    31   67   15 1    
    32   68   15 1    
    33   17   16 1    
    34   18   17 ar   
    35   23   17 ar   
    36   19   18 1    
    37   20   18 ar   
    38   69   19 1    
    39   70   19 1    
    40   71   19 1    
    41   21   20 ar   
    42   24   20 1    
    43   22   21 ar   
    44   28   21 1    
    45   23   22 ar   
    46   51   22 1    
    47   52   23 1    
    48   25   24 1    
    49   26   25 2    
    50   27   25 1    
    51   28   27 2    
    52   30   27 1    
    53   29   28 1    
    54   79   29 1    
    55   31   30 am   
    56   53   30 1    
    57   32   31 2    
    58   33   31 1    
    59   34   33 ar   
    60   39   33 ar   
    61   35   34 ar   
    62   54   34 1    
    63   36   35 ar   
    64   40   35 1    
    65   37   36 1    
    66   38   36 ar   
    67   80   37 1    
    68   39   38 ar   
    69   55   38 1    
    70   56   39 1    
    71   41   40 1    
    72   57   40 1    
    73   58   40 1    
    74   42   41 2    
    75   59   41 1    
    76   43   42 1    
    77   44   42 1    
    78   72   43 1    
    79   73   43 1    
    80   74   43 1    
    81   75   44 1    
    82   76   44 1    
    83   77   44 1    
@<TRIPOS>SUBSTRUCTURE
     1 NOV444      1 GROUP   
@<TRIPOS>SET

