#    Name: 2jko_BIJ_1_INTS_M
#    Modification time : Tue Mar 25 21:02:36 2014

@<TRIPOS>MOLECULE
2jko_BIJ_1_INTS_M
   68     0     6     0     0
SMALL
NO_CHARGES


@<TRIPOS>ATOM
      1 CA         29.6185   22.1140   30.9650 C.3       2 GLC5        0.0000 
      2 CA         29.1450   20.0430   31.1850 C.3       6 GLL5        0.0000 
      3 CA         30.0920   24.1850   30.7450 C.3       4 GLP5        0.0000 
      4 CA         28.5330   21.9330   29.8910 C.3       2 GLC5        0.0000 
      5 CA         28.1560   19.7580   30.0440 C.3       6 GLL5        0.0000 
      6 CA         28.9100   24.1080   29.7380 C.3       4 GLP5        0.0000 
      7 CA         26.3545   22.7410   32.1370 C.3       2 GLC5        0.0000 
      8 CA         27.0140   20.6490   32.6070 C.3       6 GLL5        0.0000 
      9 CA         25.6950   24.8330   31.6670 C.3       4 GLP5        0.0000 
     10 CA         32.3620   22.9240   31.1900 C.3       2 GLC5        0.0000 
     11 CA         33.3070   21.8740   32.3690 C.3       6 GLL5        0.0000 
     12 CA         31.4170   23.9740   30.0110 C.3       4 GLP5        0.0000 
     13 CA         34.0080   23.7305   33.2160 C.3       2 GLC5        0.0000 
     14 CA         34.7090   25.5870   34.0630 C.3       4 GLP5        0.0000 
     15 CA         34.7605   21.4400   33.7985 C.3       2 GLC5        0.0000 
     16 CA         36.2140   21.0060   35.2280 C.3       4 GLP5        0.0000 
     17 CA         27.4225   21.2645   35.8065 C.3       2 GLC5        0.0000 
     18 CA         28.7920   22.1100   34.3810 C.3       6 GLL5        0.0000 
     19 CA         26.0530   20.4190   37.2320 C.3       4 GLP5        0.0000 
     20 CA         29.3925   22.8220   37.2845 C.3       2 GLC5        0.0000 
     21 CA         29.6190   22.8200   35.2580 C.3       6 GLL5        0.0000 
     22 CA         29.1660   22.8240   39.3110 C.3       4 GLP5        0.0000 
     23 N          33.9130   24.8795   37.4585 N.am      1 SEC2        0.0000 
     24 N          32.5560   25.3400   37.1830 N.am      5 SEL2        0.0000 
     25 N          35.2700   24.4190   37.7340 N.am      3 SEP2        0.0000 
     26 CA         31.9295   29.9180   38.7450 C.3       2 GLC5        0.0000 
     27 CA         30.7170   28.3930   38.9100 C.3       6 GLL5        0.0000 
     28 CA         33.1420   31.4430   38.5800 C.3       4 GLP5        0.0000 
     29 CA         29.2700   29.3490   40.3290 C.3       2 GLC5        0.0000 
     30 CA         27.8230   30.3050   41.7480 C.3       4 GLP5        0.0000 
     31 CA         28.5760   28.9045   38.5765 C.3       2 GLC5        0.0000 
     32 CA         26.4350   29.4160   38.2430 C.3       4 GLP5        0.0000 
     33 N          28.0260   27.6235   41.6260 N.am      1 SEC2        0.0000 
     34 N          27.7000   26.9420   40.2350 N.am      5 SEL2        0.0000 
     35 N          28.3520   28.3050   43.0170 N.am      3 SEP2        0.0000 
     36 CA         25.0575   24.4230   42.9890 C.3       2 GLC5        0.0000 
     37 CA         25.5580   25.9420   41.9300 C.3       6 GLL5        0.0000 
     38 CA         24.5570   22.9040   44.0480 C.3       4 GLP5        0.0000 
     39 CA         27.2045   26.0010   42.8235 C.3       2 GLC5        0.0000 
     40 CA         28.8510   26.0600   43.7170 C.3       4 GLP5        0.0000 
     41 CA         25.0670   27.5605   40.9300 C.3       2 GLC5        0.0000 
     42 CA         24.5760   29.1790   39.9300 C.3       4 GLP5        0.0000 
     43 CA         24.7775   27.0045   39.7895 C.3       2 GLC5        0.0000 
     44 CA         24.9790   24.8300   39.6490 C.3       6 GLL5        0.0000 
     45 CA         25.9565   24.6830   33.8175 C.3       2 GLC5        0.0000 
     46 CA         26.2180   24.5330   35.9680 C.3       6 GLL5        0.0000 
     47 CA         28.2485   24.0940   37.7045 C.3       2 GLC5        0.0000 
     48 CA         27.3310   25.3640   36.0980 C.3       6 GLL5        0.0000 
     49 CA         30.4723   20.6025   34.7350 C.3       2 GLC5        0.0000 
     50 CA         30.7020   21.5630   33.0320 C.3       6 GLL5        0.0000 
     51 CA         30.9310   19.6860   36.3280 C.3       4 GLP5        0.0000 
     52 CA         31.0995   21.1412   35.3950 C.3       2 GLC5        0.0000 
     53 CA         30.9970   22.9180   35.0220 C.3       6 GLL5        0.0000 
     54 CA         29.7474   22.9997   32.2533 C.3       2 GLC5        0.0000 
     55 CA         30.0682   21.0755   35.5738 C.3       2 GLC5        0.0000 
     56 CA         30.7653   24.1601   33.7545 C.3       2 GLC5        0.0000 
     57 CA         31.0870   25.6120   32.6490 C.3       4 GLP5        0.0000 
     58 CA         31.7296   27.9155   36.5635 C.3       2 GLC5        0.0000 
     59 CA         31.0340   26.9590   37.9860 C.3       6 GLL5        0.0000 
     60 CA         33.0250   28.8460   35.2360 C.3       4 GLP5        0.0000 
     61 CA         30.3986   25.8395   39.1795 C.3       2 GLC5        0.0000 
     62 CA         30.3630   24.6940   40.4680 C.3       4 GLP5        0.0000 
     63 CA         26.8300   27.6348   38.0625 C.3       2 GLC5        0.0000 
     64 CA         26.8080   25.7410   38.4390 C.3       6 GLL5        0.0000 
     65 CA         27.8115   24.1016   38.7002 C.3       2 GLC5        0.0000 
     66 CA         27.6420   25.9660   37.3250 C.3       6 GLL5        0.0000 
     67 CA         25.9300   22.4192   36.8757 C.3       2 GLC5        0.0000 
     68 CA         25.3960   24.3060   37.0710 C.3       6 GLL5        0.0000 
@<TRIPOS>BOND
@<TRIPOS>SUBSTRUCTURE
     1 SEC2       23 GROUP        1 X    SEC  0     ROOT SEC X 2
     2 GLC5        1 GROUP        1 X    GLC  0     **** GLC X 6
     3 SEP2       25 GROUP        1 Y    SEP  0     ROOT SEP Y 9
     4 GLP5        3 GROUP        1 Y    GLP  0     **** GLP Y 13
     5 SEL2       24 GROUP        1 Z    SEL  0     ROOT SEL Z 16
     6 GLL5        2 GROUP        1 Z    GLL  0     **** GLL Z 20
@<TRIPOS>SET

