#    Name: 2jko_BIJ_1_ligand
#    Modification time : Tue Mar 25 21:02:36 2014

@<TRIPOS>MOLECULE
2jko_BIJ_1_ligand
   65    69     1     0     0
SMALL
NO_CHARGES


@<TRIPOS>ATOM
      1 CBD        29.1450   20.0430   31.1850 C.3       1 BIJ1687     0.0000 
      2 CBF        28.1560   19.7580   30.0440 C.3       1 BIJ1687     0.0000 
      3 NBH        26.9130   19.1920   30.5960 N.4       1 BIJ1687     0.0000 
      4 CBI        26.0570   18.6960   29.5020 C.3       1 BIJ1687     0.0000 
      5 CBG        26.1880   20.2270   31.3640 C.3       1 BIJ1687     0.0000 
      6 CBE        27.0140   20.6490   32.6070 C.3       1 BIJ1687     0.0000 
      7 NBC        28.4980   20.7390   32.3510 N.3       1 BIJ1687     0.0000 
      8 CBA        29.3250   21.4750   33.2520 C.ar      1 BIJ1687     0.0000 
      9 CAW        30.7020   21.5630   33.0320 C.ar      1 BIJ1687     0.0000 
     10 CAQ        31.5390   22.2750   33.9020 C.ar      1 BIJ1687     0.0000 
     11 OAR        32.8870   22.3620   33.6740 O.3       1 BIJ1687     0.0000 
     12 CAS        33.3070   21.8740   32.3690 C.3       1 BIJ1687     0.0000 
     13 CAV        28.7920   22.1100   34.3810 C.ar      1 BIJ1687     0.0000 
     14 CAP        29.6190   22.8200   35.2580 C.ar      1 BIJ1687     0.0000 
     15 CAL        30.9970   22.9180   35.0220 C.ar      1 BIJ1687     0.0000 
     16 NAH        31.8260   23.5860   35.8480 N.2       1 BIJ1687     0.0000 
     17 C2         31.5480   24.7030   36.5470 C.2       1 BIJ1687     0.0000 
     18 N3         30.2890   25.1830   36.6290 N.pl3     1 BIJ1687     0.0000 
     19 N1         32.5560   25.3400   37.1830 N.2       1 BIJ1687     0.0000 
     20 C6         32.3300   26.4420   37.8920 C.2       1 BIJ1687     0.0000 
     21 C5         31.0340   26.9590   37.9860 C.3       1 BIJ1687     0.0000 
     22 CL5        30.7170   28.3930   38.9100 Cl        1 BIJ1687     0.0000 
     23 C4         29.9930   26.2940   37.3340 C.2       1 BIJ1687     0.0000 
     24 NAE        28.7270   26.7600   37.4070 N.pl3     1 BIJ1687     0.0000 
     25 CAJ        27.6420   25.9660   37.3250 C.ar      1 BIJ1687     0.0000 
     26 CAN        26.8080   25.7410   38.4390 C.ar      1 BIJ1687     0.0000 
     27 CAM        26.8420   26.1850   39.7730 C.2       1 BIJ1687     0.0000 
     28 OAI        27.7000   26.9420   40.2350 O.2       1 BIJ1687     0.0000 
     29 NAU        25.8270   25.6810   40.4920 N.am      1 BIJ1687     0.0000 
     30 CAT        25.5580   25.9420   41.9300 C.3       1 BIJ1687     0.0000 
     31 CAX        24.9790   24.8300   39.6490 C.3       1 BIJ1687     0.0000 
     32 CAY        25.6890   24.9050   38.2970 C.ar      1 BIJ1687     0.0000 
     33 CBB        25.3960   24.3060   37.0710 C.ar      1 BIJ1687     0.0000 
     34 CAZ        26.2180   24.5330   35.9680 C.ar      1 BIJ1687     0.0000 
     35 CAO        27.3310   25.3640   36.0980 C.ar      1 BIJ1687     0.0000 
     36 H          29.9627   20.6609   30.7907 H         1 BIJ1687     0.0000 
     37 H          29.5792   19.0900   31.5156 H         1 BIJ1687     0.0000 
     38 H          28.6251   19.0606   29.3513 H         1 BIJ1687     0.0000 
     39 H          27.9576   20.6932   29.5221 H         1 BIJ1687     0.0000 
     40 H          27.1577   18.3689   31.2569 H         1 BIJ1687     0.0000 
     41 H          25.2265   19.8504   31.7113 H         1 BIJ1687     0.0000 
     42 H          26.0189   21.1147   30.7555 H         1 BIJ1687     0.0000 
     43 H          26.8183   19.9215   33.4107 H         1 BIJ1687     0.0000 
     44 H          26.6362   21.6239   32.9537 H         1 BIJ1687     0.0000 
     45 H          31.1157   21.0917   32.2072 H         1 BIJ1687     0.0000 
     46 H          27.7804   22.0532   34.5668 H         1 BIJ1687     0.0000 
     47 H          29.2115   23.2764   36.0870 H         1 BIJ1687     0.0000 
     48 H          29.5135   24.6733   36.1262 H         1 BIJ1687     0.0000 
     49 H          33.0936   26.9406   38.3865 H         1 BIJ1687     0.0000 
     50 H          31.2518   27.8155   36.8439 H         1 BIJ1687     0.0000 
     51 H          28.5815   27.8065   37.5357 H         1 BIJ1687     0.0000 
     52 H          24.0025   25.2331   39.5481 H         1 BIJ1687     0.0000 
     53 H          24.9831   23.8233   39.9849 H         1 BIJ1687     0.0000 
     54 H          24.5733   23.6970   36.9818 H         1 BIJ1687     0.0000 
     55 H          26.0065   24.0928   35.0680 H         1 BIJ1687     0.0000 
     56 H          27.9362   25.5399   35.2802 H         1 BIJ1687     0.0000 
     57 H          26.5124   17.9838   28.9678 H         1 BIJ1687     0.0000 
     58 H          25.2041   18.3038   29.8465 H         1 BIJ1687     0.0000 
     59 H          25.8079   19.4258   28.8653 H         1 BIJ1687     0.0000 
     60 H          34.2956   21.9559   32.2424 H         1 BIJ1687     0.0000 
     61 H          33.0739   20.9101   32.2403 H         1 BIJ1687     0.0000 
     62 H          32.8731   22.3823   31.6251 H         1 BIJ1687     0.0000 
     63 H          26.3205   25.6530   42.5089 H         1 BIJ1687     0.0000 
     64 H          25.4062   26.9141   42.1090 H         1 BIJ1687     0.0000 
     65 H          24.7457   25.4546   42.2503 H         1 BIJ1687     0.0000 
@<TRIPOS>BOND
     1    2    1 1    
     2    7    1 1    
     3   36    1 1    
     4   37    1 1    
     5    3    2 1    
     6   38    2 1    
     7   39    2 1    
     8    4    3 1    
     9    5    3 1    
    10   40    3 1    
    11   57    4 1    
    12   58    4 1    
    13   59    4 1    
    14    6    5 1    
    15   41    5 1    
    16   42    5 1    
    17    7    6 1    
    18   43    6 1    
    19   44    6 1    
    20    8    7 1    
    21    9    8 ar   
    22   13    8 ar   
    23   10    9 ar   
    24   45    9 1    
    25   11   10 1    
    26   15   10 ar   
    27   12   11 1    
    28   60   12 1    
    29   61   12 1    
    30   62   12 1    
    31   14   13 ar   
    32   46   13 1    
    33   15   14 ar   
    34   47   14 1    
    35   16   15 1    
    36   17   16 2    
    37   18   17 1    
    38   19   17 1    
    39   23   18 1    
    40   48   18 1    
    41   20   19 2    
    42   21   20 1    
    43   49   20 1    
    44   22   21 1    
    45   23   21 1    
    46   50   21 1    
    47   24   23 2    
    48   25   24 1    
    49   51   24 1    
    50   26   25 ar   
    51   35   25 ar   
    52   27   26 1    
    53   32   26 ar   
    54   28   27 2    
    55   29   27 am   
    56   30   29 1    
    57   31   29 1    
    58   63   30 1    
    59   64   30 1    
    60   65   30 1    
    61   32   31 1    
    62   52   31 1    
    63   53   31 1    
    64   33   32 ar   
    65   34   33 ar   
    66   54   33 1    
    67   35   34 ar   
    68   55   34 1    
    69   56   35 1    
@<TRIPOS>SUBSTRUCTURE
     1 BIJ1687     1 GROUP   
@<TRIPOS>SET

