#    Name: 4J4N_1_CAVITY_N1_6.mol2
#    Modification time : Tue Mar 11 07:12:08 2014

@<TRIPOS>MOLECULE
4J4N_1_CAVITY_N1_6.mol2
  258     0     7     0     0
SMALL
NO_CHARGES


@<TRIPOS>ATOM
      1 OG        -12.8095    9.0669  -27.0528 O.2       1 SER1        0.0000 
      2 CA        -13.1149    7.9317  -26.1211 C.3       6 GLY6        0.0000 
      3 CA        -13.4204    6.7965  -25.1894 C.3       6 GLY6        0.0000 
      4 CA        -12.3290   14.2436  -32.6627 C.3       6 GLY6        0.0000 
      5 CA        -14.1615    7.4324  -27.0726 C.3       6 GLY6        0.0000 
      6 CA        -14.4670    6.2972  -26.1409 C.3       6 GLY6        0.0000 
      7 N         -13.3756   13.7443  -33.6142 N.2       2 ALA2        0.0000 
      8 CZ        -13.6811   12.6091  -32.6825 C.ar      5 PHE5        0.0000 
      9 N         -15.5136    5.7979  -27.0923 N.2       2 ALA2        0.0000 
     10 N         -15.8190    4.6627  -26.1606 N.2       2 ALA2        0.0000 
     11 CZ        -15.0331   10.9746  -32.7023 C.ar      5 PHE5        0.0000 
     12 N         -16.8656    4.1634  -27.1121 N.2       2 ALA2        0.0000 
     13 O         -17.1710    3.0282  -26.1804 O.2       2 ALA2        0.0000 
     14 O         -18.2176    2.5289  -27.1319 O.2       2 ALA2        0.0000 
     15 CZ         -9.0753   11.4921  -27.7036 C.ar      5 PHE5        0.0000 
     16 CZ         -9.3807   10.3569  -26.7719 C.ar      5 PHE5        0.0000 
     17 CZ         -9.6861    9.2217  -25.8402 C.ar      5 PHE5        0.0000 
     18 CA         -9.8164   12.1280  -29.5868 C.3       6 GLY6        0.0000 
     19 OG        -10.1219   10.9928  -28.6551 O.2       1 SER1        0.0000 
     20 OG        -10.4273    9.8576  -27.7234 O.2       1 SER1        0.0000 
     21 OG        -10.7327    8.7224  -26.7917 O.2       1 SER1        0.0000 
     22 CZ        -11.0381    7.5872  -25.8600 C.ar      5 PHE5        0.0000 
     23 CZ        -11.3435    6.4520  -24.9283 C.ar      5 PHE5        0.0000 
     24 OG        -11.7793    8.2231  -27.7432 O.2       1 SER1        0.0000 
     25 DU        -12.0847    7.0879  -26.8115 H         7 CUB7        0.0000 
     26 CZ        -12.3901    5.9527  -25.8798 C.ar      5 PHE5        0.0000 
     27 N         -12.6956    4.8175  -24.9481 N.2       2 ALA2        0.0000 
     28 OG        -13.0010    3.6823  -24.0164 O.2       1 SER1        0.0000 
     29 CA        -11.6042   12.2646  -32.4214 C.3       6 GLY6        0.0000 
     30 OG        -12.8259    7.7238  -28.6946 O.2       1 SER1        0.0000 
     31 CA        -13.1313    6.5886  -27.7630 C.3       6 GLY6        0.0000 
     32 DU        -13.4368    5.4534  -26.8313 H         7 CUB7        0.0000 
     33 OG        -13.7422    4.3182  -25.8996 O.2       1 SER1        0.0000 
     34 N         -12.0400   14.0357  -35.2363 N.2       2 ALA2        0.0000 
     35 N         -12.3454   12.9005  -34.3046 N.2       2 ALA2        0.0000 
     36 CZ        -12.6508   11.7653  -33.3729 C.ar      5 PHE5        0.0000 
     37 CZ        -12.9563   10.6301  -32.4412 C.ar      5 PHE5        0.0000 
     38 CA        -14.4834    4.9541  -27.7827 C.3       6 GLY6        0.0000 
     39 OG        -14.7888    3.8189  -26.8510 O.2       1 SER1        0.0000 
     40 OG        -15.0942    2.6837  -25.9194 O.2       1 SER1        0.0000 
     41 OG        -15.3996    1.5485  -24.9877 O.2       1 SER1        0.0000 
     42 CA        -13.3920   12.4011  -35.2560 C.3       6 GLY6        0.0000 
     43 DU        -13.6975   11.2660  -34.3244 H         7 CUB7        0.0000 
     44 CZ        -14.0029   10.1308  -33.3927 C.ar      5 PHE5        0.0000 
     45 CZ        -15.8354    3.3196  -27.8025 C.ar      5 PHE5        0.0000 
     46 OG        -16.1408    2.1844  -26.8708 O.2       1 SER1        0.0000 
     47 OG        -16.4462    1.0492  -25.9391 O.2       1 SER1        0.0000 
     48 CA        -14.7441   10.7666  -35.2758 C.3       6 GLY6        0.0000 
     49 CZ        -16.8820    2.8203  -28.7540 C.ar      5 PHE5        0.0000 
     50 CZ        -17.1874    1.6851  -27.8223 C.ar      5 PHE5        0.0000 
     51 CZ         -8.0450   10.6483  -28.3940 C.ar      5 PHE5        0.0000 
     52 CZ         -8.3505    9.5131  -27.4623 C.ar      5 PHE5        0.0000 
     53 CZ         -8.7862   11.2842  -30.2772 C.ar      5 PHE5        0.0000 
     54 OG         -9.0917   10.1490  -29.3455 O.2       1 SER1        0.0000 
     55 OG         -9.3971    9.0138  -28.4138 O.2       1 SER1        0.0000 
     56 NZ         -9.7025    7.8786  -27.4821 N.2       4 LYS4        0.0000 
     57 NZ        -10.3133    5.6082  -25.6187 N.2       4 LYS4        0.0000 
     58 N         -10.6188    4.4730  -24.6870 N.2       2 ALA2        0.0000 
     59 CA         -9.5274   11.9201  -32.1603 C.3       6 GLY6        0.0000 
     60 OG         -9.8328   10.7849  -31.2287 O.2       1 SER1        0.0000 
     61 OG        -10.1383    9.6497  -30.2970 O.2       1 SER1        0.0000 
     62 OG        -10.4437    8.5145  -29.3653 O.2       1 SER1        0.0000 
     63 OG        -10.7491    7.3793  -28.4336 O.2       1 SER1        0.0000 
     64 NZ        -11.0545    6.2441  -27.5019 N.2       4 LYS4        0.0000 
     65 NZ        -11.3599    5.1089  -26.5702 N.2       4 LYS4        0.0000 
     66 N         -11.6654    3.9737  -25.6385 N.2       2 ALA2        0.0000 
     67 N         -11.9708    2.8385  -24.7068 N.2       2 ALA2        0.0000 
     68 N         -12.2762    1.7033  -23.7751 N.2       2 ALA2        0.0000 
     69 N         -10.5740   11.4208  -33.1118 N.2       2 ALA2        0.0000 
     70 OG        -10.8795   10.2856  -32.1801 O.2       1 SER1        0.0000 
     71 OG        -11.1849    9.1504  -31.2484 O.2       1 SER1        0.0000 
     72 OG        -11.4903    8.0152  -30.3167 O.2       1 SER1        0.0000 
     73 OG        -11.7957    6.8800  -29.3851 O.2       1 SER1        0.0000 
     74 DU        -12.1011    5.7448  -28.4534 H         7 CUB7        0.0000 
     75 DU        -12.7120    3.4744  -26.5900 H         7 CUB7        0.0000 
     76 OG        -13.0174    2.3392  -25.6583 O.2       1 SER1        0.0000 
     77 N         -13.3228    1.2040  -24.7266 N.2       2 ALA2        0.0000 
     78 N         -11.0098   13.1919  -35.9267 N.2       2 ALA2        0.0000 
     79 N         -11.3152   12.0567  -34.9950 N.2       2 ALA2        0.0000 
     80 N         -11.6206   10.9215  -34.0633 N.2       2 ALA2        0.0000 
     81 OG        -11.9261    9.7863  -33.1316 O.2       1 SER1        0.0000 
     82 OG        -12.2315    8.6511  -32.1999 O.2       1 SER1        0.0000 
     83 OG        -12.8423    6.3807  -30.3365 O.2       1 SER1        0.0000 
     84 OG        -13.1477    5.2455  -29.4048 O.2       1 SER1        0.0000 
     85 CZ        -13.4532    4.1103  -28.4731 C.ar      5 PHE5        0.0000 
     86 DU        -13.7586    2.9751  -27.5415 H         7 CUB7        0.0000 
     87 DU        -14.0640    1.8399  -26.6098 H         7 CUB7        0.0000 
     88 DU        -14.3694    0.7047  -25.6781 H         7 CUB7        0.0000 
     89 N         -12.0564   12.6925  -36.8781 N.2       2 ALA2        0.0000 
     90 N         -12.3618   11.5573  -35.9464 N.2       2 ALA2        0.0000 
     91 DU        -12.6672   10.4221  -35.0148 H         7 CUB7        0.0000 
     92 DU        -12.9727    9.2869  -34.0831 H         7 CUB7        0.0000 
     93 CA        -13.2781    8.1517  -33.1514 C.3       6 GLY6        0.0000 
     94 CZ        -14.8052    2.4758  -28.4929 C.ar      5 PHE5        0.0000 
     95 DU        -15.1106    1.3406  -27.5612 H         7 CUB7        0.0000 
     96 OG        -13.4084   11.0580  -36.8979 O.2       1 SER1        0.0000 
     97 CA        -13.7139    9.9228  -35.9662 C.3       6 GLY6        0.0000 
     98 CA        -14.0193    8.7876  -35.0345 C.3       6 GLY6        0.0000 
     99 CA        -14.3247    7.6524  -34.1028 C.3       6 GLY6        0.0000 
    100 CZ        -15.8518    1.9764  -29.4444 C.ar      5 PHE5        0.0000 
    101 CA        -15.0659    8.2883  -35.9860 C.3       6 GLY6        0.0000 
    102 CZ         -5.2762    5.6386  -31.1754 C.ar      5 PHE5        0.0000 
    103 CZ         -5.5817    4.5034  -30.2437 C.ar      5 PHE5        0.0000 
    104 OD1        -5.4066    8.5449  -34.9220 O.3       3 ASP3        0.0000 
    105 CZ         -5.7120    7.4097  -33.9903 C.ar      5 PHE5        0.0000 
    106 CZ         -6.0174    6.2745  -33.0586 C.ar      5 PHE5        0.0000 
    107 CZ         -6.3228    5.1393  -32.1269 C.ar      5 PHE5        0.0000 
    108 O          -6.7586    6.9103  -34.9417 O.2       2 ALA2        0.0000 
    109 OG         -7.0640    5.7751  -34.0100 O.2       1 SER1        0.0000 
    110 CZ         -7.3695    4.6400  -33.0784 C.ar      5 PHE5        0.0000 
    111 CZ         -7.6749    3.5048  -32.1467 C.ar      5 PHE5        0.0000 
    112 OG         -8.4161    4.1406  -34.0298 O.2       1 SER1        0.0000 
    113 CZ         -8.7215    3.0054  -33.0981 C.ar      5 PHE5        0.0000 
    114 CZ         -9.0269    1.8702  -32.1664 C.ar      5 PHE5        0.0000 
    115 OG         -9.4627    3.6413  -34.9813 O.2       1 SER1        0.0000 
    116 CZ         -9.7681    2.5061  -34.0496 C.ar      5 PHE5        0.0000 
    117 CZ        -10.0735    1.3709  -33.1179 C.ar      5 PHE5        0.0000 
    118 NZ        -10.5093    3.1420  -35.9328 N.2       4 LYS4        0.0000 
    119 CZ        -10.8147    2.0068  -35.0011 C.ar      5 PHE5        0.0000 
    120 CZ         -3.6352    7.0652  -33.7292 C.ar      5 PHE5        0.0000 
    121 CZ         -3.9406    5.9300  -32.7975 C.ar      5 PHE5        0.0000 
    122 CZ         -4.9872    5.4307  -33.7490 C.ar      5 PHE5        0.0000 
    123 CZ         -6.3392    3.7961  -33.7688 C.ar      5 PHE5        0.0000 
    124 CA        -13.3592   15.0874  -31.9723 C.3       6 GLY6        0.0000 
    125 CA        -10.1055   12.3359  -27.0132 C.3       6 GLY6        0.0000 
    126 CZ        -10.4109   11.2007  -26.0815 C.ar      5 PHE5        0.0000 
    127 OG        -11.4575   10.7014  -27.0330 O.2       1 SER1        0.0000 
    128 CZ        -11.7629    9.5662  -26.1013 C.ar      5 PHE5        0.0000 
    129 CZ         -7.0148    9.8045  -29.0844 C.ar      5 PHE5        0.0000 
    130 OG         -7.3203    8.6693  -28.1527 O.2       1 SER1        0.0000 
    131 N          -9.1528    1.8581  -22.5626 N.2       2 ALA2        0.0000 
    132 CZ         -7.7560   10.4404  -30.9676 C.ar      5 PHE5        0.0000 
    133 CZ         -8.0614    9.3052  -30.0359 C.ar      5 PHE5        0.0000 
    134 OG         -8.3669    8.1700  -29.1042 O.2       1 SER1        0.0000 
    135 NZ         -8.6723    7.0348  -28.1725 N.2       4 LYS4        0.0000 
    136 NZ         -9.5885    3.6292  -25.3774 N.2       4 LYS4        0.0000 
    137 N          -9.8940    2.4940  -24.4458 N.2       2 ALA2        0.0000 
    138 N         -10.1994    1.3588  -23.5141 N.2       2 ALA2        0.0000 
    139 CZ         -8.8026    9.9411  -31.9191 C.ar      5 PHE5        0.0000 
    140 DU         -9.1081    8.8059  -30.9874 H         7 CUB7        0.0000 
    141 DU         -9.4135    7.6707  -30.0557 H         7 CUB7        0.0000 
    142 DU         -9.7189    6.5355  -29.1240 H         7 CUB7        0.0000 
    143 NZ        -10.0243    5.4003  -28.1923 N.2       4 LYS4        0.0000 
    144 NZ        -10.3297    4.2651  -27.2606 N.2       4 LYS4        0.0000 
    145 N         -10.6352    3.1299  -26.3289 N.2       2 ALA2        0.0000 
    146 N         -10.9406    1.9947  -25.3972 N.2       2 ALA2        0.0000 
    147 N         -11.2460    0.8595  -24.4655 N.2       2 ALA2        0.0000 
    148 N          -9.5438   10.5770  -33.8022 N.2       2 ALA2        0.0000 
    149 DU         -9.8492    9.4418  -32.8705 H         7 CUB7        0.0000 
    150 DU        -10.1547    8.3066  -31.9388 H         7 CUB7        0.0000 
    151 DU        -10.4601    7.1714  -31.0071 H         7 CUB7        0.0000 
    152 DU        -10.7655    6.0362  -30.0755 H         7 CUB7        0.0000 
    153 DU        -11.0709    4.9010  -29.1438 H         7 CUB7        0.0000 
    154 DU        -11.3763    3.7658  -28.2121 H         7 CUB7        0.0000 
    155 N         -11.6818    2.6306  -27.2804 N.2       2 ALA2        0.0000 
    156 N         -11.9872    1.4954  -26.3487 N.2       2 ALA2        0.0000 
    157 N         -12.2926    0.3602  -25.4170 N.2       2 ALA2        0.0000 
    158 N         -10.5904   10.0777  -34.7537 N.2       2 ALA2        0.0000 
    159 DU        -10.8958    8.9425  -33.8220 H         7 CUB7        0.0000 
    160 DU        -11.2013    7.8073  -32.8903 H         7 CUB7        0.0000 
    161 OG        -11.5067    6.6721  -31.9586 O.2       1 SER1        0.0000 
    162 OG        -11.8121    5.5369  -31.0269 O.2       1 SER1        0.0000 
    163 OG        -12.1175    4.4017  -30.0952 O.2       1 SER1        0.0000 
    164 OG        -12.4229    3.2665  -29.1635 O.2       1 SER1        0.0000 
    165 CA        -12.7284    2.1313  -28.2319 C.3       6 GLY6        0.0000 
    166 CA        -13.0338    0.9961  -27.3002 C.3       6 GLY6        0.0000 
    167 N         -13.3392   -0.1391  -26.3685 N.2       2 ALA2        0.0000 
    168 N         -11.0262   11.8487  -37.5685 N.2       2 ALA2        0.0000 
    169 N         -11.3316   10.7135  -36.6368 N.2       2 ALA2        0.0000 
    170 N         -11.6370    9.5783  -35.7052 N.2       2 ALA2        0.0000 
    171 DU        -11.9425    8.4431  -34.7735 H         7 CUB7        0.0000 
    172 DU        -12.2479    7.3079  -33.8418 H         7 CUB7        0.0000 
    173 OG        -12.5533    6.1727  -32.9101 O.2       1 SER1        0.0000 
    174 O         -13.7750    1.6320  -29.1833 O.2       2 ALA2        0.0000 
    175 O         -14.0804    0.4968  -28.2516 O.2       2 ALA2        0.0000 
    176 N         -12.3782   10.2142  -37.5883 N.2       2 ALA2        0.0000 
    177 N         -12.6836    9.0790  -36.6566 N.2       2 ALA2        0.0000 
    178 DU        -12.9891    7.9438  -35.7249 H         7 CUB7        0.0000 
    179 CA        -13.2945    6.8086  -34.7932 C.3       6 GLY6        0.0000 
    180 OG        -13.7303    8.5797  -37.6081 O.2       1 SER1        0.0000 
    181 CZ        -14.0357    7.4445  -36.6764 C.ar      5 PHE5        0.0000 
    182 NZ         -7.8171    2.1495  -24.1847 N.2       4 LYS4        0.0000 
    183 CZ         -7.3367    7.3262  -29.7946 C.ar      5 PHE5        0.0000 
    184 OG         -7.6421    6.1910  -28.8629 O.2       1 SER1        0.0000 
    185 NZ         -7.9475    5.0558  -27.9312 N.2       4 LYS4        0.0000 
    186 NZ         -8.2529    3.9206  -26.9995 N.2       4 LYS4        0.0000 
    187 N          -8.5583    2.7854  -26.0678 N.2       2 ALA2        0.0000 
    188 N          -7.4670   10.2325  -33.5412 N.2       2 ALA2        0.0000 
    189 CZ         -7.7724    9.0973  -32.6095 C.ar      5 PHE5        0.0000 
    190 CZ         -8.0778    7.9621  -31.6778 C.ar      5 PHE5        0.0000 
    191 CZ         -8.3833    6.8269  -30.7461 C.ar      5 PHE5        0.0000 
    192 DU         -8.6887    5.6917  -29.8144 H         7 CUB7        0.0000 
    193 DU         -8.9941    4.5565  -28.8827 H         7 CUB7        0.0000 
    194 N          -9.2995    3.4213  -27.9510 N.2       2 ALA2        0.0000 
    195 N          -8.5136    9.7332  -34.4926 N.2       2 ALA2        0.0000 
    196 DU         -8.8190    8.5980  -33.5609 H         7 CUB7        0.0000 
    197 DU         -9.1245    7.4628  -32.6292 H         7 CUB7        0.0000 
    198 DU         -9.4299    6.3276  -31.6975 H         7 CUB7        0.0000 
    199 DU         -9.7353    5.1924  -30.7659 H         7 CUB7        0.0000 
    200 DU        -10.0407    4.0572  -29.8342 H         7 CUB7        0.0000 
    201 N         -10.3461    2.9220  -28.9025 N.2       2 ALA2        0.0000 
    202 N          -9.5602    9.2338  -35.4441 N.2       2 ALA2        0.0000 
    203 NZ         -9.8656    8.0986  -34.5124 N.2       4 LYS4        0.0000 
    204 NZ        -10.1711    6.9634  -33.5807 N.2       4 LYS4        0.0000 
    205 DU        -10.4765    5.8283  -32.6490 H         7 CUB7        0.0000 
    206 OG        -10.7819    4.6931  -31.7173 O.2       1 SER1        0.0000 
    207 OG        -11.0873    3.5579  -30.7856 O.2       1 SER1        0.0000 
    208 CA        -11.3927    2.4227  -29.8539 C.3       6 GLY6        0.0000 
    209 CA        -11.6982    1.2875  -28.9223 C.3       6 GLY6        0.0000 
    210 N          -9.9960   11.0049  -38.2589 N.2       2 ALA2        0.0000 
    211 N         -10.3014    9.8697  -37.3273 N.2       2 ALA2        0.0000 
    212 NZ        -10.6068    8.7345  -36.3956 N.2       4 LYS4        0.0000 
    213 NZ        -10.9122    7.5993  -35.4639 N.2       4 LYS4        0.0000 
    214 NZ        -11.2177    6.4641  -34.5322 N.2       4 LYS4        0.0000 
    215 OG        -11.5231    5.3289  -33.6005 O.2       1 SER1        0.0000 
    216 OG        -12.4393    1.9233  -30.8054 O.2       1 SER1        0.0000 
    217 N         -11.6534    8.2352  -37.3470 N.2       2 ALA2        0.0000 
    218 NZ        -11.9589    7.1000  -36.4153 N.2       4 LYS4        0.0000 
    219 NZ        -12.2643    5.9648  -35.4837 N.2       4 LYS4        0.0000 
    220 OG        -12.5697    4.8296  -34.5520 O.2       1 SER1        0.0000 
    221 OG         -5.5653    5.8465  -28.6019 O.2       1 SER1        0.0000 
    222 CZ         -6.6119    5.3472  -29.5533 C.ar      5 PHE5        0.0000 
    223 O          -6.9173    4.2120  -28.6216 O.2       2 ALA2        0.0000 
    224 O          -7.2227    3.0768  -27.6899 O.2       2 ALA2        0.0000 
    225 N          -7.5281    1.9416  -26.7582 N.2       2 ALA2        0.0000 
    226 CZ         -6.4368    9.3887  -34.2316 C.ar      5 PHE5        0.0000 
    227 CZ         -7.0476    7.1183  -32.3682 C.ar      5 PHE5        0.0000 
    228 CZ         -7.3531    5.9831  -31.4365 C.ar      5 PHE5        0.0000 
    229 CZ         -7.6585    4.8479  -30.5048 C.ar      5 PHE5        0.0000 
    230 CZ         -7.9639    3.7127  -29.5731 C.ar      5 PHE5        0.0000 
    231 N          -8.2693    2.5775  -28.6414 N.2       2 ALA2        0.0000 
    232 N          -7.1780   10.0245  -36.1147 N.2       2 ALA2        0.0000 
    233 O          -7.4834    8.8894  -35.1830 O.2       2 ALA2        0.0000 
    234 NZ         -7.7888    7.7542  -34.2513 N.2       4 LYS4        0.0000 
    235 DU         -8.0942    6.6190  -33.3196 H         7 CUB7        0.0000 
    236 DU         -8.3997    5.4838  -32.3880 H         7 CUB7        0.0000 
    237 CZ         -8.7051    4.3486  -31.4563 C.ar      5 PHE5        0.0000 
    238 CZ         -9.0105    3.2134  -30.5246 C.ar      5 PHE5        0.0000 
    239 N          -9.3159    2.0782  -29.5929 N.2       2 ALA2        0.0000 
    240 N          -7.9192   10.6604  -37.9979 N.2       2 ALA2        0.0000 
    241 N          -8.2246    9.5252  -37.0662 N.2       2 ALA2        0.0000 
    242 NZ         -9.1408    6.1196  -34.2711 N.2       4 LYS4        0.0000 
    243 NZ         -9.4463    4.9844  -33.3394 N.2       4 LYS4        0.0000 
    244 DU         -9.7517    3.8492  -32.4077 H         7 CUB7        0.0000 
    245 DU        -10.0571    2.7141  -31.4760 H         7 CUB7        0.0000 
    246 CA        -10.3625    1.5789  -30.5444 C.3       6 GLY6        0.0000 
    247 N          -8.9658   10.1611  -38.9493 N.2       2 ALA2        0.0000 
    248 NZ         -9.2712    9.0259  -38.0177 N.2       4 LYS4        0.0000 
    249 NZ        -10.4929    4.4851  -34.2909 N.2       4 LYS4        0.0000 
    250 OG        -10.7983    3.3499  -33.3592 O.2       1 SER1        0.0000 
    251 OG        -11.1037    2.2147  -32.4275 O.2       1 SER1        0.0000 
    252 O         -11.4091    1.0795  -31.4958 O.2       2 ALA2        0.0000 
    253 NZ        -11.5395    3.9858  -35.2424 N.2       4 LYS4        0.0000 
    254 OG        -11.8449    2.8506  -34.3107 O.2       1 SER1        0.0000 
    255 OG        -12.1503    1.7154  -33.3790 O.2       1 SER1        0.0000 
    256 CA        -12.4557    0.5802  -32.4473 C.3       6 GLY6        0.0000 
    257 CZ        -12.5861    3.4865  -36.1938 C.ar      5 PHE5        0.0000 
    258 CZ        -12.8915    2.3513  -35.2621 C.ar      5 PHE5        0.0000 
@<TRIPOS>BOND
@<TRIPOS>SUBSTRUCTURE
     1 SER1        1 GROUP   
     2 ALA2        7 GROUP   
     3 ASP3      104 GROUP   
     4 LYS4       56 GROUP   
     5 PHE5        8 GROUP   
     6 GLY6        2 GROUP   
     7 CUB7       25 GROUP   
@<TRIPOS>SET

