#    Name: 4j4n_D44_1_INTS_M
#    Modification time : Tue Mar 25 05:22:04 2014

@<TRIPOS>MOLECULE
4j4n_D44_1_INTS_M
   35     0     9     0     0
SMALL
NO_CHARGES


@<TRIPOS>ATOM
      1 N          -9.4520   13.3920  -31.1450 N.am      2 SEC2        0.0000 
      2 N          -9.0660   11.8840  -30.5610 N.am      8 SEL2        0.0000 
      3 N          -9.8380   14.9000  -31.7290 N.am      5 SEP2        0.0000 
      4 CA        -13.6695    5.0900  -31.8025 C.3       3 GLC5        0.0000 
      5 CA        -11.9210    6.4070  -31.3740 C.3       9 GLL5        0.0000 
      6 CA        -15.4180    3.7730  -32.2310 C.3       6 GLP5        0.0000 
      7 CA         -9.9185   13.2225  -27.8905 C.3       3 GLC5        0.0000 
      8 CA         -9.1200   11.3560  -28.3000 C.3       9 GLL5        0.0000 
      9 CA        -10.7170   15.0890  -27.4810 C.3       6 GLP5        0.0000 
     10 CA         -7.6945   11.8300  -27.4260 C.3       3 GLC5        0.0000 
     11 CA         -6.2690   12.3040  -26.5520 C.3       6 GLP5        0.0000 
     12 CA         -6.9925    9.2130  -26.4270 C.3       3 GLC5        0.0000 
     13 CA         -8.7280   10.0240  -27.2170 C.3       9 GLL5        0.0000 
     14 CA         -5.2570    8.4020  -25.6370 C.3       6 GLP5        0.0000 
     15 CA         -7.2150   10.7925  -27.3880 C.3       3 GLC5        0.0000 
     16 CA         -5.7020   11.5610  -27.5590 C.3       6 GLP5        0.0000 
     17 O          -8.8675    7.0835  -26.0020 O.2       1 ALC1        0.0000 
     18 O          -9.9110    7.7310  -26.4940 O.2       7 ALL1        0.0000 
     19 O          -7.8240    6.4360  -25.5100 O.2       4 ALP1        0.0000 
     20 CA         -9.9775    6.8585  -24.9445 C.3       3 GLC5        0.0000 
     21 CA        -11.1510    7.2200  -26.5650 C.3       9 GLL5        0.0000 
     22 CA         -8.8040    6.4970  -23.3240 C.3       6 GLP5        0.0000 
     23 N         -11.9070    9.9055  -28.4650 N.am      2 SEC2        0.0000 
     24 N         -11.3030    9.2400  -27.4680 N.am      8 SEL2        0.0000 
     25 N         -12.5110   10.5710  -29.4620 N.am      5 SEP2        0.0000 
     26 CA         -7.2982   11.2682  -32.8640 C.3       3 GLC5        0.0000 
     27 CA         -8.4490    9.7780  -32.4150 C.3       9 GLL5        0.0000 
     28 CA         -6.1430   12.9820  -32.6490 C.3       6 GLP5        0.0000 
     29 CA         -9.2010   11.7360  -25.9853 C.3       3 GLC5        0.0000 
     30 CA         -9.4780   12.7820  -24.2120 C.3       6 GLP5        0.0000 
     31 CA        -14.8475    7.2415  -28.3230 C.3       3 GLC5        0.0000 
     32 CA        -13.3470    7.7570  -27.3190 C.3       9 GLL5        0.0000 
     33 CA        -16.1510    7.3550  -29.5530 C.3       6 GLP5        0.0000 
     34 CA        -13.8797    8.5315  -25.8970 C.3       3 GLC5        0.0000 
     35 CA        -14.9790    9.4330  -24.6680 C.3       6 GLP5        0.0000 
@<TRIPOS>BOND
@<TRIPOS>SUBSTRUCTURE
     1 ALC1       17 GROUP        1 X    ALC  0     ROOT ALC X 1
     2 SEC2        1 GROUP        1 X    SEC  0     **** SEC X 2
     3 GLC5        4 GROUP        1 X    GLC  0     **** GLC X 6
     4 ALP1       19 GROUP        1 Y    ALP  0     ROOT ALP Y 8
     5 SEP2        3 GROUP        1 Y    SEP  0     **** SEP Y 9
     6 GLP5        6 GROUP        1 Y    GLP  0     **** GLP Y 13
     7 ALL1       18 GROUP        1 Z    ALL  0     ROOT ALL Z 15
     8 SEL2        2 GROUP        1 Z    SEL  0     **** SEL Z 16
     9 GLL5        5 GROUP        1 Z    GLL  0     **** GLL Z 20
@<TRIPOS>SET

