#    Name: 4j4n_D44_1_ligand
#    Modification time : Tue Mar 25 05:22:04 2014

@<TRIPOS>MOLECULE
4j4n_D44_1_ligand
   38    40     1     0     0
SMALL
NO_CHARGES


@<TRIPOS>ATOM
      1 O1         -9.0660   11.8840  -30.5610 O.2       1 D44201      0.0000 
      2 C2         -9.1310   10.9730  -29.7580 C.2       1 D44201      0.0000 
      3 N3         -9.2290    9.6750  -30.0920 N.am      1 D44201      0.0000 
      4 C4         -9.2620    9.1960  -31.4270 C.ar      1 D44201      0.0000 
      5 C9         -8.4490    9.7780  -32.4150 C.ar      1 D44201      0.0000 
      6 C8         -8.4580    9.3310  -33.7430 C.ar      1 D44201      0.0000 
      7 C7         -9.2900    8.2770  -34.1050 C.ar      1 D44201      0.0000 
      8 C6        -10.1040    7.6880  -33.1360 C.ar      1 D44201      0.0000 
      9 C5        -10.0990    8.1310  -31.8000 C.ar      1 D44201      0.0000 
     10 C10       -11.0030    7.4550  -30.7730 C.3       1 D44201      0.0000 
     11 C11       -11.9210    6.4070  -31.3740 C.3       1 D44201      0.0000 
     12 C12        -9.1200   11.3560  -28.3000 C.3       1 D44201      0.0000 
     13 S13        -8.7280   10.0240  -27.2170 S.3       1 D44201      0.0000 
     14 C14       -10.0670    8.9380  -27.0480 C.2       1 D44201      0.0000 
     15 N18        -9.9110    7.7310  -26.4940 N.pl3     1 D44201      0.0000 
     16 C17       -11.1510    7.2200  -26.5650 C.ar      1 D44201      0.0000 
     17 N22       -11.5430    5.9950  -26.1350 N.ar      1 D44201      0.0000 
     18 C21       -12.8210    5.6320  -26.2800 C.ar      1 D44201      0.0000 
     19 C20       -13.7410    6.4990  -26.8670 C.ar      1 D44201      0.0000 
     20 C19       -13.3470    7.7570  -27.3190 C.ar      1 D44201      0.0000 
     21 C16       -12.0170    8.1320  -27.1590 C.ar      1 D44201      0.0000 
     22 N15       -11.3030    9.2400  -27.4680 N.2       1 D44201      0.0000 
     23 H          -9.2871    8.9379  -29.3308 H         1 D44201      0.0000 
     24 H          -7.8231   10.5633  -32.1507 H         1 D44201      0.0000 
     25 H          -7.8555    9.7796  -34.4373 H         1 D44201      0.0000 
     26 H          -9.3069    7.9361  -35.0681 H         1 D44201      0.0000 
     27 H         -10.7287    6.9055  -33.4016 H         1 D44201      0.0000 
     28 H         -11.6111    8.2250  -30.2726 H         1 D44201      0.0000 
     29 H         -10.3745    6.9855  -30.0000 H         1 D44201      0.0000 
     30 H         -10.0870   11.6901  -27.9410 H         1 D44201      0.0000 
     31 H          -8.3669   12.0985  -28.0613 H         1 D44201      0.0000 
     32 H          -9.1400    7.3404  -26.1462 H         1 D44201      0.0000 
     33 H         -13.1571    4.7003  -25.9604 H         1 D44201      0.0000 
     34 H         -14.7259    6.2057  -26.9681 H         1 D44201      0.0000 
     35 H         -14.0169    8.3853  -27.7554 H         1 D44201      0.0000 
     36 H         -11.4066    5.6729  -31.8172 H         1 D44201      0.0000 
     37 H         -12.5019    5.9806  -30.6807 H         1 D44201      0.0000 
     38 H         -12.5286    6.7980  -32.0654 H         1 D44201      0.0000 
@<TRIPOS>BOND
     1    2    1 2    
     2    3    2 am   
     3   12    2 1    
     4    4    3 1    
     5   23    3 1    
     6    5    4 ar   
     7    9    4 ar   
     8    6    5 ar   
     9   24    5 1    
    10    7    6 ar   
    11   25    6 1    
    12    8    7 ar   
    13   26    7 1    
    14    9    8 ar   
    15   27    8 1    
    16   10    9 1    
    17   11   10 1    
    18   28   10 1    
    19   29   10 1    
    20   36   11 1    
    21   37   11 1    
    22   38   11 1    
    23   13   12 1    
    24   30   12 1    
    25   31   12 1    
    26   14   13 1    
    27   15   14 1    
    28   22   14 2    
    29   16   15 1    
    30   32   15 1    
    31   17   16 ar   
    32   21   16 ar   
    33   18   17 ar   
    34   19   18 ar   
    35   33   18 1    
    36   20   19 ar   
    37   34   19 1    
    38   21   20 ar   
    39   35   20 1    
    40   22   21 1    
@<TRIPOS>SUBSTRUCTURE
     1 D44201      1 GROUP   
@<TRIPOS>SET

