#    Name: 2c27_MA8_1_INTS_M
#    Modification time : Mon Mar 24 22:17:01 2014

@<TRIPOS>MOLECULE
2c27_MA8_1_INTS_M
   57     0     9     0     0
SMALL
NO_CHARGES


@<TRIPOS>ATOM
      1 CA          6.2645    3.5085   16.8925 C.3       3 GLC5        0.0000 
      2 CA          4.4670    4.3460   17.3670 C.3       9 GLL5        0.0000 
      3 CA          8.0620    2.6710   16.4180 C.3       6 GLP5        0.0000 
      4 O           2.2065    8.8990   18.1730 O.2       1 ALC1        0.0000 
      5 O           1.7870    7.6600   17.4840 O.2       7 ALL1        0.0000 
      6 O           2.6260   10.1380   18.8620 O.2       4 ALP1        0.0000 
      7 CA          3.1650    8.3335   13.9995 C.3       3 GLC5        0.0000 
      8 CA          2.9160    6.6880   14.8690 C.3       9 GLL5        0.0000 
      9 CA          3.4140    9.9790   13.1300 C.3       6 GLP5        0.0000 
     10 CA          3.0005    6.3105   12.7925 C.3       3 GLC5        0.0000 
     11 CA          3.0850    5.9330   10.7160 C.3       6 GLP5        0.0000 
     12 CA          6.5405    4.3965   18.0625 C.3       3 GLC5        0.0000 
     13 CA          4.5930    5.3250   18.4850 C.3       9 GLL5        0.0000 
     14 CA          8.4880    3.4680   17.6400 C.3       6 GLP5        0.0000 
     15 CA          4.6925    0.9795   15.1035 C.3       3 GLC5        0.0000 
     16 CA          2.5330    1.1420   14.7810 C.3       9 GLL5        0.0000 
     17 CA          6.8520    0.8170   15.4260 C.3       6 GLP5        0.0000 
     18 O           4.9790    0.0250   18.8225 O.2       1 ALC1        0.0000 
     19 O           4.0820    0.8960   18.6970 O.2       7 ALL1        0.0000 
     20 O           5.8760   -0.8460   18.9480 O.2       4 ALP1        0.0000 
     21 N           1.8945   -2.4235   17.4460 N.am      2 SEC2        0.0000 
     22 N           2.8920   -1.4120   17.5700 N.am      8 SEL2        0.0000 
     23 N           0.8970   -3.4350   17.3220 N.am      5 SEP2        0.0000 
     24 O           3.9375   -2.0510   17.9085 O.2       1 ALC1        0.0000 
     25 O           2.8920   -1.4120   17.5700 O.2       7 ALL1        0.0000 
     26 O           4.9830   -2.6900   18.2470 O.2       4 ALP1        0.0000 
     27 CA          5.0310    0.2825   16.1180 C.3       3 GLC5        0.0000 
     28 CA          3.2100   -0.2520   16.8100 C.3       9 GLL5        0.0000 
     29 N           0.1940    1.4380   13.5210 N.am      2 SEC2        0.0000 
     30 N           1.6320    1.2280   13.6660 N.am      8 SEL2        0.0000 
     31 N          -1.2440    1.6480   13.3760 N.am      5 SEP2        0.0000 
     32 O           8.5190    3.6580   21.1010 O.2       1 ALC1        0.0000 
     33 O           7.1680    3.4020   21.8610 O.2       7 ALL1        0.0000 
     34 O           9.8700    3.9140   20.3410 O.2       4 ALP1        0.0000 
     35 O           7.4345    2.0470   21.0535 O.2       1 ALC1        0.0000 
     36 O           7.7010    0.6920   20.2460 O.2       4 ALP1        0.0000 
     37 CA          6.3390    6.3515   24.7945 C.3       3 GLC5        0.0000 
     38 CA          6.5520    5.4460   22.9840 C.3       9 GLL5        0.0000 
     39 CA          6.1260    7.2570   26.6050 C.3       6 GLP5        0.0000 
     40 CA          9.8600    6.0805   21.1245 C.3       3 GLC5        0.0000 
     41 CA          8.2770    6.0830   22.5000 C.3       9 GLL5        0.0000 
     42 CA         11.4430    6.0780   19.7490 C.3       6 GLP5        0.0000 
     43 CA          8.5845    6.3505   23.4860 C.3       3 GLC5        0.0000 
     44 CA          8.8920    6.6180   24.4720 C.3       6 GLP5        0.0000 
     45 CA          5.7875    5.7182   16.6325 C.3       3 GLC5        0.0000 
     46 CA          7.0450    6.6010   15.3390 C.3       6 GLP5        0.0000 
     47 CA          5.0109    6.5899   15.5853 C.3       3 GLC5        0.0000 
     48 CA          3.0080    5.9730   16.2030 C.3       9 GLL5        0.0000 
     49 CA          0.3902    0.2597   15.1733 C.3       3 GLC5        0.0000 
     50 CA         -1.6170    0.0250   15.1570 C.3       6 GLP5        0.0000 
     51 CA          5.2652    1.5593   16.8925 C.3       3 GLC5        0.0000 
     52 CA          3.0920    0.9950   17.6650 C.3       9 GLL5        0.0000 
     53 CA          7.2760    1.4870   16.5450 C.3       6 GLP5        0.0000 
     54 CA          2.2790   -0.1313   19.0237 C.3       3 GLC5        0.0000 
     55 CA          1.4070   -0.6340   20.8100 C.3       6 GLP5        0.0000 
     56 CA          7.6098    5.7680   23.4688 C.3       3 GLC5        0.0000 
     57 CA          6.1030    4.3900   21.9470 C.3       9 GLL5        0.0000 
@<TRIPOS>BOND
@<TRIPOS>SUBSTRUCTURE
     1 ALC1        4 GROUP        1 X    ALC  0     ROOT ALC X 1
     2 SEC2       21 GROUP        1 X    SEC  0     **** SEC X 2
     3 GLC5        1 GROUP        1 X    GLC  0     **** GLC X 6
     4 ALP1        6 GROUP        1 Y    ALP  0     ROOT ALP Y 8
     5 SEP2       23 GROUP        1 Y    SEP  0     **** SEP Y 9
     6 GLP5        3 GROUP        1 Y    GLP  0     **** GLP Y 13
     7 ALL1        5 GROUP        1 Z    ALL  0     ROOT ALL Z 15
     8 SEL2       22 GROUP        1 Z    SEL  0     **** SEL Z 16
     9 GLL5        2 GROUP        1 Z    GLL  0     **** GLL Z 20
@<TRIPOS>SET

