#    Name: 2c27_MA8_1_ligand
#    Modification time : Mon Mar 24 22:17:01 2014

@<TRIPOS>MOLECULE
2c27_MA8_1_ligand
   57    58     1     0     0
SMALL
NO_CHARGES


@<TRIPOS>ATOM
      1 O1          4.1480    5.0880   16.1410 O.3       1 MA81312     0.0000 
      2 C1          4.4670    4.3460   17.3670 C.3       1 MA81312     0.0000 
      3 C2          3.0670    6.9660   17.3850 C.3       1 MA81312     0.0000 
      4 C3          3.0080    5.9730   16.2030 C.3       1 MA81312     0.0000 
      5 O2          1.7870    7.6600   17.4840 O.3       1 MA81312     0.0000 
      6 O3          3.4340    7.0410   19.7510 O.3       1 MA81312     0.0000 
      7 O4          3.3840    3.4080   17.6430 O.3       1 MA81312     0.0000 
      8 N1          4.9370    4.5910   19.7550 N.am      1 MA81312     0.0000 
      9 C4          2.9160    6.6880   14.8690 C.3       1 MA81312     0.0000 
     10 C5          4.5930    5.3250   18.4850 C.3       1 MA81312     0.0000 
     11 C6          3.2890    6.1460   18.6520 C.3       1 MA81312     0.0000 
     12 O5          2.7430    5.7290   13.8590 O.3       1 MA81312     0.0000 
     13 C7          2.5330    1.1420   14.7810 C.3       1 MA81312     0.0000 
     14 C8          2.2620   -0.1530   15.5980 C.3       1 MA81312     0.0000 
     15 C9          3.4170    2.2680   16.8150 C.3       1 MA81312     0.0000 
     16 C10         2.4150    2.4040   15.6590 C.3       1 MA81312     0.0000 
     17 O6          4.0820    0.8960   18.6970 O.3       1 MA81312     0.0000 
     18 O7          2.8920   -1.4120   17.5700 O.3       1 MA81312     0.0000 
     19 O8          1.0650    2.5370   16.2560 O.3       1 MA81312     0.0000 
     20 O9          2.4820   -1.2660   14.7790 O.3       1 MA81312     0.0000 
     21 C11         3.2100   -0.2520   16.8100 C.3       1 MA81312     0.0000 
     22 C12         3.0920    0.9950   17.6650 C.3       1 MA81312     0.0000 
     23 O10         1.6320    1.2280   13.6660 O.3       1 MA81312     0.0000 
     24 C13         5.9360    5.0420   20.5610 C.2       1 MA81312     0.0000 
     25 O11         6.7830    5.7860   20.1020 O.2       1 MA81312     0.0000 
     26 C14         6.1030    4.3900   21.9470 C.3       1 MA81312     0.0000 
     27 N2          7.1680    3.4020   21.8610 N.4       1 MA81312     0.0000 
     28 C15         6.5520    5.4460   22.9840 C.3       1 MA81312     0.0000 
     29 S1          8.2770    6.0830   22.5000 S.3       1 MA81312     0.0000 
     30 H           5.3938    3.8255   17.2446 H         1 MA81312     0.0000 
     31 H           3.8725    7.6240   17.2414 H         1 MA81312     0.0000 
     32 H           2.0896    5.3805   16.3123 H         1 MA81312     0.0000 
     33 H           4.3820    3.7604   19.9545 H         1 MA81312     0.0000 
     34 H           3.8352    7.2696   14.7377 H         1 MA81312     0.0000 
     35 H           2.0772    7.3907   14.9238 H         1 MA81312     0.0000 
     36 H           5.3954    6.0212   18.2584 H         1 MA81312     0.0000 
     37 H           2.4803    5.4724   18.7758 H         1 MA81312     0.0000 
     38 H           3.5668    1.0864   14.4283 H         1 MA81312     0.0000 
     39 H           1.2546   -0.1097   15.9637 H         1 MA81312     0.0000 
     40 H           4.4013    2.1120   16.3855 H         1 MA81312     0.0000 
     41 H           2.6726    3.2584   15.0889 H         1 MA81312     0.0000 
     42 H           4.2219   -0.3037   16.4224 H         1 MA81312     0.0000 
     43 H           2.1183    1.0830   18.0506 H         1 MA81312     0.0000 
     44 H           5.1950    3.9622   22.2546 H         1 MA81312     0.0000 
     45 H           6.7488    5.0626   23.9398 H         1 MA81312     0.0000 
     46 H           6.0032    6.3391   22.9627 H         1 MA81312     0.0000 
     47 H           7.3185    2.9411   22.7355 H         1 MA81312     0.0000 
     48 H           6.9626    2.6922   21.1872 H         1 MA81312     0.0000 
     49 H           8.0382    3.8162   21.5944 H         1 MA81312     0.0000 
     50 H           1.9807    8.4856   18.0139 H         1 MA81312     0.0000 
     51 H           2.7177    6.7761   20.3966 H         1 MA81312     0.0000 
     52 H           3.6182    5.2482   13.8062 H         1 MA81312     0.0000 
     53 H           4.5956    0.0648   18.4839 H         1 MA81312     0.0000 
     54 H           3.6142   -2.0690   17.3537 H         1 MA81312     0.0000 
     55 H           0.6530    3.3211   15.7918 H         1 MA81312     0.0000 
     56 H           3.4118   -1.1503   14.4296 H         1 MA81312     0.0000 
     57 H           2.1401    1.7219   12.9604 H         1 MA81312     0.0000 
@<TRIPOS>BOND
     1    2    1 1    
     2    4    1 1    
     3    7    2 1    
     4   10    2 1    
     5   30    2 1    
     6    4    3 1    
     7    5    3 1    
     8   11    3 1    
     9   31    3 1    
    10    9    4 1    
    11   32    4 1    
    12   50    5 1    
    13   11    6 1    
    14   51    6 1    
    15   15    7 1    
    16   10    8 1    
    17   24    8 am   
    18   33    8 1    
    19   12    9 1    
    20   34    9 1    
    21   35    9 1    
    22   11   10 1    
    23   36   10 1    
    24   37   11 1    
    25   52   12 1    
    26   14   13 1    
    27   16   13 1    
    28   23   13 1    
    29   38   13 1    
    30   20   14 1    
    31   21   14 1    
    32   39   14 1    
    33   16   15 1    
    34   22   15 1    
    35   40   15 1    
    36   19   16 1    
    37   41   16 1    
    38   22   17 1    
    39   53   17 1    
    40   21   18 1    
    41   54   18 1    
    42   55   19 1    
    43   56   20 1    
    44   22   21 1    
    45   42   21 1    
    46   43   22 1    
    47   57   23 1    
    48   25   24 2    
    49   26   24 1    
    50   27   26 1    
    51   28   26 1    
    52   44   26 1    
    53   47   27 1    
    54   48   27 1    
    55   49   27 1    
    56   29   28 1    
    57   45   28 1    
    58   46   28 1    
@<TRIPOS>SUBSTRUCTURE
     1 MA81312     1 GROUP   
@<TRIPOS>SET

