#    Name: 2br5_SAH_5_INTS_M
#    Modification time : Mon Mar 24 21:29:55 2014

@<TRIPOS>MOLECULE
2br5_SAH_5_INTS_M
   57     0     9     0     0
SMALL
NO_CHARGES


@<TRIPOS>ATOM
      1 CA         58.2540   53.2050   88.1340 C.3       3 GLC5        0.0000 
      2 CA         56.6080   54.3250   87.8850 C.3       9 GLL5        0.0000 
      3 CA         59.9000   52.0850   88.3830 C.3       6 GLP5        0.0000 
      4 CA         56.0620   56.6490   88.8935 C.3       3 GLC5        0.0000 
      5 CA         55.3380   54.5920   88.6980 C.3       9 GLL5        0.0000 
      6 CA         56.7860   58.7060   89.0890 C.3       6 GLP5        0.0000 
      7 N          57.1835   57.1570   86.5205 N.am      2 SEC2        0.0000 
      8 N          56.4700   55.9150   86.0350 N.am      8 SEL2        0.0000 
      9 N          57.8970   58.3990   87.0060 N.am      5 SEP2        0.0000 
     10 N          54.9650   56.6110   86.0300 N.am      2 SEC2        0.0000 
     11 N          53.4600   57.3070   86.0250 N.am      5 SEP2        0.0000 
     12 N          54.1405   51.4220   95.6675 N.am      2 SEC2        0.0000 
     13 N          52.9910   52.3540   94.8910 N.am      8 SEL2        0.0000 
     14 N          55.2900   50.4900   96.4440 N.am      5 SEP2        0.0000 
     15 N          53.6895   50.9495   94.7165 N.am      2 SEC2        0.0000 
     16 N          54.3880   49.5450   94.5420 N.am      5 SEP2        0.0000 
     17 CA         48.4585   58.9215   94.5210 C.3       3 GLC5        0.0000 
     18 CA         48.5090   57.0530   94.6570 C.3       9 GLL5        0.0000 
     19 CA         48.4080   60.7900   94.3850 C.3       6 GLP5        0.0000 
     20 CA         47.7100   57.8780   92.9645 C.3       3 GLC5        0.0000 
     21 CA         46.9110   58.7030   91.2720 C.3       6 GLP5        0.0000 
     22 O          46.4425   57.6530   95.4195 O.2       1 ALC1        0.0000 
     23 O          47.2650   57.2260   94.2360 O.2       7 ALL1        0.0000 
     24 O          45.6200   58.0800   96.6030 O.2       4 ALP1        0.0000 
     25 N          48.3580   58.9435   96.1715 N.am      2 SEC2        0.0000 
     26 N          48.9840   57.8070   95.7030 N.am      8 SEL2        0.0000 
     27 N          47.7320   60.0800   96.6400 N.am      5 SEP2        0.0000 
     28 CA         52.1130   57.6040   97.1690 C.3       3 GLC5        0.0000 
     29 CA         50.2700   57.6610   96.1620 C.3       9 GLL5        0.0000 
     30 CA         53.9560   57.5470   98.1760 C.3       6 GLP5        0.0000 
     31 CA         49.9910   56.4605   97.4380 C.3       3 GLC5        0.0000 
     32 CA         49.7120   55.2600   98.7140 C.3       6 GLP5        0.0000 
     33 CA         48.9365   58.3110   97.4635 C.3       3 GLC5        0.0000 
     34 CA         47.6030   58.9610   98.7650 C.3       6 GLP5        0.0000 
     35 CA         50.2230   59.3885   95.3065 C.3       3 GLC5        0.0000 
     36 CA         50.1760   61.1160   94.4510 C.3       6 GLP5        0.0000 
     37 N          51.5085   56.5265   97.0915 N.am      2 SEC2        0.0000 
     38 N          51.0870   56.7360   95.5620 N.am      8 SEL2        0.0000 
     39 N          51.9300   56.3170   98.6210 N.am      5 SEP2        0.0000 
     40 CA         50.2580   55.0765   96.1140 C.3       3 GLC5        0.0000 
     41 CA         50.6380   55.9830   94.5330 C.3       9 GLL5        0.0000 
     42 CA         49.8780   54.1700   97.6950 C.3       6 GLP5        0.0000 
     43 CA         56.0490   52.4612   89.0312 C.3       3 GLC5        0.0000 
     44 CA         56.1250   50.4640   89.7710 C.3       6 GLP5        0.0000 
     45 CA         54.9892   51.9492   89.7080 C.3       3 GLC5        0.0000 
     46 CA         54.7310   53.3800   89.4080 C.3       9 GLL5        0.0000 
     47 CA         54.8360   56.1743   92.4970 C.3       3 GLC5        0.0000 
     48 CA         53.3440   54.8000   91.0650 C.3       9 GLL5        0.0000 
     49 CA         55.9120   57.6970   93.3080 C.3       6 GLP5        0.0000 
     50 CA         53.0050   56.3317   90.9940 C.3       3 GLC5        0.0000 
     51 CA         54.1760   54.5030   92.3070 C.3       9 GLL5        0.0000 
     52 CA         52.2500   58.0120   90.3020 C.3       6 GLP5        0.0000 
     53 CA         48.7540   55.1662   95.7070 C.3       3 GLC5        0.0000 
     54 CA         49.3450   56.1240   94.0590 C.3       9 GLL5        0.0000 
     55 CA         48.5810   53.7440   97.0560 C.3       6 GLP5        0.0000 
     56 CA         50.9027   57.2488   93.0085 C.3       3 GLC5        0.0000 
     57 CA         51.8140   58.4440   91.7210 C.3       6 GLP5        0.0000 
@<TRIPOS>BOND
@<TRIPOS>SUBSTRUCTURE
     1 ALC1       22 GROUP        1 X    ALC  0     ROOT ALC X 1
     2 SEC2        7 GROUP        1 X    SEC  0     **** SEC X 2
     3 GLC5        1 GROUP        1 X    GLC  0     **** GLC X 6
     4 ALP1       24 GROUP        1 Y    ALP  0     ROOT ALP Y 8
     5 SEP2        9 GROUP        1 Y    SEP  0     **** SEP Y 9
     6 GLP5        3 GROUP        1 Y    GLP  0     **** GLP Y 13
     7 ALL1       23 GROUP        1 Z    ALL  0     ROOT ALL Z 15
     8 SEL2        8 GROUP        1 Z    SEL  0     **** SEL Z 16
     9 GLL5        2 GROUP        1 Z    GLL  0     **** GLL Z 20
@<TRIPOS>SET

