#    Name: 2br5_SAH_5_ligand
#    Modification time : Mon Mar 24 21:29:55 2014

@<TRIPOS>MOLECULE
2br5_SAH_5_ligand
   46    48     1     0     0
SMALL
NO_CHARGES


@<TRIPOS>ATOM
      1 N          57.7410   55.0100   88.5190 N.4       1 SAH301      0.0000 
      2 CA         56.6080   54.3250   87.8850 C.3       1 SAH301      0.0000 
      3 CB         55.3380   54.5920   88.6980 C.3       1 SAH301      0.0000 
      4 CG         54.7310   53.3800   89.4080 C.3       1 SAH301      0.0000 
      5 SD         52.9760   53.4890   89.8820 S.3       1 SAH301      0.0000 
      6 C          56.3890   54.7420   86.4200 C.2       1 SAH301      0.0000 
      7 O          56.4700   55.9150   86.0350 O.co2     1 SAH301      0.0000 
      8 OXT        56.1050   53.9130   85.5490 O.co2     1 SAH301      0.0000 
      9 C5'        53.3440   54.8000   91.0650 C.3       1 SAH301      0.0000 
     10 C4'        54.1760   54.5030   92.3070 C.3       1 SAH301      0.0000 
     11 O4'        53.5690   55.3090   93.2790 O.3       1 SAH301      0.0000 
     12 C3'        54.1490   53.1140   92.9060 C.3       1 SAH301      0.0000 
     13 O3'        55.2520   52.9630   93.7620 O.3       1 SAH301      0.0000 
     14 C2'        52.8730   53.1030   93.7080 C.3       1 SAH301      0.0000 
     15 O2'        52.9910   52.3540   94.8910 O.3       1 SAH301      0.0000 
     16 C1'        52.6400   54.5700   94.0300 C.3       1 SAH301      0.0000 
     17 N9         51.2510   55.0170   93.7890 N.pl3     1 SAH301      0.0000 
     18 C8         50.3310   54.5690   92.8710 C.2       1 SAH301      0.0000 
     19 N7         49.1780   55.2550   93.0420 N.2       1 SAH301      0.0000 
     20 C5         49.3450   56.1240   94.0590 C.ar      1 SAH301      0.0000 
     21 C6         48.5090   57.0530   94.6570 C.ar      1 SAH301      0.0000 
     22 N6         47.2650   57.2260   94.2360 N.pl3     1 SAH301      0.0000 
     23 N1         48.9840   57.8070   95.7030 N.ar      1 SAH301      0.0000 
     24 C2         50.2700   57.6610   96.1620 C.ar      1 SAH301      0.0000 
     25 N3         51.0870   56.7360   95.5620 N.ar      1 SAH301      0.0000 
     26 C4         50.6380   55.9830   94.5330 C.ar      1 SAH301      0.0000 
     27 H          56.7742   53.2437   87.9016 H         1 SAH301      0.0000 
     28 H          54.5714   55.0305   88.0247 H         1 SAH301      0.0000 
     29 H          55.5593   55.3737   89.4552 H         1 SAH301      0.0000 
     30 H          55.2100   53.1589   90.3643 H         1 SAH301      0.0000 
     31 H          54.7444   52.4743   88.7977 H         1 SAH301      0.0000 
     32 H          52.3306   55.1779   91.3122 H         1 SAH301      0.0000 
     33 H          53.8081   55.5713   90.4165 H         1 SAH301      0.0000 
     34 H          55.1810   54.8253   92.1526 H         1 SAH301      0.0000 
     35 H          54.0865   52.4091   92.1373 H         1 SAH301      0.0000 
     36 H          52.0772   52.7834   93.0710 H         1 SAH301      0.0000 
     37 H          52.8676   54.6885   95.1071 H         1 SAH301      0.0000 
     38 H          50.4931   53.8801   92.2193 H         1 SAH301      0.0000 
     39 H          46.6072   57.5358   94.9225 H         1 SAH301      0.0000 
     40 H          47.0963   57.0311   93.2698 H         1 SAH301      0.0000 
     41 H          50.6140   58.2344   96.9409 H         1 SAH301      0.0000 
     42 H          58.5935   54.8591   88.0185 H         1 SAH301      0.0000 
     43 H          57.5989   55.9988   88.5645 H         1 SAH301      0.0000 
     44 H          57.8905   54.6920   89.4552 H         1 SAH301      0.0000 
     45 H          54.8586   52.8656   94.6762 H         1 SAH301      0.0000 
     46 H          52.3185   52.7501   95.5161 H         1 SAH301      0.0000 
@<TRIPOS>BOND
     1    2    1 1    
     2   42    1 1    
     3   43    1 1    
     4   44    1 1    
     5    3    2 1    
     6    6    2 1    
     7   27    2 1    
     8    4    3 1    
     9   28    3 1    
    10   29    3 1    
    11    5    4 1    
    12   30    4 1    
    13   31    4 1    
    14    9    5 1    
    15    7    6 ar   
    16    8    6 ar   
    17   10    9 1    
    18   32    9 1    
    19   33    9 1    
    20   11   10 1    
    21   12   10 1    
    22   34   10 1    
    23   16   11 1    
    24   13   12 1    
    25   14   12 1    
    26   35   12 1    
    27   45   13 1    
    28   15   14 1    
    29   16   14 1    
    30   36   14 1    
    31   46   15 1    
    32   17   16 1    
    33   37   16 1    
    34   18   17 1    
    35   26   17 1    
    36   19   18 2    
    37   38   18 1    
    38   20   19 1    
    39   21   20 ar   
    40   26   20 ar   
    41   22   21 1    
    42   23   21 ar   
    43   39   22 1    
    44   40   22 1    
    45   24   23 ar   
    46   25   24 ar   
    47   41   24 1    
    48   26   25 ar   
@<TRIPOS>SUBSTRUCTURE
     1 SAH301      1 GROUP   
@<TRIPOS>SET

