#    Name: 3olf_OLF_2_INTS_M
#    Modification time : Tue Mar 25 04:50:22 2014

@<TRIPOS>MOLECULE
3olf_OLF_2_INTS_M
  114     0    12     0     0
SMALL
NO_CHARGES


@<TRIPOS>ATOM
      1 N          11.8185   54.4305   40.0830 N.am      2 SEC2        0.0000 
      2 N          11.8650   54.0590   41.3520 N.am     10 SEL2        0.0000 
      3 N          11.7720   54.8020   38.8140 N.am      6 SEP2        0.0000 
      4 O          15.6285   53.6995   41.7690 O.2       1 ALC1        0.0000 
      5 O          15.8860   53.6770   43.2570 O.2       9 ALL1        0.0000 
      6 O          15.3710   53.7220   40.2810 O.2       5 ALP1        0.0000 
      7 CA         21.2930   53.7500   43.0640 C.3       4 GLC5        0.0000 
      8 CA         19.4920   52.9420   43.4620 C.3      12 GLL5        0.0000 
      9 CA         23.0940   54.5580   42.6660 C.3       8 GLP5        0.0000 
     10 NZ         20.7590   48.9765   41.3390 N.4       3 LYC4        0.0000 
     11 NZ         20.7980   49.7050   42.5850 N.4      11 LYL4        0.0000 
     12 NZ         20.9840   46.9460   40.1150 N.4       7 LYP4        0.0000 
     13 N          20.7590   48.9765   41.3390 N.am      2 SEC2        0.0000 
     14 N          20.7980   49.7050   42.5850 N.am     10 SEL2        0.0000 
     15 N          20.7200   48.2480   40.0930 N.am      6 SEP2        0.0000 
     16 CA         16.1400   51.6455   40.9410 C.3       4 GLC5        0.0000 
     17 CA         17.0990   51.6360   42.8580 C.3      12 GLL5        0.0000 
     18 CA         15.1810   51.6550   39.0240 C.3       8 GLP5        0.0000 
     19 CA         15.7745   57.1110   41.1445 C.3       4 GLC5        0.0000 
     20 CA         13.9640   56.8410   41.8440 C.3      12 GLL5        0.0000 
     21 CA         17.5850   57.3810   40.4450 C.3       8 GLP5        0.0000 
     22 CA         12.6130   47.5460   44.3645 C.3       4 GLC5        0.0000 
     23 CA         12.6660   49.3420   43.9540 C.3      12 GLL5        0.0000 
     24 CA         12.5600   45.7500   44.7750 C.3       8 GLP5        0.0000 
     25 CA         10.9225   48.5735   44.7055 C.3       4 GLC5        0.0000 
     26 CA          9.1790   47.8050   45.4570 C.3       8 GLP5        0.0000 
     27 CA         12.7725   48.1635   41.9025 C.3       4 GLC5        0.0000 
     28 CA         11.2370   49.2230   41.6490 C.3      12 GLL5        0.0000 
     29 CA         14.3080   47.1040   42.1560 C.3       8 GLP5        0.0000 
     30 CA         11.0380   48.3450   40.3605 C.3       4 GLC5        0.0000 
     31 CA         10.8390   47.4670   39.0720 C.3       8 GLP5        0.0000 
     32 CA         10.0475   48.0750   42.3995 C.3       4 GLC5        0.0000 
     33 CA          8.8580   46.9270   43.1500 C.3       8 GLP5        0.0000 
     34 CA         10.3235   59.9310   42.0220 C.3       4 GLC5        0.0000 
     35 CA         11.7580   58.5060   42.2350 C.3      12 GLL5        0.0000 
     36 CA          8.8890   61.3560   41.8090 C.3       8 GLP5        0.0000 
     37 CA         14.1010   60.6905   43.9645 C.3       4 GLC5        0.0000 
     38 CA         13.1950   60.7540   41.9630 C.3      12 GLL5        0.0000 
     39 CA         15.0070   60.6270   45.9660 C.3       8 GLP5        0.0000 
     40 CA         15.1025   59.8910   41.2985 C.3       4 GLC5        0.0000 
     41 CA         17.0100   59.0280   40.6340 C.3       8 GLP5        0.0000 
     42 CA         13.5710   60.2870   40.1335 C.3       4 GLC5        0.0000 
     43 CA         13.9470   59.8200   38.3040 C.3       8 GLP5        0.0000 
     44 CA         11.0420   61.0550   41.8860 C.3       4 GLC5        0.0000 
     45 CA         12.0435   62.1510   41.0325 C.3       4 GLC5        0.0000 
     46 CA         10.8920   63.5480   40.1020 C.3       8 GLP5        0.0000 
     47 CA         14.3675   62.1770   43.0905 C.3       4 GLC5        0.0000 
     48 CA         15.5400   63.6000   44.2180 C.3       8 GLP5        0.0000 
     49 CA         12.1665   60.9105   43.7260 C.3       4 GLC5        0.0000 
     50 CA         11.1380   61.0670   45.4890 C.3       8 GLP5        0.0000 
     51 CA         17.0390   56.7100   44.5285 C.3       4 GLC5        0.0000 
     52 CA         18.3400   55.0950   43.9050 C.3      12 GLL5        0.0000 
     53 CA         15.7380   58.3250   45.1520 C.3       8 GLP5        0.0000 
     54 CA         19.7745   56.2545   44.4975 C.3       4 GLC5        0.0000 
     55 CA         21.2090   57.4140   45.0900 C.3       8 GLP5        0.0000 
     56 CA         17.9625   56.2380   42.1750 C.3       4 GLC5        0.0000 
     57 CA         11.5720   52.3520   46.3910 C.3       4 GLC5        0.0000 
     58 CA         11.7470   54.2450   45.5960 C.3      12 GLL5        0.0000 
     59 CA         11.3970   50.4590   47.1860 C.3       8 GLP5        0.0000 
     60 CA         15.1100   56.4015   47.5385 C.3       4 GLC5        0.0000 
     61 CA         13.8280   54.9650   46.8460 C.3      12 GLL5        0.0000 
     62 CA         16.3920   57.8380   48.2310 C.3       8 GLP5        0.0000 
     63 CA         14.1520   57.2020   47.7745 C.3       4 GLC5        0.0000 
     64 CA         12.9610   55.6230   47.9180 C.3      12 GLL5        0.0000 
     65 CA         15.3430   58.7810   47.6310 C.3       8 GLP5        0.0000 
     66 CA         10.8815   56.2620   49.5920 C.3       4 GLC5        0.0000 
     67 CA         11.5840   54.9520   48.0000 C.3      12 GLL5        0.0000 
     68 CA         10.1790   57.5720   51.1840 C.3       8 GLP5        0.0000 
     69 CA         13.9940   51.3582   44.5035 C.3       4 GLC5        0.0000 
     70 CA         12.6980   52.8200   43.0070 C.3      12 GLL5        0.0000 
     71 CA         15.1740   50.4750   45.6400 C.3       8 GLP5        0.0000 
     72 CA         10.5255   52.0680   43.0692 C.3       4 GLC5        0.0000 
     73 CA         11.9340   52.7920   41.8180 C.3      12 GLL5        0.0000 
     74 CA          8.7350   51.3300   43.7260 C.3       8 GLP5        0.0000 
     75 CA         14.6100   56.5823   45.0228 C.3       4 GLC5        0.0000 
     76 CA         13.8930   54.6720   44.2680 C.3      12 GLL5        0.0000 
     77 CA         13.2495   52.6142   40.5874 C.3       4 GLC5        0.0000 
     78 CA         11.4500   51.5650   41.3430 C.3      12 GLL5        0.0000 
     79 CA         14.6160   53.0430   39.2970 C.3       8 GLP5        0.0000 
     80 CA         10.9718   49.8847   40.0688 C.3       4 GLC5        0.0000 
     81 CA         10.3610   48.7780   38.4330 C.3       8 GLP5        0.0000 
     82 CA         13.8655   50.1903   44.6210 C.3       4 GLC5        0.0000 
     83 CA         12.4480   50.4690   43.2500 C.3      12 GLL5        0.0000 
     84 CA         10.8935   57.3317   40.8042 C.3       4 GLC5        0.0000 
     85 CA         12.6960   56.2940   42.0640 C.3      12 GLL5        0.0000 
     86 CA          9.6410   57.9510   39.4400 C.3       8 GLP5        0.0000 
     87 CA         19.4545   50.8570   41.1145 C.3       4 GLC5        0.0000 
     88 CA         19.5020   51.5900   43.0930 C.3      12 GLL5        0.0000 
     89 CA         20.0110   50.4490   39.2810 C.3       8 GLP5        0.0000 
     90 CA         18.6550   54.2512   45.4852 C.3       4 GLC5        0.0000 
     91 CA         18.3040   53.6440   43.5040 C.3      12 GLL5        0.0000 
     92 CA         18.9880   54.1330   47.2660 C.3       8 GLP5        0.0000 
     93 CA         17.6762   49.6993   42.3910 C.3       4 GLC5        0.0000 
     94 CA         17.3540   47.9480   41.8790 C.3       8 GLP5        0.0000 
     95 CA         16.4356   51.0505   44.2804 C.3       4 GLC5        0.0000 
     96 CA         18.2940   50.9400   42.8030 C.3      12 GLL5        0.0000 
     97 CA         12.0373   50.3315   45.4536 C.3       4 GLC5        0.0000 
     98 CA         12.9300   51.6630   43.7270 C.3      12 GLL5        0.0000 
     99 CA         13.3409   48.4984   42.7310 C.3       4 GLC5        0.0000 
    100 CA         10.7063   50.7670   43.7236 C.3       4 GLC5        0.0000 
    101 CA         10.0724   50.7186   42.7014 C.3       4 GLC5        0.0000 
    102 CA         14.6320   58.3047   43.5334 C.3       4 GLC5        0.0000 
    103 CA         15.2873   58.8282   41.2715 C.3       4 GLC5        0.0000 
    104 CA         14.1180   58.2170   41.8210 C.3      12 GLL5        0.0000 
    105 CA         11.0128   58.3620   40.7780 C.3       4 GLC5        0.0000 
    106 CA         13.0110   59.0400   41.9970 C.3      12 GLL5        0.0000 
    107 CA          9.7973   53.4678   45.4458 C.3       4 GLC5        0.0000 
    108 CA          8.2930   52.3620   44.7670 C.3       8 GLP5        0.0000 
    109 CA         14.3402   54.5385   49.1050 C.3       4 GLC5        0.0000 
    110 CA         15.2860   53.7830   50.8280 C.3       8 GLP5        0.0000 
    111 CA          9.5320   56.0530   47.4892 C.3       4 GLC5        0.0000 
    112 CA          7.8440   57.1790   47.6520 C.3       8 GLP5        0.0000 
    113 CA         18.4926   51.4790   44.7981 C.3       4 GLC5        0.0000 
    114 CA         18.3880   51.0120   46.4970 C.3       8 GLP5        0.0000 
@<TRIPOS>BOND
@<TRIPOS>SUBSTRUCTURE
     1 ALC1        4 GROUP        1 X    ALC  0     ROOT ALC X 1
     2 SEC2        1 GROUP        1 X    SEC  0     **** SEC X 2
     3 LYC4       10 GROUP        1 X    LYC  0     **** LYC X 4
     4 GLC5        7 GROUP        1 X    GLC  0     **** GLC X 6
     5 ALP1        6 GROUP        1 Y    ALP  0     ROOT ALP Y 8
     6 SEP2        3 GROUP        1 Y    SEP  0     **** SEP Y 9
     7 LYP4       12 GROUP        1 Y    LYP  0     **** LYP Y 11
     8 GLP5        9 GROUP        1 Y    GLP  0     **** GLP Y 13
     9 ALL1        5 GROUP        1 Z    ALL  0     ROOT ALL Z 15
    10 SEL2        2 GROUP        1 Z    SEL  0     **** SEL Z 16
    11 LYL4       11 GROUP        1 Z    LYL  0     **** LYL Z 18
    12 GLL5        8 GROUP        1 Z    GLL  0     **** GLL Z 20
@<TRIPOS>SET

