#    Name: 3olf_OLF_2_ligand
#    Modification time : Tue Mar 25 04:50:22 2014

@<TRIPOS>MOLECULE
3olf_OLF_2_ligand
   63    67     1     0     0
SMALL
NO_CHARGES


@<TRIPOS>ATOM
      1 N1         13.0580   54.1230   43.1970 N.pl3     1 OLF2        0.0000 
      2 C2         12.5340   54.8430   42.1650 C.2       1 OLF2        0.0000 
      3 N3         11.8650   54.0590   41.3520 N.2       1 OLF2        0.0000 
      4 C4         12.6980   52.8200   43.0070 C.ar      1 OLF2        0.0000 
      5 C5         11.9340   52.7920   41.8180 C.ar      1 OLF2        0.0000 
      6 C6         15.2000   53.9100   44.4070 C.2       1 OLF2        0.0000 
      7 C7         13.8930   54.6720   44.2680 C.3       1 OLF2        0.0000 
      8 C8         12.9300   51.6630   43.7270 C.ar      1 OLF2        0.0000 
      9 N9         15.8860   53.6770   43.2570 N.am      1 OLF2        0.0000 
     10 C10        11.4500   51.5650   41.3430 C.ar      1 OLF2        0.0000 
     11 C11        12.4480   50.4690   43.2500 C.ar      1 OLF2        0.0000 
     12 C12        17.1020   52.9880   43.2190 C.ar      1 OLF2        0.0000 
     13 C13        20.7720   50.8430   43.0130 C.2       1 OLF2        0.0000 
     14 C14        12.6960   56.2940   42.0640 C.ar      1 OLF2        0.0000 
     15 C15        11.7150   50.4180   42.0660 C.ar      1 OLF2        0.0000 
     16 C16        19.5020   51.5900   43.0930 C.ar      1 OLF2        0.0000 
     17 C17        19.4920   52.9420   43.4620 C.ar      1 OLF2        0.0000 
     18 C18        18.3040   53.6440   43.5040 C.ar      1 OLF2        0.0000 
     19 O19        15.6420   53.5550   45.4910 O.2       1 OLF2        0.0000 
     20 O20        20.7980   49.7050   42.5850 O.co2     1 OLF2        0.0000 
     21 C21        17.0990   51.6360   42.8580 C.ar      1 OLF2        0.0000 
     22 C22        18.2940   50.9400   42.8030 C.ar      1 OLF2        0.0000 
     23 C23        13.0710   55.0070   45.5190 C.3       1 OLF2        0.0000 
     24 C24        11.5960   57.1310   42.2730 C.ar      1 OLF2        0.0000 
     25 C25        13.9640   56.8410   41.8440 C.ar      1 OLF2        0.0000 
     26 F26        12.6660   49.3420   43.9540 F         1 OLF2        0.0000 
     27 F27        11.2370   49.2230   41.6490 F         1 OLF2        0.0000 
     28 O28        21.9180   51.4220   43.3950 O.co2     1 OLF2        0.0000 
     29 C29        13.0110   59.0400   41.9970 C.ar      1 OLF2        0.0000 
     30 C30        11.7580   58.5060   42.2350 C.ar      1 OLF2        0.0000 
     31 C31        14.1180   58.2170   41.8210 C.ar      1 OLF2        0.0000 
     32 CL32       13.1950   60.7540   41.9630 Cl        1 OLF2        0.0000 
     33 C33        18.3400   55.0950   43.9050 C.3       1 OLF2        0.0000 
     34 C34        11.7470   54.2450   45.5960 C.3       1 OLF2        0.0000 
     35 C35        13.8280   54.9650   46.8460 C.3       1 OLF2        0.0000 
     36 C36        12.9610   55.6230   47.9180 C.3       1 OLF2        0.0000 
     37 C37        10.8560   54.9020   46.6530 C.3       1 OLF2        0.0000 
     38 C38        11.5840   54.9520   48.0000 C.3       1 OLF2        0.0000 
     39 H          14.2166   55.7242   43.8548 H         1 OLF2        0.0000 
     40 H          13.4570   51.7004   44.6077 H         1 OLF2        0.0000 
     41 H          15.4962   54.0258   42.3417 H         1 OLF2        0.0000 
     42 H          10.9120   51.5295   40.4769 H         1 OLF2        0.0000 
     43 H          20.3803   53.4058   43.7014 H         1 OLF2        0.0000 
     44 H          16.2130   51.1699   42.6368 H         1 OLF2        0.0000 
     45 H          18.3044   49.9431   42.5495 H         1 OLF2        0.0000 
     46 H          12.7583   56.1087   45.3894 H         1 OLF2        0.0000 
     47 H          10.6716   56.7214   42.4540 H         1 OLF2        0.0000 
     48 H          14.7688   56.2235   41.7016 H         1 OLF2        0.0000 
     49 H          10.9509   59.1249   42.3830 H         1 OLF2        0.0000 
     50 H          15.0473   58.6316   41.6744 H         1 OLF2        0.0000 
     51 H          11.9383   53.2190   45.8753 H         1 OLF2        0.0000 
     52 H          11.2532   54.2841   44.6359 H         1 OLF2        0.0000 
     53 H          14.7546   55.5087   46.7487 H         1 OLF2        0.0000 
     54 H          14.0200   53.9390   47.1181 H         1 OLF2        0.0000 
     55 H          12.8299   56.6772   47.6789 H         1 OLF2        0.0000 
     56 H          13.4562   55.5391   48.8841 H         1 OLF2        0.0000 
     57 H           9.9424   54.3264   46.7608 H         1 OLF2        0.0000 
     58 H          10.6123   55.9120   46.3399 H         1 OLF2        0.0000 
     59 H          10.9635   55.4992   48.7217 H         1 OLF2        0.0000 
     60 H          11.7084   53.9286   48.3775 H         1 OLF2        0.0000 
     61 H          19.2741   55.4116   44.0702 H         1 OLF2        0.0000 
     62 H          17.9512   55.6855   43.1978 H         1 OLF2        0.0000 
     63 H          17.8214   55.2615   44.7437 H         1 OLF2        0.0000 
@<TRIPOS>BOND
     1    2    1 1    
     2    4    1 1    
     3    7    1 1    
     4    3    2 2    
     5   14    2 1    
     6    5    3 1    
     7    5    4 ar   
     8    8    4 ar   
     9   10    5 ar   
    10    7    6 1    
    11    9    6 am   
    12   19    6 2    
    13   23    7 1    
    14   39    7 1    
    15   11    8 ar   
    16   40    8 1    
    17   12    9 1    
    18   41    9 1    
    19   15   10 ar   
    20   42   10 1    
    21   15   11 ar   
    22   26   11 1    
    23   18   12 ar   
    24   21   12 ar   
    25   16   13 1    
    26   20   13 ar   
    27   28   13 ar   
    28   24   14 ar   
    29   25   14 ar   
    30   27   15 1    
    31   17   16 ar   
    32   22   16 ar   
    33   18   17 ar   
    34   43   17 1    
    35   33   18 1    
    36   22   21 ar   
    37   44   21 1    
    38   45   22 1    
    39   34   23 1    
    40   35   23 1    
    41   46   23 1    
    42   30   24 ar   
    43   47   24 1    
    44   31   25 ar   
    45   48   25 1    
    46   30   29 ar   
    47   31   29 ar   
    48   32   29 1    
    49   49   30 1    
    50   50   31 1    
    51   61   33 1    
    52   62   33 1    
    53   63   33 1    
    54   37   34 1    
    55   51   34 1    
    56   52   34 1    
    57   36   35 1    
    58   53   35 1    
    59   54   35 1    
    60   38   36 1    
    61   55   36 1    
    62   56   36 1    
    63   38   37 1    
    64   57   37 1    
    65   58   37 1    
    66   59   38 1    
    67   60   38 1    
@<TRIPOS>SUBSTRUCTURE
     1 OLF2        1 GROUP   
@<TRIPOS>SET

