#    Name: 1nus_APC_2_INTS_M
#    Modification time : Mon Mar 24 18:55:42 2014

@<TRIPOS>MOLECULE
1nus_APC_2_INTS_M
   68     0    12     0     0
SMALL
NO_CHARGES


@<TRIPOS>ATOM
      1 NZ         10.1015    2.8985   14.2830 N.4       3 LYC4        0.0000 
      2 NZ         11.2270    3.6340   14.5280 N.4      11 LYL4        0.0000 
      3 NZ          8.9760    2.1630   14.0380 N.4       7 LYP4        0.0000 
      4 N          10.1015    2.8985   14.2830 N.am      2 SEC2        0.0000 
      5 N          11.2270    3.6340   14.5280 N.am     10 SEL2        0.0000 
      6 N           8.9760    2.1630   14.0380 N.am      6 SEP2        0.0000 
      7 N          13.7535    2.9120   11.5275 N.am      2 SEC2        0.0000 
      8 N          12.6930    3.0410   12.5320 N.am     10 SEL2        0.0000 
      9 N          14.8140    2.7830   10.5230 N.am      6 SEP2        0.0000 
     10 N          13.2440    1.9235   12.4855 N.am      2 SEC2        0.0000 
     11 N          13.7950    0.8060   12.4390 N.am      6 SEP2        0.0000 
     12 NZ         13.9255    3.1830   15.7195 N.4       3 LYC4        0.0000 
     13 NZ         13.6880    4.1510   14.5590 N.4      11 LYL4        0.0000 
     14 NZ         14.1630    2.2150   16.8800 N.4       7 LYP4        0.0000 
     15 N          15.3110    4.0445   13.9810 N.am      2 SEC2        0.0000 
     16 N          13.6880    4.1510   14.5590 N.am     10 SEL2        0.0000 
     17 N          16.9340    3.9380   13.4030 N.am      6 SEP2        0.0000 
     18 NZ          9.3150    3.7220   13.3610 N.4       3 LYC4        0.0000 
     19 NZ          9.6540    5.2810   12.6840 N.4      11 LYL4        0.0000 
     20 N           9.3150    3.7220   13.3610 N.am      2 SEC2        0.0000 
     21 N           9.6540    5.2810   12.6840 N.am     10 SEL2        0.0000 
     22 N          11.9865    8.9460   17.5200 N.am      2 SEC2        0.0000 
     23 N          10.9190    8.3110   16.7920 N.am     10 SEL2        0.0000 
     24 N          13.0540    9.5810   18.2480 N.am      6 SEP2        0.0000 
     25 N          13.5345    9.4195   15.2905 N.am      2 SEC2        0.0000 
     26 N          12.2960    8.5800   14.6690 N.am     10 SEL2        0.0000 
     27 N          14.7730   10.2590   15.9120 N.am      6 SEP2        0.0000 
     28 CA         10.3920   10.7130   17.0960 C.3       4 GLC5        0.0000 
     29 CA          9.5320   10.4440   15.2100 C.3      12 GLL5        0.0000 
     30 CA         11.2520   10.9820   18.9820 C.3       8 GLP5        0.0000 
     31 CA         10.5695   12.2350   15.4295 C.3       4 GLC5        0.0000 
     32 CA         11.6070   14.0260   15.6490 C.3       8 GLP5        0.0000 
     33 CA          7.7445   12.7660   13.8105 C.3       4 GLC5        0.0000 
     34 CA          8.1770   11.0060   14.7130 C.3      12 GLL5        0.0000 
     35 CA          7.3120   14.5260   12.9080 C.3       8 GLP5        0.0000 
     36 CA          5.6320    9.2690   16.3715 C.3       4 GLC5        0.0000 
     37 CA          7.0120   10.0990   15.1420 C.3      12 GLL5        0.0000 
     38 CA          4.2520    8.4390   17.6010 C.3       8 GLP5        0.0000 
     39 N           4.5575   10.9440   14.7765 N.am      2 SEC2        0.0000 
     40 N           5.8710   10.9000   15.4590 N.am     10 SEL2        0.0000 
     41 N           3.2440   10.9880   14.0940 N.am      6 SEP2        0.0000 
     42 N           4.2900    9.9435   14.0030 N.am      2 SEC2        0.0000 
     43 N           5.3360    8.8990   13.9120 N.am     10 SEL2        0.0000 
     44 N           4.3715    7.8805   13.6745 N.am      2 SEC2        0.0000 
     45 N           3.4070    6.8620   13.4370 N.am      6 SEP2        0.0000 
     46 CA          8.9515   10.5355   12.1140 C.3       4 GLC5        0.0000 
     47 CA          7.0110   10.2160   12.7890 C.3      12 GLL5        0.0000 
     48 CA         10.8920   10.8550   11.4390 C.3       8 GLP5        0.0000 
     49 CA          6.4435   11.9180   12.5480 C.3       4 GLC5        0.0000 
     50 CA          5.8760   13.6200   12.3070 C.3       8 GLP5        0.0000 
     51 O           6.9760    7.9560    5.6840 O.2       1 ALC1        0.0000 
     52 O           7.3310    8.1460    7.1610 O.2       9 ALL1        0.0000 
     53 O           6.6210    7.7660    4.2070 O.2       5 ALP1        0.0000 
     54 CA          3.2320   11.6745    8.5310 C.3       4 GLC5        0.0000 
     55 CA          4.8180   10.1300    8.8880 C.3      12 GLL5        0.0000 
     56 CA          1.6460   13.2190    8.1740 C.3       8 GLP5        0.0000 
     57 CA          4.1335    8.6505    9.5880 C.3       4 GLC5        0.0000 
     58 CA          3.4490    7.1710   10.2880 C.3       8 GLP5        0.0000 
     59 CA          6.2115   11.6125   11.3480 C.3       4 GLC5        0.0000 
     60 CA          6.5470    9.6050   10.3890 C.3      12 GLL5        0.0000 
     61 CA          9.8732   10.7900   13.2003 C.3       4 GLC5        0.0000 
     62 CA          4.7342    9.9725   13.2063 C.3       4 GLC5        0.0000 
     63 CA          2.6020   10.2080   13.0540 C.3       8 GLP5        0.0000 
     64 CA          8.2058    9.6600    7.3980 C.3       4 GLC5        0.0000 
     65 CA          7.2210    8.8830    9.4020 C.3      12 GLL5        0.0000 
     66 CA          9.4640   10.4800    6.0330 C.3       8 GLP5        0.0000 
     67 CA          5.0981    8.1967    9.9320 C.3       4 GLC5        0.0000 
     68 CA          6.6740    8.7970    8.1240 C.3      12 GLL5        0.0000 
@<TRIPOS>BOND
@<TRIPOS>SUBSTRUCTURE
     1 ALC1       51 GROUP        1 X    ALC  0     ROOT ALC X 1
     2 SEC2        4 GROUP        1 X    SEC  0     **** SEC X 2
     3 LYC4        1 GROUP        1 X    LYC  0     **** LYC X 4
     4 GLC5       28 GROUP        1 X    GLC  0     **** GLC X 6
     5 ALP1       53 GROUP        1 Y    ALP  0     ROOT ALP Y 8
     6 SEP2        6 GROUP        1 Y    SEP  0     **** SEP Y 9
     7 LYP4        3 GROUP        1 Y    LYP  0     **** LYP Y 11
     8 GLP5       30 GROUP        1 Y    GLP  0     **** GLP Y 13
     9 ALL1       52 GROUP        1 Z    ALL  0     ROOT ALL Z 15
    10 SEL2        5 GROUP        1 Z    SEL  0     **** SEL Z 16
    11 LYL4        2 GROUP        1 Z    LYL  0     **** LYL Z 18
    12 GLL5       29 GROUP        1 Z    GLL  0     **** GLL Z 20
@<TRIPOS>SET

