#    Name: 1nus_APC_2_ligand
#    Modification time : Mon Mar 24 18:55:42 2014

@<TRIPOS>MOLECULE
1nus_APC_2_ligand
   45    47     1     0     0
SMALL
NO_CHARGES


@<TRIPOS>ATOM
      1 PG         12.3640    3.9750   13.6410 P.3       1 APC501      0.0000 
      2 O1G        11.2270    3.6340   14.5280 O.co2     1 APC501      0.0000 
      3 O2G        12.6930    3.0410   12.5320 O.co2     1 APC501      0.0000 
      4 O3G        13.6880    4.1510   14.5590 O.co2     1 APC501      0.0000 
      5 PB         10.7110    6.2330   13.0980 P.3       1 APC501      0.0000 
      6 O1B        10.8440    7.4970   12.3320 O.co2     1 APC501      0.0000 
      7 O2B         9.6540    5.2810   12.6840 O.co2     1 APC501      0.0000 
      8 O3B        12.1540    5.4730   13.0330 O.3       1 APC501      0.0000 
      9 PA         11.0040    8.2340   15.3090 P.3       1 APC501      0.0000 
     10 O1A        10.9190    8.3110   16.7920 O.co2     1 APC501      0.0000 
     11 O2A        12.2960    8.5800   14.6690 O.co2     1 APC501      0.0000 
     12 C3A        10.5220    6.5700   14.8550 C.3       1 APC501      0.0000 
     13 O5'         9.8130    9.1370   14.6720 O.3       1 APC501      0.0000 
     14 C5'         9.5320   10.4440   15.2100 C.3       1 APC501      0.0000 
     15 C4'         8.1770   11.0060   14.7130 C.3       1 APC501      0.0000 
     16 O4'         8.1590   11.0080   13.2410 O.3       1 APC501      0.0000 
     17 C3'         7.0120   10.0990   15.1420 C.3       1 APC501      0.0000 
     18 O3'         5.8710   10.9000   15.4590 O.3       1 APC501      0.0000 
     19 C2'         6.7220    9.2580   13.9280 C.3       1 APC501      0.0000 
     20 O2'         5.3360    8.8990   13.9120 O.3       1 APC501      0.0000 
     21 C1'         7.0110   10.2160   12.7890 C.3       1 APC501      0.0000 
     22 N9          7.2880    9.5290   11.4980 N.pl3     1 APC501      0.0000 
     23 C8          8.3700    8.7860   11.2220 C.2       1 APC501      0.0000 
     24 N7          8.3280    8.3970    9.9420 N.2       1 APC501      0.0000 
     25 C5          7.2210    8.8830    9.4020 C.ar      1 APC501      0.0000 
     26 C6          6.6740    8.7970    8.1240 C.ar      1 APC501      0.0000 
     27 N6          7.3310    8.1460    7.1610 N.pl3     1 APC501      0.0000 
     28 N1          5.4890    9.4050    7.8660 N.ar      1 APC501      0.0000 
     29 C2          4.8180   10.1300    8.8880 C.ar      1 APC501      0.0000 
     30 N3          5.3580   10.2110   10.1090 N.ar      1 APC501      0.0000 
     31 C4          6.5470    9.6050   10.3890 C.ar      1 APC501      0.0000 
     32 H          11.1629    5.9172   15.3576 H         1 APC501      0.0000 
     33 H           9.5054    6.4751   15.0723 H         1 APC501      0.0000 
     34 H          10.3107   11.1731   14.9281 H         1 APC501      0.0000 
     35 H           9.4936   10.4276   16.3125 H         1 APC501      0.0000 
     36 H           8.0253   11.9753   15.0952 H         1 APC501      0.0000 
     37 H           7.3352    9.4863   15.9295 H         1 APC501      0.0000 
     38 H           7.3803    8.4565   13.8853 H         1 APC501      0.0000 
     39 H           6.1533   10.8733   12.6887 H         1 APC501      0.0000 
     40 H           9.0771    8.5644   11.8568 H         1 APC501      0.0000 
     41 H           6.8760    8.0999    6.2717 H         1 APC501      0.0000 
     42 H           8.2190    7.7631    7.4156 H         1 APC501      0.0000 
     43 H           3.9202   10.5784    8.6512 H         1 APC501      0.0000 
     44 H           6.2281   11.8278   15.5664 H         1 APC501      0.0000 
     45 H           5.1787    8.4355   14.7840 H         1 APC501      0.0000 
@<TRIPOS>BOND
     1    2    1 ar   
     2    3    1 ar   
     3    4    1 ar   
     4    8    1 1    
     5    6    5 ar   
     6    7    5 ar   
     7    8    5 1    
     8   12    5 1    
     9   10    9 ar   
    10   11    9 ar   
    11   12    9 1    
    12   13    9 1    
    13   32   12 1    
    14   33   12 1    
    15   14   13 1    
    16   15   14 1    
    17   34   14 1    
    18   35   14 1    
    19   16   15 1    
    20   17   15 1    
    21   36   15 1    
    22   21   16 1    
    23   18   17 1    
    24   19   17 1    
    25   37   17 1    
    26   44   18 1    
    27   20   19 1    
    28   21   19 1    
    29   38   19 1    
    30   45   20 1    
    31   22   21 1    
    32   39   21 1    
    33   23   22 1    
    34   31   22 1    
    35   24   23 2    
    36   40   23 1    
    37   25   24 1    
    38   26   25 ar   
    39   31   25 ar   
    40   27   26 1    
    41   28   26 ar   
    42   41   27 1    
    43   42   27 1    
    44   29   28 ar   
    45   30   29 ar   
    46   43   29 1    
    47   31   30 ar   
@<TRIPOS>SUBSTRUCTURE
     1 APC501      1 GROUP   
@<TRIPOS>SET

