#    Name: 1jbv_ACP_1_INTS_M
#    Modification time : Tue Mar 25 08:42:47 2014

@<TRIPOS>MOLECULE
1jbv_ACP_1_INTS_M
   72     0    15     0     0
SMALL
NO_CHARGES


@<TRIPOS>ATOM
      1 NZ          1.3715    2.4050   22.9260 N.4       3 LYC4        0.0000 
      2 NZ          2.3130    1.8160   23.6300 N.4      13 LYL4        0.0000 
      3 NZ          0.4300    2.9940   22.2220 N.4       8 LYP4        0.0000 
      4 Zn          2.6990    2.7075   23.9985 Zn        4 ZIC7        0.0000 
      5 Zn          2.3130    1.8160   23.6300 Zn       14 ZIL7        0.0000 
      6 Zn          3.0850    3.5990   24.3670 Zn        9 ZIP7        0.0000 
      7 N           1.3715    2.4050   22.9260 N.am      2 SEC2        0.0000 
      8 N           2.3130    1.8160   23.6300 N.am     12 SEL2        0.0000 
      9 N           0.4300    2.9940   22.2220 N.am      7 SEP2        0.0000 
     10 NZ          1.3210    1.2295   22.5255 N.4       3 LYC4        0.0000 
     11 NZ          2.2120   -0.5350   22.8290 N.4      13 LYL4        0.0000 
     12 Zn          1.6205   -1.2000   22.1960 Zn        4 ZIC7        0.0000 
     13 Zn          2.2120   -0.5350   22.8290 Zn       14 ZIL7        0.0000 
     14 Zn          1.0290   -1.8650   21.5630 Zn        9 ZIP7        0.0000 
     15 N           2.7285    0.1695   21.3575 N.am      2 SEC2        0.0000 
     16 N           2.2120   -0.5350   22.8290 N.am     12 SEL2        0.0000 
     17 N           3.2450    0.8740   19.8860 N.am      7 SEP2        0.0000 
     18 Zn          0.1710   -1.4330   22.0520 Zn        4 ZIC7        0.0000 
     19 Zn         -0.6870   -1.0010   22.5410 Zn       14 ZIL7        0.0000 
     20 N          -1.8810   -1.1915   21.5950 N.am      2 SEC2        0.0000 
     21 N          -0.6870   -1.0010   22.5410 N.am     12 SEL2        0.0000 
     22 N          -3.0750   -1.3820   20.6490 N.am      7 SEP2        0.0000 
     23 NZ         -0.6510    2.0970   22.7410 N.4       3 LYC4        0.0000 
     24 NZ         -1.7320    1.2000   23.2600 N.4      13 LYL4        0.0000 
     25 N          -2.9475    1.0815   22.5835 N.am      2 SEC2        0.0000 
     26 N          -1.7320    1.2000   23.2600 N.am     12 SEL2        0.0000 
     27 N          -4.1630    0.9630   21.9070 N.am      7 SEP2        0.0000 
     28 N          -0.6510    2.0970   22.7410 N.am      2 SEC2        0.0000 
     29 CA          0.5755    1.4135   22.7230 C.3       5 GLC5        0.0000 
     30 CA          0.4030    0.2710   24.6240 C.3      15 GLL5        0.0000 
     31 CA          0.7480    2.5560   20.8220 C.3      10 GLP5        0.0000 
     32 N          -2.5080   -4.6340   23.9590 N.am      2 SEC2        0.0000 
     33 N          -1.7950   -3.4810   24.3340 N.am     12 SEL2        0.0000 
     34 N          -3.2210   -5.7870   23.5840 N.am      7 SEP2        0.0000 
     35 N          -4.4010   -2.8880   22.3915 N.am      2 SEC2        0.0000 
     36 N          -3.8320   -2.4880   23.5100 N.am     12 SEL2        0.0000 
     37 N          -4.9700   -3.2880   21.2730 N.am      7 SEP2        0.0000 
     38 N          -4.9605   -3.2720   23.6750 N.am      2 SEC2        0.0000 
     39 N          -6.0890   -4.0560   23.8400 N.am      7 SEP2        0.0000 
     40 N          -3.2370    0.0855   24.6380 N.am      2 SEC2        0.0000 
     41 N          -2.1030   -0.9320   24.5440 N.am     12 SEL2        0.0000 
     42 N          -4.3710    1.1030   24.7320 N.am      7 SEP2        0.0000 
     43 CA         -3.3535    0.5670   27.2200 C.3       5 GLC5        0.0000 
     44 CA         -2.9690   -1.6270   27.0280 C.3      15 GLL5        0.0000 
     45 CA         -3.7380    2.7610   27.4120 C.3      10 GLP5        0.0000 
     46 CA         -5.8335   -2.3375   28.7660 C.3       5 GLC5        0.0000 
     47 CA         -3.8450   -1.7230   28.2570 C.3      15 GLL5        0.0000 
     48 CA         -7.8220   -2.9520   29.2750 C.3      10 GLP5        0.0000 
     49 CA         -3.4635    0.8465   28.4200 C.3       5 GLC5        0.0000 
     50 CA         -3.1890   -1.0680   29.4280 C.3      15 GLL5        0.0000 
     51 O          -3.5115    0.0360   31.7755 O.2       1 ALC1        0.0000 
     52 O          -4.1440   -0.6600   30.4340 O.2      11 ALL1        0.0000 
     53 O          -2.8790    0.7320   33.1170 O.2       6 ALP1        0.0000 
     54 N          -0.8015   -2.6105   32.2820 N.am      2 SEC2        0.0000 
     55 N          -1.8730   -2.1520   31.2360 N.am     12 SEL2        0.0000 
     56 N           0.2700   -3.0690   33.3280 N.am      7 SEP2        0.0000 
     57 N          -1.1080   -7.7170   30.1860 N.am      2 SEC2        0.0000 
     58 N          -1.9990   -6.9500   29.0270 N.am     12 SEL2        0.0000 
     59 N          -0.2170   -8.4840   31.3450 N.am      7 SEP2        0.0000 
     60 CA          1.4690   -6.1865   26.6045 C.3       5 GLC5        0.0000 
     61 CA         -0.2460   -6.5770   27.1930 C.3      15 GLL5        0.0000 
     62 CA          3.1840   -5.7960   26.0160 C.3      10 GLP5        0.0000 
     63 O          -0.3755   -8.9190   28.0050 O.2       1 ALC1        0.0000 
     64 O           0.0870   -7.8370   27.0130 O.2      11 ALL1        0.0000 
     65 O          -0.8380  -10.0010   28.9970 O.2       6 ALP1        0.0000 
     66 CA          1.5945   -5.0615   26.3315 C.3       5 GLC5        0.0000 
     67 CA          0.0050   -4.3270   26.6470 C.3      15 GLL5        0.0000 
     68 CA          0.0230   -6.9285   29.4017 C.3       5 GLC5        0.0000 
     69 CA         -1.2280   -6.2110   28.1500 C.3      15 GLL5        0.0000 
     70 CA          0.7830   -7.4630   31.1320 C.3      10 GLP5        0.0000 
     71 CA         -2.5100   -7.0610   27.6619 C.3       5 GLC5        0.0000 
     72 CA         -3.9030   -8.4940   27.3660 C.3      10 GLP5        0.0000 
@<TRIPOS>BOND
@<TRIPOS>SUBSTRUCTURE
     1 ALC1       51 GROUP        1 X    ALC  0     ROOT ALC X 1
     2 SEC2        7 GROUP        1 X    SEC  0     **** SEC X 2
     3 LYC4        1 GROUP        1 X    LYC  0     **** LYC X 4
     4 ZIC7        4 GROUP        1 X    ZIC  0     **** ZIC X 5
     5 GLC5       29 GROUP        1 X    GLC  0     **** GLC X 6
     6 ALP1       53 GROUP        1 Y    ALP  0     ROOT ALP Y 8
     7 SEP2        9 GROUP        1 Y    SEP  0     **** SEP Y 9
     8 LYP4        3 GROUP        1 Y    LYP  0     **** LYP Y 11
     9 ZIP7        6 GROUP        1 Y    ZIP  0     **** ZIP Y 12
    10 GLP5       31 GROUP        1 Y    GLP  0     **** GLP Y 13
    11 ALL1       52 GROUP        1 Z    ALL  0     ROOT ALL Z 15
    12 SEL2        8 GROUP        1 Z    SEL  0     **** SEL Z 16
    13 LYL4        2 GROUP        1 Z    LYL  0     **** LYL Z 18
    14 ZIL7        5 GROUP        1 Z    ZIL  0     **** ZIL Z 19
    15 GLL5       30 GROUP        1 Z    GLL  0     **** GLL Z 20
@<TRIPOS>SET

