#    Name: 1jbv_ACP_1_ligand
#    Modification time : Tue Mar 25 08:42:47 2014

@<TRIPOS>MOLECULE
1jbv_ACP_1_ligand
   45    47     1     0     0
SMALL
NO_CHARGES


@<TRIPOS>ATOM
      1 PG          2.1090    0.3980   23.9920 P.3       1 ACP999      0.0000 
      2 O1G         2.3130    1.8160   23.6300 O.co2     1 ACP999      0.0000 
      3 O2G         2.2120   -0.5350   22.8290 O.co2     1 ACP999      0.0000 
      4 O3G         2.9710   -0.0160   25.1410 O.co2     1 ACP999      0.0000 
      5 PB         -1.0830   -0.0690   23.6430 P.3       1 ACP999      0.0000 
      6 O1B        -0.6870   -1.0010   22.5410 O.co2     1 ACP999      0.0000 
      7 O2B        -1.7320    1.2000   23.2600 O.co2     1 ACP999      0.0000 
      8 C3B         0.4030    0.2710   24.6240 C.3       1 ACP999      0.0000 
      9 PA         -2.7340   -2.3970   24.4640 P.3       1 ACP999      0.0000 
     10 O1A        -1.7950   -3.4810   24.3340 O.co2     1 ACP999      0.0000 
     11 O2A        -3.8320   -2.4880   23.5100 O.co2     1 ACP999      0.0000 
     12 O3A        -2.1030   -0.9320   24.5440 O.3       1 ACP999      0.0000 
     13 O5'        -3.3970   -2.4110   25.8990 O.3       1 ACP999      0.0000 
     14 C5'        -2.9690   -1.6270   27.0280 C.3       1 ACP999      0.0000 
     15 C4'        -3.8450   -1.7230   28.2570 C.3       1 ACP999      0.0000 
     16 O4'        -4.0180   -3.1090   28.6130 O.3       1 ACP999      0.0000 
     17 C3'        -3.1890   -1.0680   29.4280 C.3       1 ACP999      0.0000 
     18 O3'        -4.1440   -0.6600   30.4340 O.3       1 ACP999      0.0000 
     19 C2'        -2.2610   -2.2070   29.8780 C.3       1 ACP999      0.0000 
     20 O2'        -1.8730   -2.1520   31.2360 O.3       1 ACP999      0.0000 
     21 C1'        -3.1430   -3.4800   29.6900 C.3       1 ACP999      0.0000 
     22 N9         -2.4730   -4.7440   29.2150 N.pl3     1 ACP999      0.0000 
     23 C8         -2.7150   -6.0370   29.6260 C.2       1 ACP999      0.0000 
     24 N7         -1.9990   -6.9500   29.0270 N.2       1 ACP999      0.0000 
     25 C5         -1.2280   -6.2110   28.1500 C.ar      1 ACP999      0.0000 
     26 C6         -0.2460   -6.5770   27.1930 C.ar      1 ACP999      0.0000 
     27 N6          0.0870   -7.8370   27.0130 N.pl3     1 ACP999      0.0000 
     28 N1          0.3470   -5.6070   26.4550 N.ar      1 ACP999      0.0000 
     29 C2          0.0050   -4.3270   26.6470 C.ar      1 ACP999      0.0000 
     30 N3         -0.9030   -3.8510   27.5100 N.ar      1 ACP999      0.0000 
     31 C4         -1.4970   -4.8620   28.2440 C.ar      1 ACP999      0.0000 
     32 H           0.2091    1.2274   25.1467 H         1 ACP999      0.0000 
     33 H           0.4350   -0.5108   25.4071 H         1 ACP999      0.0000 
     34 H          -2.8942   -0.5442   26.7481 H         1 ACP999      0.0000 
     35 H          -1.9276   -1.9105   27.3304 H         1 ACP999      0.0000 
     36 H          -4.7839   -1.2591   28.0679 H         1 ACP999      0.0000 
     37 H          -2.5732   -0.2798   29.0681 H         1 ACP999      0.0000 
     38 H          -1.4605   -2.2919   29.1911 H         1 ACP999      0.0000 
     39 H          -3.7100   -3.6455   30.5664 H         1 ACP999      0.0000 
     40 H          -3.4044   -6.2267   30.3419 H         1 ACP999      0.0000 
     41 H           0.7905   -8.0121   26.3243 H         1 ACP999      0.0000 
     42 H          -0.3938   -8.5047   27.5813 H         1 ACP999      0.0000 
     43 H           0.5247   -3.5862   26.0305 H         1 ACP999      0.0000 
     44 H          -3.5956   -0.2339   31.1535 H         1 ACP999      0.0000 
     45 H          -2.6349   -2.5594   31.7394 H         1 ACP999      0.0000 
@<TRIPOS>BOND
     1    2    1 ar   
     2    3    1 ar   
     3    4    1 ar   
     4    8    1 1    
     5    6    5 ar   
     6    7    5 ar   
     7    8    5 1    
     8   12    5 1    
     9   32    8 1    
    10   33    8 1    
    11   10    9 ar   
    12   11    9 ar   
    13   12    9 1    
    14   13    9 1    
    15   14   13 1    
    16   15   14 1    
    17   34   14 1    
    18   35   14 1    
    19   16   15 1    
    20   17   15 1    
    21   36   15 1    
    22   21   16 1    
    23   18   17 1    
    24   19   17 1    
    25   37   17 1    
    26   44   18 1    
    27   20   19 1    
    28   21   19 1    
    29   38   19 1    
    30   45   20 1    
    31   22   21 1    
    32   39   21 1    
    33   23   22 1    
    34   31   22 1    
    35   24   23 2    
    36   40   23 1    
    37   25   24 1    
    38   26   25 ar   
    39   31   25 ar   
    40   27   26 1    
    41   28   26 ar   
    42   41   27 1    
    43   42   27 1    
    44   29   28 ar   
    45   30   29 ar   
    46   43   29 1    
    47   31   30 ar   
@<TRIPOS>SUBSTRUCTURE
     1 ACP999      1 GROUP   
@<TRIPOS>SET

