#    Name: 2qpm_246_1_INTS_M
#    Modification time : Mon Mar 24 22:35:29 2014

@<TRIPOS>MOLECULE
2qpm_246_1_INTS_M
   45     0     6     0     0
SMALL
NO_CHARGES


@<TRIPOS>ATOM
      1 CA         34.4210    1.8610   -1.0900 C.3       2 GLC5        0.0000 
      2 CA         34.8720    2.4490    0.8730 C.3       6 GLL5        0.0000 
      3 CA         33.9700    1.2730   -3.0530 C.3       4 GLP5        0.0000 
      4 CA         34.8460    3.8090   -0.2090 C.3       2 GLC5        0.0000 
      5 CA         34.8200    5.1690   -1.2910 C.3       4 GLP5        0.0000 
      6 CA         33.7075    1.9270    2.0715 C.3       2 GLC5        0.0000 
      7 CA         32.5430    1.4050    3.2700 C.3       4 GLP5        0.0000 
      8 O          38.2230    7.1880    5.3215 O.2       1 ALC1        0.0000 
      9 O          37.2840    7.7720    3.9840 O.2       5 ALL1        0.0000 
     10 O          39.1620    6.6040    6.6590 O.2       3 ALP1        0.0000 
     11 O          38.4465    6.0960    5.1920 O.2       1 ALC1        0.0000 
     12 O          37.7310    5.5880    3.7250 O.2       5 ALL1        0.0000 
     13 CA         39.0360    0.8470    4.7155 C.3       2 GLC5        0.0000 
     14 CA         37.8260    1.9630    3.3820 C.3       6 GLL5        0.0000 
     15 CA         40.2460   -0.2690    6.0490 C.3       4 GLP5        0.0000 
     16 CA         34.6790    7.7005    3.4940 C.3       2 GLC5        0.0000 
     17 CA         36.5050    8.9820    3.6870 C.3       6 GLL5        0.0000 
     18 CA         32.8530    6.4190    3.3010 C.3       4 GLP5        0.0000 
     19 CA         39.4823    3.9475    2.3115 C.3       2 GLC5        0.0000 
     20 CA         37.4530    4.3320    3.2700 C.3       6 GLL5        0.0000 
     21 CA         41.1550    4.1050    1.0990 C.3       4 GLP5        0.0000 
     22 CA         37.6515    5.1273    1.0803 C.3       2 GLC5        0.0000 
     23 CA         38.3590    6.0440   -0.6550 C.3       4 GLP5        0.0000 
     24 CA         35.2838    3.0569    3.6151 C.3       2 GLC5        0.0000 
     25 CA         36.4350    4.0890    2.3610 C.3       6 GLL5        0.0000 
     26 CA         34.0260    2.6190    4.8210 C.3       4 GLP5        0.0000 
     27 CA         36.0110    2.6123    4.2005 C.3       2 GLC5        0.0000 
     28 CA         38.5790   11.0282    1.9778 C.3       2 GLC5        0.0000 
     29 CA         37.3750   10.2320    3.8240 C.3       6 GLL5        0.0000 
     30 CA         39.9120   11.2700    0.5300 C.3       4 GLP5        0.0000 
     31 CA         36.4952   11.9482    4.9633 C.3       2 GLC5        0.0000 
     32 CA         37.1170   11.3410    3.0270 C.3       6 GLL5        0.0000 
     33 CA         35.4880   11.9810    6.8330 C.3       4 GLP5        0.0000 
     34 CA         37.5518    9.3240    2.0191 C.3       2 GLC5        0.0000 
     35 CA         38.0750    8.1740    0.6470 C.3       4 GLP5        0.0000 
     36 CA         37.2682   11.9775    5.6620 C.3       2 GLC5        0.0000 
     37 CA         38.9190   12.5290    4.0930 C.3       6 GLL5        0.0000 
     38 CA         39.3514   11.6171    2.3939 C.3       2 GLC5        0.0000 
     39 CA         39.1780   11.4190    4.8890 C.3       6 GLL5        0.0000 
     40 CA         39.7482    9.4410    3.8251 C.3       2 GLC5        0.0000 
     41 CA         40.9620    8.0470    3.0610 C.3       4 GLP5        0.0000 
     42 CA         37.4322    8.7937    5.8726 C.3       2 GLC5        0.0000 
     43 CA         38.4070   10.2700    4.7550 C.3       6 GLL5        0.0000 
     44 CA         37.1910    7.6490    7.4900 C.3       4 GLP5        0.0000 
     45 CA         36.5807   10.9597    5.5441 C.3       2 GLC5        0.0000 
@<TRIPOS>BOND
@<TRIPOS>SUBSTRUCTURE
     1 ALC1        8 GROUP        1 X    ALC  0     ROOT ALC X 1
     2 GLC5        1 GROUP        1 X    GLC  0     **** GLC X 6
     3 ALP1       10 GROUP        1 Y    ALP  0     ROOT ALP Y 8
     4 GLP5        3 GROUP        1 Y    GLP  0     **** GLP Y 13
     5 ALL1        9 GROUP        1 Z    ALL  0     ROOT ALL Z 15
     6 GLL5        2 GROUP        1 Z    GLL  0     **** GLL Z 20
@<TRIPOS>SET

