#    Name: 2qpm_246_1_ligand
#    Modification time : Mon Mar 24 22:35:29 2014

@<TRIPOS>MOLECULE
2qpm_246_1_ligand
   31    32     1     0     0
SMALL
NO_CHARGES


@<TRIPOS>ATOM
      1 CL5        34.8720    2.4490    0.8730 Cl        1 2461536     0.0000 
      2 C1         36.9680    6.6100    3.4140 C.2       1 2461536     0.0000 
      3 O1         36.0120    6.5230    2.6550 O.2       1 2461536     0.0000 
      4 N2         37.2840    7.7720    3.9840 N.am      1 2461536     0.0000 
      5 C3         37.4530    4.3320    3.2700 C.ar      1 2461536     0.0000 
      6 N3         37.7310    5.5880    3.7250 N.am      1 2461536     0.0000 
      7 C4         36.4350    4.0890    2.3610 C.ar      1 2461536     0.0000 
      8 C5         36.1390    2.7790    2.0030 C.ar      1 2461536     0.0000 
      9 N6         36.8380    1.7610    2.5280 N.pl3     1 2461536     0.0000 
     10 C7         37.8260    1.9630    3.3820 C.ar      1 2461536     0.0000 
     11 C8         38.1660    3.2480    3.7780 C.ar      1 2461536     0.0000 
     12 C9         36.5050    8.9820    3.6870 C.3       1 2461536     0.0000 
     13 C10        37.3750   10.2320    3.8240 C.ar      1 2461536     0.0000 
     14 C11        37.1170   11.3410    3.0270 C.ar      1 2461536     0.0000 
     15 C12        37.8880   12.4900    3.1600 C.ar      1 2461536     0.0000 
     16 C13        38.9190   12.5290    4.0930 C.ar      1 2461536     0.0000 
     17 C14        39.1780   11.4190    4.8890 C.ar      1 2461536     0.0000 
     18 C15        38.4070   10.2700    4.7550 C.ar      1 2461536     0.0000 
     19 H          38.0662    7.8856    4.6436 H         1 2461536     0.0000 
     20 H          38.5802    5.7166    4.3368 H         1 2461536     0.0000 
     21 H          35.9047    4.8667    1.9559 H         1 2461536     0.0000 
     22 H          36.5841    0.7719    2.2446 H         1 2461536     0.0000 
     23 H          38.3738    1.1665    3.7792 H         1 2461536     0.0000 
     24 H          38.9341    3.4018    4.4381 H         1 2461536     0.0000 
     25 H          35.6582    9.0755    4.3746 H         1 2461536     0.0000 
     26 H          36.1109    8.9476    2.6662 H         1 2461536     0.0000 
     27 H          36.3538   11.3116    2.3371 H         1 2461536     0.0000 
     28 H          37.6970   13.3095    2.5702 H         1 2461536     0.0000 
     29 H          39.4891   13.3786    4.1936 H         1 2461536     0.0000 
     30 H          39.9415   11.4480    5.5783 H         1 2461536     0.0000 
     31 H          38.5995    9.4496    5.3434 H         1 2461536     0.0000 
@<TRIPOS>BOND
     1    8    1 1    
     2    3    2 2    
     3    4    2 am   
     4    6    2 am   
     5   12    4 1    
     6   19    4 1    
     7    6    5 1    
     8    7    5 ar   
     9   11    5 ar   
    10   20    6 1    
    11    8    7 ar   
    12   21    7 1    
    13    9    8 ar   
    14   10    9 ar   
    15   22    9 1    
    16   11   10 ar   
    17   23   10 1    
    18   24   11 1    
    19   13   12 1    
    20   25   12 1    
    21   26   12 1    
    22   14   13 ar   
    23   18   13 ar   
    24   15   14 ar   
    25   27   14 1    
    26   16   15 ar   
    27   28   15 1    
    28   17   16 ar   
    29   29   16 1    
    30   18   17 ar   
    31   30   17 1    
    32   31   18 1    
@<TRIPOS>SUBSTRUCTURE
     1 2461536     1 GROUP   
@<TRIPOS>SET

