#    Name: 3hng_8ST_1_INTS_M
#    Modification time : Tue Mar 25 14:33:15 2014

@<TRIPOS>MOLECULE
3hng_8ST_1_INTS_M
   85     0     9     0     0
SMALL
NO_CHARGES


@<TRIPOS>ATOM
      1 CA          4.7410   24.3315   27.2120 C.3       3 GLC5        0.0000 
      2 CA          5.5950   23.5560   28.5450 C.3       9 GLL5        0.0000 
      3 CA          3.8870   25.1070   25.8790 C.3       6 GLP5        0.0000 
      4 CA          6.0745   22.6395   26.8740 C.3       3 GLC5        0.0000 
      5 CA          6.5540   21.7230   25.2030 C.3       6 GLP5        0.0000 
      6 CA          8.4975   21.9595   33.1095 C.3       3 GLC5        0.0000 
      7 CA          7.2760   21.5260   31.6030 C.3       9 GLL5        0.0000 
      8 CA          9.7190   22.3930   34.6160 C.3       6 GLP5        0.0000 
      9 CA          2.8330   22.7565   30.1545 C.3       3 GLC5        0.0000 
     10 CA          4.6440   21.8010   30.4440 C.3       9 GLL5        0.0000 
     11 CA          1.0220   23.7120   29.8650 C.3       6 GLP5        0.0000 
     12 CA          2.8710   20.2220   31.9480 C.3       3 GLC5        0.0000 
     13 CA          4.8000   20.9790   31.5490 C.3       9 GLL5        0.0000 
     14 CA          0.9420   19.4650   32.3470 C.3       6 GLP5        0.0000 
     15 O           7.4115   20.1120   33.8365 O.2       1 ALC1        0.0000 
     16 O           6.1910   19.9470   33.1760 O.2       7 ALL1        0.0000 
     17 O           8.6320   20.2770   34.4970 O.2       4 ALP1        0.0000 
     18 N           5.6475   18.1385   30.8415 N.am      2 SEC2        0.0000 
     19 N           5.1610   18.1740   32.1770 N.am      8 SEL2        0.0000 
     20 N           6.1340   18.1030   29.5060 N.am      5 SEP2        0.0000 
     21 CA          5.6335   14.1350   36.5985 C.3       3 GLC5        0.0000 
     22 CA          5.3230   15.9940   36.0290 C.3       9 GLL5        0.0000 
     23 CA          5.9440   12.2760   37.1680 C.3       6 GLP5        0.0000 
     24 CA          3.7385   14.9650   37.0160 C.3       3 GLC5        0.0000 
     25 CA          2.1540   13.9360   38.0030 C.3       6 GLP5        0.0000 
     26 CA          5.4940   15.8755   39.1625 C.3       3 GLC5        0.0000 
     27 CA          5.6340   16.8190   37.1680 C.3       9 GLL5        0.0000 
     28 CA          5.3540   14.9320   41.1570 C.3       6 GLP5        0.0000 
     29 CA          5.8615   20.8495   35.7030 C.3       3 GLC5        0.0000 
     30 CA          5.9890   18.7690   35.6840 C.3       9 GLL5        0.0000 
     31 CA          5.7340   22.9300   35.7220 C.3       6 GLP5        0.0000 
     32 CA          6.3060   13.6915   34.6455 C.3       3 GLC5        0.0000 
     33 CA          4.6180   14.3170   33.3600 C.3       9 GLL5        0.0000 
     34 CA          7.9940   13.0660   35.9310 C.3       6 GLP5        0.0000 
     35 CA          4.3315   14.9225   31.2125 C.3       3 GLC5        0.0000 
     36 CA          4.0450   15.5280   29.0650 C.3       6 GLP5        0.0000 
     37 CA          5.0970   12.7570   32.4175 C.3       3 GLC5        0.0000 
     38 CA          5.5760   11.1970   31.4750 C.3       6 GLP5        0.0000 
     39 CA          4.3845   12.4860   35.5780 C.3       3 GLC5        0.0000 
     40 CA          2.8250   12.6960   33.9880 C.3       9 GLL5        0.0000 
     41 N          -0.9140   13.3680   34.5490 N.am      2 SEC2        0.0000 
     42 N           0.5460   13.4920   34.4960 N.am      8 SEL2        0.0000 
     43 N          -2.3740   13.2440   34.6020 N.am      5 SEP2        0.0000 
     44 CA         -0.6170   14.4745   35.6225 C.3       3 GLC5        0.0000 
     45 CA          0.9730   14.8240   34.3800 C.3       9 GLL5        0.0000 
     46 CA         -2.2070   14.1250   36.8650 C.3       6 GLP5        0.0000 
     47 CA         -0.6365   14.9800   33.3060 C.3       3 GLC5        0.0000 
     48 CA         -2.2460   15.1360   32.2320 C.3       6 GLP5        0.0000 
     49 CA          5.6188   23.3010   32.0012 C.3       3 GLC5        0.0000 
     50 CA          5.8570   22.5350   29.9480 C.3       9 GLL5        0.0000 
     51 CA          4.7430   24.1210   33.7830 C.3       6 GLP5        0.0000 
     52 CA          7.4198   20.7945   29.5718 C.3       3 GLC5        0.0000 
     53 CA          8.3450   19.1080   28.9240 C.3       6 GLP5        0.0000 
     54 CA          5.7215   22.6247   32.7897 C.3       3 GLC5        0.0000 
     55 CA          7.5225   20.1182   30.3603 C.3       3 GLC5        0.0000 
     56 CA          6.1240   20.7310   31.9900 C.3       9 GLL5        0.0000 
     57 CA          4.7325   22.7555   32.3897 C.3       3 GLC5        0.0000 
     58 CA          4.5870   19.6812   30.2886 C.3       3 GLC5        0.0000 
     59 CA          3.7510   18.3020   29.0840 C.3       6 GLP5        0.0000 
     60 CA          3.9750   17.5605   35.7668 C.3       3 GLC5        0.0000 
     61 CA          5.7740   17.9040   34.5140 C.3       9 GLL5        0.0000 
     62 CA          2.3540   17.8860   36.9140 C.3       6 GLP5        0.0000 
     63 CA          3.9163   17.1462   36.7563 C.3       3 GLC5        0.0000 
     64 CA          7.2354   16.8079   37.4531 C.3       3 GLC5        0.0000 
     65 CA          8.7620   16.3010   38.1150 C.3       6 GLP5        0.0000 
     66 CA          6.4750   19.9180   37.7135 C.3       3 GLC5        0.0000 
     67 CA          5.9390   18.2230   36.9840 C.3       9 GLL5        0.0000 
     68 CA          6.9860   21.3400   39.0930 C.3       6 GLP5        0.0000 
     69 CA          4.5020   19.3565   36.8050 C.3       3 GLC5        0.0000 
     70 CA          3.0400   20.2170   37.2760 C.3       6 GLP5        0.0000 
     71 CA          7.5497   17.4755   35.2209 C.3       3 GLC5        0.0000 
     72 CA          9.3070   16.9490   35.2900 C.3       6 GLP5        0.0000 
     73 CA          2.7020   13.9808   32.2403 C.3       3 GLC5        0.0000 
     74 CA          1.4750   13.8150   30.8310 C.3       6 GLP5        0.0000 
     75 CA          2.5325   11.2590   35.6840 C.3       3 GLC5        0.0000 
     76 CA          2.9070    9.9530   37.1650 C.3       6 GLP5        0.0000 
     77 CA          1.8165   13.1900   32.5170 C.3       3 GLC5        0.0000 
     78 CA          1.4910   12.4340   34.4180 C.3       9 GLL5        0.0000 
     79 CA          2.2079   13.4105   36.0969 C.3       3 GLC5        0.0000 
     80 CA          1.8875   14.4415   36.0922 C.3       3 GLC5        0.0000 
     81 CA          1.0735   16.5420   32.9763 C.3       3 GLC5        0.0000 
     82 CA          0.5260   18.1370   31.7710 C.3       6 GLP5        0.0000 
     83 CA          1.9875   16.4165   35.5478 C.3       3 GLC5        0.0000 
     84 CA          2.2690   15.0700   33.9830 C.3       9 GLL5        0.0000 
     85 CA          1.5480   14.3810   32.5062 C.3       3 GLC5        0.0000 
@<TRIPOS>BOND
@<TRIPOS>SUBSTRUCTURE
     1 ALC1       15 GROUP        1 X    ALC  0     ROOT ALC X 1
     2 SEC2       18 GROUP        1 X    SEC  0     **** SEC X 2
     3 GLC5        1 GROUP        1 X    GLC  0     **** GLC X 6
     4 ALP1       17 GROUP        1 Y    ALP  0     ROOT ALP Y 8
     5 SEP2       20 GROUP        1 Y    SEP  0     **** SEP Y 9
     6 GLP5        3 GROUP        1 Y    GLP  0     **** GLP Y 13
     7 ALL1       16 GROUP        1 Z    ALL  0     ROOT ALL Z 15
     8 SEL2       19 GROUP        1 Z    SEL  0     **** SEL Z 16
     9 GLL5        2 GROUP        1 Z    GLL  0     **** GLL Z 20
@<TRIPOS>SET

