#    Name: 3hng_8ST_1_ligand
#    Modification time : Tue Mar 25 14:33:15 2014

@<TRIPOS>MOLECULE
3hng_8ST_1_ligand
   40    42     1     0     0
SMALL
NO_CHARGES


@<TRIPOS>ATOM
      1 CL16        5.5950   23.5560   28.5450 Cl        1 8ST2001     0.0000 
      2 C13         5.8570   22.5350   29.9480 C.ar      1 8ST2001     0.0000 
      3 C12         7.1320   22.4270   30.4910 C.ar      1 8ST2001     0.0000 
      4 C11         7.2760   21.5260   31.6030 C.ar      1 8ST2001     0.0000 
      5 C14         4.6440   21.8010   30.4440 C.ar      1 8ST2001     0.0000 
      6 C15         4.8000   20.9790   31.5490 C.ar      1 8ST2001     0.0000 
      7 C10         6.1240   20.7310   31.9900 C.ar      1 8ST2001     0.0000 
      8 N9          6.1910   19.9470   33.1760 N.am      1 8ST2001     0.0000 
      9 C7          5.6500   18.6140   33.1600 C.2       1 8ST2001     0.0000 
     10 O8          5.1610   18.1740   32.1770 O.2       1 8ST2001     0.0000 
     11 C2          5.7740   17.9040   34.5140 C.ar      1 8ST2001     0.0000 
     12 C3          5.4180   16.5660   34.7250 C.ar      1 8ST2001     0.0000 
     13 C4          5.3230   15.9940   36.0290 C.ar      1 8ST2001     0.0000 
     14 C5          5.6340   16.8190   37.1680 C.ar      1 8ST2001     0.0000 
     15 C6          5.9390   18.2230   36.9840 C.ar      1 8ST2001     0.0000 
     16 C1          5.9890   18.7690   35.6840 C.ar      1 8ST2001     0.0000 
     17 N17         5.0380   15.6590   33.7080 N.pl3     1 8ST2001     0.0000 
     18 C18         4.6180   14.3170   33.3600 C.3       1 8ST2001     0.0000 
     19 C19         3.2400   13.9760   33.9390 C.ar      1 8ST2001     0.0000 
     20 C24         2.8250   12.6960   33.9880 C.ar      1 8ST2001     0.0000 
     21 C23         1.4910   12.4340   34.4180 C.ar      1 8ST2001     0.0000 
     22 N22         0.5460   13.4920   34.4960 N.ar      1 8ST2001     0.0000 
     23 C21         0.9730   14.8240   34.3800 C.ar      1 8ST2001     0.0000 
     24 C20         2.2690   15.0700   33.9830 C.ar      1 8ST2001     0.0000 
     25 H           7.9153   22.9337   30.1471 H         1 8ST2001     0.0000 
     26 H           8.1368   21.4452   32.0966 H         1 8ST2001     0.0000 
     27 H           3.7860   21.9359   29.9607 H         1 8ST2001     0.0000 
     28 H           4.0171   20.5690   32.0276 H         1 8ST2001     0.0000 
     29 H           6.6088   20.3129   34.0160 H         1 8ST2001     0.0000 
     30 H           5.0459   15.0376   36.1561 H         1 8ST2001     0.0000 
     31 H           5.6403   16.4217   38.0970 H         1 8ST2001     0.0000 
     32 H           6.1142   18.8000   37.8007 H         1 8ST2001     0.0000 
     33 H           6.1710   19.7523   35.5288 H         1 8ST2001     0.0000 
     34 H           5.0812   16.2758   32.6496 H         1 8ST2001     0.0000 
     35 H           5.3345   13.5672   33.7349 H         1 8ST2001     0.0000 
     36 H           4.5633   14.1895   32.2659 H         1 8ST2001     0.0000 
     37 H           3.4198   11.9097   33.7324 H         1 8ST2001     0.0000 
     38 H           1.2173   11.4859   34.6692 H         1 8ST2001     0.0000 
     39 H           0.3283   15.5852   34.5879 H         1 8ST2001     0.0000 
     40 H           2.5885   15.9989   33.7130 H         1 8ST2001     0.0000 
@<TRIPOS>BOND
     1    2    1 1    
     2    3    2 ar   
     3    5    2 ar   
     4    4    3 ar   
     5   25    3 1    
     6    7    4 ar   
     7   26    4 1    
     8    6    5 ar   
     9   27    5 1    
    10    7    6 ar   
    11   28    6 1    
    12    8    7 1    
    13    9    8 am   
    14   29    8 1    
    15   10    9 2    
    16   11    9 1    
    17   12   11 ar   
    18   16   11 ar   
    19   13   12 ar   
    20   17   12 1    
    21   14   13 ar   
    22   30   13 1    
    23   15   14 ar   
    24   31   14 1    
    25   16   15 ar   
    26   32   15 1    
    27   33   16 1    
    28   18   17 1    
    29   34   17 1    
    30   19   18 1    
    31   35   18 1    
    32   36   18 1    
    33   20   19 ar   
    34   24   19 ar   
    35   21   20 ar   
    36   37   20 1    
    37   22   21 ar   
    38   38   21 1    
    39   23   22 ar   
    40   24   23 ar   
    41   39   23 1    
    42   40   24 1    
@<TRIPOS>SUBSTRUCTURE
     1 8ST2001     1 GROUP   
@<TRIPOS>SET

