#    Name: 2EFJ_1_CAVITY_N1_6.mol2
#    Modification time : Tue Mar 11 10:37:08 2014

@<TRIPOS>MOLECULE
2EFJ_1_CAVITY_N1_6.mol2
   49     0     4     0     0
SMALL
NO_CHARGES


@<TRIPOS>ATOM
      1 OG          2.1755   25.6199   51.6786 O.2       1 SER1        0.0000 
      2 N           1.7798   27.0189   51.3092 N.2       2 ALA2        0.0000 
      3 N           1.3842   28.4178   50.9399 N.2       2 ALA2        0.0000 
      4 OG          0.7359   25.2010   51.6338 O.2       1 SER1        0.0000 
      5 N           0.3402   26.5999   51.2644 N.2       2 ALA2        0.0000 
      6 N          -0.0554   27.9988   50.8950 N.2       2 ALA2        0.0000 
      7 O           7.5361   23.0227   54.3745 O.2       2 ALA2        0.0000 
      8 CA          6.0965   22.6037   54.3296 C.3       4 GLY6        0.0000 
      9 N           5.7009   24.0027   53.9602 N.2       2 ALA2        0.0000 
     10 CA          5.0525   20.7858   54.6542 C.3       4 GLY6        0.0000 
     11 CZ          4.6569   22.1848   54.2848 C.ar      3 PHE5        0.0000 
     12 OG          4.2613   23.5837   53.9154 O.2       1 SER1        0.0000 
     13 OG          3.8657   24.9826   53.5460 O.2       1 SER1        0.0000 
     14 OG          2.0305   25.9626   53.1318 O.2       1 SER1        0.0000 
     15 N           1.6348   27.3615   52.7624 N.2       2 ALA2        0.0000 
     16 N           1.2392   28.7605   52.3930 N.2       2 ALA2        0.0000 
     17 OG          0.5908   25.5436   53.0869 O.2       1 SER1        0.0000 
     18 CA          0.1952   26.9426   52.7175 C.3       4 GLY6        0.0000 
     19 OG         -0.2004   28.3415   52.3481 O.2       1 SER1        0.0000 
     20 N           7.3911   23.3654   55.8276 N.2       2 ALA2        0.0000 
     21 CA          6.3471   21.5475   56.1521 C.3       4 GLY6        0.0000 
     22 CZ          5.9515   22.9464   55.7827 C.ar      3 PHE5        0.0000 
     23 CZ          5.5559   24.3453   55.4134 C.ar      3 PHE5        0.0000 
     24 CA          4.9075   21.1285   56.1073 C.3       4 GLY6        0.0000 
     25 OG          4.5119   22.5274   55.7379 O.2       1 SER1        0.0000 
     26 OG          4.1163   23.9264   55.3685 O.2       1 SER1        0.0000 
     27 CZ          3.4679   20.7095   56.0624 C.ar      3 PHE5        0.0000 
     28 OG          3.0723   22.1085   55.6930 O.2       1 SER1        0.0000 
     29 OG          2.2811   24.9064   54.9543 O.2       1 SER1        0.0000 
     30 N           1.8855   26.3053   54.5849 N.2       2 ALA2        0.0000 
     31 N           1.4898   27.7042   54.2155 N.2       2 ALA2        0.0000 
     32 CZ          2.0283   20.2906   56.0176 C.ar      3 PHE5        0.0000 
     33 O           0.4458   25.8863   54.5400 O.2       2 ALA2        0.0000 
     34 CA          0.0502   27.2853   54.1706 C.3       4 GLY6        0.0000 
     35 CZ          5.8065   23.2891   57.2359 C.ar      3 PHE5        0.0000 
     36 CZ          4.3669   22.8701   57.1910 C.ar      3 PHE5        0.0000 
     37 CZ          3.9713   24.2691   56.8216 C.ar      3 PHE5        0.0000 
     38 CZ          2.9273   22.4512   57.1462 C.ar      3 PHE5        0.0000 
     39 CZ          2.5317   23.8501   56.7768 C.ar      3 PHE5        0.0000 
     40 CZ          2.1361   25.2490   56.4074 C.ar      3 PHE5        0.0000 
     41 CA          1.7404   26.6480   56.0380 C.3       4 GLY6        0.0000 
     42 CA          1.4877   22.0322   57.1013 C.3       4 GLY6        0.0000 
     43 OG          1.0921   23.4311   56.7319 O.2       1 SER1        0.0000 
     44 CZ          0.6965   24.8301   56.3625 C.ar      3 PHE5        0.0000 
     45 O           0.3008   26.2290   55.9931 O.2       2 ALA2        0.0000 
     46 CA         -0.0948   27.6280   55.6237 C.3       4 GLY6        0.0000 
     47 O           0.0481   21.6132   57.0565 O.2       2 ALA2        0.0000 
     48 O          -1.1388   25.8101   55.9483 O.2       2 ALA2        0.0000 
     49 CA          0.1558   26.5717   57.4462 C.3       4 GLY6        0.0000 
@<TRIPOS>BOND
@<TRIPOS>SUBSTRUCTURE
     1 SER1        1 GROUP   
     2 ALA2        2 GROUP   
     3 PHE5       11 GROUP   
     4 GLY6        8 GROUP   
@<TRIPOS>SET

