#    Name: 2efj_SAH_1_INTS_M
#    Modification time : Tue Mar 25 11:00:44 2014

@<TRIPOS>MOLECULE
2efj_SAH_1_INTS_M
   73     0     9     0     0
SMALL
NO_CHARGES


@<TRIPOS>ATOM
      1 O           2.8975   27.8995   50.1370 O.2       1 ALC1        0.0000 
      2 O           2.1880   28.0120   51.3780 O.2       7 ALL1        0.0000 
      3 O           3.6070   27.7870   48.8960 O.2       4 ALP1        0.0000 
      4 O           3.0170   28.2795   52.4050 O.2       1 ALC1        0.0000 
      5 O           3.8460   28.5470   53.4320 O.2       4 ALP1        0.0000 
      6 CA          1.5920   27.2980   49.1330 C.3       3 GLC5        0.0000 
      7 CA          1.6480   26.6230   51.2490 C.3       9 GLL5        0.0000 
      8 CA          1.5360   27.9730   47.0170 C.3       6 GLP5        0.0000 
      9 CA          4.4555   26.2690   53.9135 C.3       3 GLC5        0.0000 
     10 CA          3.8910   25.5090   51.9650 C.3       9 GLL5        0.0000 
     11 CA          5.0200   27.0290   55.8620 C.3       6 GLP5        0.0000 
     12 CA          5.0870   22.4005   50.8265 C.3       3 GLC5        0.0000 
     13 CA          4.8210   23.9570   51.7340 C.3       9 GLL5        0.0000 
     14 CA          5.3530   20.8440   49.9190 C.3       6 GLP5        0.0000 
     15 CA          3.3015   22.8520   52.2390 C.3       3 GLC5        0.0000 
     16 CA          1.7820   21.7470   52.7440 C.3       6 GLP5        0.0000 
     17 CA          3.5110   23.7735   49.9260 C.3       3 GLC5        0.0000 
     18 CA          2.2010   23.5900   48.1180 C.3       6 GLP5        0.0000 
     19 N           1.1690   23.9410   53.0395 N.am      2 SEC2        0.0000 
     20 N           0.5710   24.9750   52.5870 N.am      8 SEL2        0.0000 
     21 N           1.7670   22.9070   53.4920 N.am      5 SEP2        0.0000 
     22 N          -0.6340   24.4040   53.3870 N.am      2 SEC2        0.0000 
     23 N          -1.8390   23.8330   54.1870 N.am      5 SEP2        0.0000 
     24 CA          6.4455   22.6810   51.2245 C.3       3 GLC5        0.0000 
     25 CA          6.3430   24.7510   51.1730 C.3       9 GLL5        0.0000 
     26 CA          6.5480   20.6110   51.2760 C.3       6 GLP5        0.0000 
     27 CA          8.5070   24.7570   51.7190 C.3       3 GLC5        0.0000 
     28 CA         10.6710   24.7630   52.2650 C.3       6 GLP5        0.0000 
     29 CA          4.3640   23.7180   48.4265 C.3       3 GLC5        0.0000 
     30 CA          6.5270   23.8460   48.7350 C.3       9 GLL5        0.0000 
     31 O           5.2440   24.7935   46.8565 O.2       1 ALC1        0.0000 
     32 O           5.4380   23.7220   47.8390 O.2       7 ALL1        0.0000 
     33 O           5.0500   25.8650   45.8740 O.2       4 ALP1        0.0000 
     34 CA          7.9745   22.4205   49.2000 C.3       3 GLC5        0.0000 
     35 CA          7.8180   24.1650   47.9820 C.3       9 GLL5        0.0000 
     36 CA          8.1310   20.6760   50.4180 C.3       6 GLP5        0.0000 
     37 O           7.1475   24.2655   45.5630 O.2       1 ALC1        0.0000 
     38 O           7.8850   23.7010   46.6410 O.2       7 ALL1        0.0000 
     39 O           6.4100   24.8300   44.4850 O.2       4 ALP1        0.0000 
     40 CA          6.5315   27.2450   47.7665 C.3       3 GLC5        0.0000 
     41 CA          7.8450   25.6760   48.1150 C.3       9 GLL5        0.0000 
     42 CA          5.2180   28.8140   47.4180 C.3       6 GLP5        0.0000 
     43 CA          6.9885   26.9795   49.4500 C.3       3 GLC5        0.0000 
     44 CA          6.1320   28.2830   50.7850 C.3       6 GLP5        0.0000 
     45 CA         11.4750   27.2715   44.3730 C.3       3 GLC5        0.0000 
     46 CA         11.3390   28.4290   46.0230 C.3       9 GLL5        0.0000 
     47 CA         11.6110   26.1140   42.7230 C.3       6 GLP5        0.0000 
     48 CA         11.6945   29.2585   44.1340 C.3       3 GLC5        0.0000 
     49 CA         12.0500   30.0880   42.2450 C.3       6 GLP5        0.0000 
     50 O          13.3755   29.4460   44.7725 O.2       1 ALC1        0.0000 
     51 O          12.6270   28.7580   46.0670 O.2       7 ALL1        0.0000 
     52 O          14.1240   30.1340   43.4780 O.2       4 ALP1        0.0000 
     53 N          10.9015   30.3095   44.5335 N.am      2 SEC2        0.0000 
     54 N          10.5190   28.9990   45.0760 N.am      8 SEL2        0.0000 
     55 N          11.2840   31.6200   43.9910 N.am      5 SEP2        0.0000 
     56 CA          7.4985   28.0985   44.0260 C.3       3 GLC5        0.0000 
     57 CA          9.1750   28.6700   45.0100 C.3       9 GLL5        0.0000 
     58 CA          5.8220   27.5270   43.0420 C.3       6 GLP5        0.0000 
     59 CA          9.8430   27.0110   44.2365 C.3       3 GLC5        0.0000 
     60 CA         10.5110   25.3520   43.4630 C.3       6 GLP5        0.0000 
     61 CA         10.6125   29.3790   43.6275 C.3       3 GLC5        0.0000 
     62 CA          2.2040   24.8563   49.6077 C.3       3 GLC5        0.0000 
     63 CA          2.7660   25.6220   50.9460 C.3       9 GLL5        0.0000 
     64 CA          2.5553   23.6562   52.0998 C.3       3 GLC5        0.0000 
     65 CA          4.7302   26.9243   51.1202 C.3       3 GLC5        0.0000 
     66 CA          6.2387   26.5890   50.6065 C.3       3 GLC5        0.0000 
     67 CA          5.8952   22.6433   49.5640 C.3       3 GLC5        0.0000 
     68 CA          6.3480   25.0390   49.6830 C.3       9 GLL5        0.0000 
     69 CA          9.5152   23.8342   47.9588 C.3       3 GLC5        0.0000 
     70 CA         11.1990   22.7480   47.8690 C.3       6 GLP5        0.0000 
     71 CA         10.6275   25.9350   45.7423 C.3       3 GLC5        0.0000 
     72 CA          9.4370   27.1830   46.8590 C.3       9 GLL5        0.0000 
     73 CA         11.1350   24.5270   44.5900 C.3       6 GLP5        0.0000 
@<TRIPOS>BOND
@<TRIPOS>SUBSTRUCTURE
     1 ALC1        1 GROUP        1 X    ALC  0     ROOT ALC X 1
     2 SEC2       19 GROUP        1 X    SEC  0     **** SEC X 2
     3 GLC5        6 GROUP        1 X    GLC  0     **** GLC X 6
     4 ALP1        3 GROUP        1 Y    ALP  0     ROOT ALP Y 8
     5 SEP2       21 GROUP        1 Y    SEP  0     **** SEP Y 9
     6 GLP5        8 GROUP        1 Y    GLP  0     **** GLP Y 13
     7 ALL1        2 GROUP        1 Z    ALL  0     ROOT ALL Z 15
     8 SEL2       20 GROUP        1 Z    SEL  0     **** SEL Z 16
     9 GLL5        7 GROUP        1 Z    GLL  0     **** GLL Z 20
@<TRIPOS>SET

