#    Name: 2efj_SAH_1_ligand
#    Modification time : Tue Mar 25 11:00:44 2014

@<TRIPOS>MOLECULE
2efj_SAH_1_ligand
   46    48     1     0     0
SMALL
NO_CHARGES


@<TRIPOS>ATOM
      1 N           2.1880   28.0120   51.3780 N.4       1 SAH501      0.0000 
      2 CA          1.6480   26.6230   51.2490 C.3       1 SAH501      0.0000 
      3 CB          2.7660   25.6220   50.9460 C.3       1 SAH501      0.0000 
      4 CG          3.8910   25.5090   51.9650 C.3       1 SAH501      0.0000 
      5 SD          4.8210   23.9570   51.7340 S.3       1 SAH501      0.0000 
      6 C           0.8810   26.1610   52.4860 C.2       1 SAH501      0.0000 
      7 O           0.5570   26.9500   53.3900 O.co2     1 SAH501      0.0000 
      8 OXT         0.5710   24.9750   52.5870 O.co2     1 SAH501      0.0000 
      9 C5'         6.3430   24.7510   51.1730 C.3       1 SAH501      0.0000 
     10 C4'         6.3480   25.0390   49.6830 C.3       1 SAH501      0.0000 
     11 O4'         7.4580   25.8480   49.4700 O.3       1 SAH501      0.0000 
     12 C3'         6.5270   23.8460   48.7350 C.3       1 SAH501      0.0000 
     13 O3'         5.4380   23.7220   47.8390 O.3       1 SAH501      0.0000 
     14 C2'         7.8180   24.1650   47.9820 C.3       1 SAH501      0.0000 
     15 O2'         7.8850   23.7010   46.6410 O.3       1 SAH501      0.0000 
     16 C1'         7.8450   25.6760   48.1150 C.3       1 SAH501      0.0000 
     17 N9          9.1730   26.2720   47.8530 N.pl3     1 SAH501      0.0000 
     18 C8         10.3510   26.0580   48.5250 C.2       1 SAH501      0.0000 
     19 N7         11.3430   26.8000   47.9570 N.2       1 SAH501      0.0000 
     20 C5         10.8030   27.5030   46.9300 C.ar      1 SAH501      0.0000 
     21 C6         11.3390   28.4290   46.0230 C.ar      1 SAH501      0.0000 
     22 N6         12.6270   28.7580   46.0670 N.pl3     1 SAH501      0.0000 
     23 N1         10.5190   28.9990   45.0760 N.ar      1 SAH501      0.0000 
     24 C2          9.1750   28.6700   45.0100 C.ar      1 SAH501      0.0000 
     25 N3          8.6390   27.7480   45.9080 N.ar      1 SAH501      0.0000 
     26 C4          9.4370   27.1830   46.8590 C.ar      1 SAH501      0.0000 
     27 H           0.9517   26.5890   50.3980 H         1 SAH501      0.0000 
     28 H           3.2074   25.8780   49.9525 H         1 SAH501      0.0000 
     29 H           2.3067   24.6135   50.8066 H         1 SAH501      0.0000 
     30 H           3.5552   25.4197   52.9716 H         1 SAH501      0.0000 
     31 H           4.6528   26.2442   51.8511 H         1 SAH501      0.0000 
     32 H           7.0964   24.0456   51.4782 H         1 SAH501      0.0000 
     33 H           6.3788   25.6368   51.7833 H         1 SAH501      0.0000 
     34 H           5.4482   25.5640   49.4167 H         1 SAH501      0.0000 
     35 H           6.7002   22.9793   49.3285 H         1 SAH501      0.0000 
     36 H           8.6315   23.7955   48.6097 H         1 SAH501      0.0000 
     37 H           7.0964   26.0746   47.4629 H         1 SAH501      0.0000 
     38 H          10.4549   25.4697   49.2844 H         1 SAH501      0.0000 
     39 H          13.0721   28.6752   46.9586 H         1 SAH501      0.0000 
     40 H          13.0341   29.0585   45.2045 H         1 SAH501      0.0000 
     41 H           8.5697   29.1033   44.3006 H         1 SAH501      0.0000 
     42 H           3.0007   28.1486   50.8116 H         1 SAH501      0.0000 
     43 H           1.5171   28.6988   51.0983 H         1 SAH501      0.0000 
     44 H           2.4484   28.2232   52.3201 H         1 SAH501      0.0000 
     45 H           5.5380   24.4872   47.2029 H         1 SAH501      0.0000 
     46 H           7.2881   24.3151   46.1247 H         1 SAH501      0.0000 
@<TRIPOS>BOND
     1    2    1 1    
     2   42    1 1    
     3   43    1 1    
     4   44    1 1    
     5    3    2 1    
     6    6    2 1    
     7   27    2 1    
     8    4    3 1    
     9   28    3 1    
    10   29    3 1    
    11    5    4 1    
    12   30    4 1    
    13   31    4 1    
    14    9    5 1    
    15    7    6 ar   
    16    8    6 ar   
    17   10    9 1    
    18   32    9 1    
    19   33    9 1    
    20   11   10 1    
    21   12   10 1    
    22   34   10 1    
    23   16   11 1    
    24   13   12 1    
    25   14   12 1    
    26   35   12 1    
    27   45   13 1    
    28   15   14 1    
    29   16   14 1    
    30   36   14 1    
    31   46   15 1    
    32   17   16 1    
    33   37   16 1    
    34   18   17 1    
    35   26   17 1    
    36   19   18 2    
    37   38   18 1    
    38   20   19 1    
    39   21   20 ar   
    40   26   20 ar   
    41   22   21 1    
    42   23   21 ar   
    43   39   22 1    
    44   40   22 1    
    45   24   23 ar   
    46   25   24 ar   
    47   41   24 1    
    48   26   25 ar   
@<TRIPOS>SUBSTRUCTURE
     1 SAH501      1 GROUP   
@<TRIPOS>SET

