#    Name: 2cbs_R13_1_INTS_M
#    Modification time : Mon Mar 24 23:25:37 2014

@<TRIPOS>MOLECULE
2cbs_R13_1_INTS_M
   70     0     9     0     0
SMALL
NO_CHARGES


@<TRIPOS>ATOM
      1 CA         21.8770   31.4305   12.9960 C.3       3 GLC5        0.0000 
      2 CA         21.0690   31.2690   15.0880 C.3       9 GLL5        0.0000 
      3 CA         22.6850   31.5920   10.9040 C.3       6 GLP5        0.0000 
      4 CA         20.3975   30.6785   12.0965 C.3       3 GLC5        0.0000 
      5 CA         20.4100   30.2440   14.1100 C.3       9 GLL5        0.0000 
      6 CA         20.3850   31.1130   10.0830 C.3       6 GLP5        0.0000 
      7 CA         19.3390   25.3750   15.9080 C.3       3 GLC5        0.0000 
      8 CA         19.7760   27.4010   16.7060 C.3       9 GLL5        0.0000 
      9 CA         18.9020   23.3490   15.1100 C.3       6 GLP5        0.0000 
     10 CA         18.9925   25.2650   18.4400 C.3       3 GLC5        0.0000 
     11 CA         20.4030   26.8550   17.8480 C.3       9 GLL5        0.0000 
     12 CA         17.5820   23.6750   19.0320 C.3       6 GLP5        0.0000 
     13 CA         23.7635   29.5160   18.5185 C.3       3 GLC5        0.0000 
     14 CA         22.0610   28.6780   17.8210 C.3       9 GLL5        0.0000 
     15 CA         25.4660   30.3540   19.2160 C.3       6 GLP5        0.0000 
     16 CA         22.8660   26.5960   17.5745 C.3       3 GLC5        0.0000 
     17 CA         22.2470   26.9180   19.6740 C.3       9 GLL5        0.0000 
     18 CA         23.4850   26.2740   15.4750 C.3       6 GLP5        0.0000 
     19 CA         23.8180   26.2455   22.6505 C.3       3 GLC5        0.0000 
     20 CA         22.1540   25.3030   21.4780 C.3       9 GLL5        0.0000 
     21 CA         25.4820   27.1880   23.8230 C.3       6 GLP5        0.0000 
     22 CA         20.0390   21.2195   22.6830 C.3       3 GLC5        0.0000 
     23 CA         21.1190   22.7080   23.9000 C.3       9 GLL5        0.0000 
     24 CA         18.9590   19.7310   21.4660 C.3       6 GLP5        0.0000 
     25 CA         16.6580   28.3495   15.6845 C.3       3 GLC5        0.0000 
     26 CA         18.2110   29.8240   15.2730 C.3       9 GLL5        0.0000 
     27 CA         15.1050   26.8750   16.0960 C.3       6 GLP5        0.0000 
     28 CA         19.4390   27.3200   12.1855 C.3       3 GLC5        0.0000 
     29 CA         19.2060   28.0870   13.8430 C.3       9 GLL5        0.0000 
     30 CA         19.6720   26.5530   10.5280 C.3       6 GLP5        0.0000 
     31 CA         23.8730   30.9805   18.2195 C.3       3 GLC5        0.0000 
     32 CA         22.2800   31.6070   17.2230 C.3       9 GLL5        0.0000 
     33 CA         22.1325   31.4775   19.4415 C.3       3 GLC5        0.0000 
     34 CA         21.9850   31.3480   21.6600 C.3       6 GLP5        0.0000 
     35 CA         25.2695   30.4000   14.9720 C.3       3 GLC5        0.0000 
     36 CA         23.3810   30.3210   15.4280 C.3       9 GLL5        0.0000 
     37 CA         27.1580   30.4790   14.5160 C.3       6 GLP5        0.0000 
     38 CA         23.4330   28.2975   15.4515 C.3       3 GLC5        0.0000 
     39 CA         24.4235   30.3375   17.3220 C.3       3 GLC5        0.0000 
     40 CA         25.7490   27.7400   19.8740 C.3       3 GLC5        0.0000 
     41 CA         23.5570   27.5550   20.1970 C.3       9 GLL5        0.0000 
     42 CA         27.9410   27.9250   19.5510 C.3       6 GLP5        0.0000 
     43 CA         24.5195   27.3715   22.0100 C.3       3 GLC5        0.0000 
     44 CA         24.5115   28.9545   19.7065 C.3       3 GLC5        0.0000 
     45 CA         22.7710   29.4515   20.9285 C.3       3 GLC5        0.0000 
     46 CA         24.2195   23.7760   22.0965 C.3       3 GLC5        0.0000 
     47 CA         23.2240   24.1810   23.9910 C.3       9 GLL5        0.0000 
     48 CA         25.2150   23.3710   20.2020 C.3       6 GLP5        0.0000 
     49 CA         24.6830   23.9905   25.1870 C.3       3 GLC5        0.0000 
     50 CA         26.1420   23.8000   26.3830 C.3       6 GLP5        0.0000 
     51 CA         22.6375   24.7720   25.5885 C.3       3 GLC5        0.0000 
     52 CA         22.0510   25.3630   27.1860 C.3       6 GLP5        0.0000 
     53 CA         24.3530   25.6845   23.9070 C.3       3 GLC5        0.0000 
     54 NZ         23.4770   21.1975   24.3870 N.4       2 LYC4        0.0000 
     55 NZ         22.4180   21.3230   25.2820 N.4       8 LYL4        0.0000 
     56 NZ         24.2920   19.9210   22.8790 N.4       5 LYP4        0.0000 
     57 N          22.8880   20.2120   24.3150 N.am      1 SEC2        0.0000 
     58 N          22.4180   21.3230   25.2820 N.am      7 SEL2        0.0000 
     59 N          23.3580   19.1010   23.3480 N.am      4 SEP2        0.0000 
     60 N          23.4770   21.1975   24.3870 N.am      1 SEC2        0.0000 
     61 N          24.5360   21.0720   23.4920 N.am      4 SEP2        0.0000 
     62 CA         21.7537   27.1390   15.9400 C.3       3 GLC5        0.0000 
     63 CA         22.2295   26.7240   16.8002 C.3       3 GLC5        0.0000 
     64 CA         22.6178   27.6225   16.3640 C.3       3 GLC5        0.0000 
     65 CA         21.8068   23.7335   19.9999 C.3       3 GLC5        0.0000 
     66 CA         21.6600   25.8630   20.3090 C.3       9 GLL5        0.0000 
     67 CA         21.9310   22.5330   18.4970 C.3       6 GLP5        0.0000 
     68 CA         23.4488   24.1525   20.8524 C.3       3 GLC5        0.0000 
     69 CA         21.7812   24.2858   25.3965 C.3       3 GLC5        0.0000 
     70 CA         21.9040   23.7090   23.3140 C.3       9 GLL5        0.0000 
@<TRIPOS>BOND
@<TRIPOS>SUBSTRUCTURE
     1 SEC2       57 GROUP        1 X    SEC  0     ROOT SEC X 2
     2 LYC4       54 GROUP        1 X    LYC  0     **** LYC X 4
     3 GLC5        1 GROUP        1 X    GLC  0     **** GLC X 6
     4 SEP2       59 GROUP        1 Y    SEP  0     ROOT SEP Y 9
     5 LYP4       56 GROUP        1 Y    LYP  0     **** LYP Y 11
     6 GLP5        3 GROUP        1 Y    GLP  0     **** GLP Y 13
     7 SEL2       58 GROUP        1 Z    SEL  0     ROOT SEL Z 16
     8 LYL4       55 GROUP        1 Z    LYL  0     **** LYL Z 18
     9 GLL5        2 GROUP        1 Z    GLL  0     **** GLL Z 20
@<TRIPOS>SET

