#    Name: 2cbs_R13_1_ligand
#    Modification time : Mon Mar 24 23:25:37 2014

@<TRIPOS>MOLECULE
2cbs_R13_1_ligand
   54    55     1     0     0
SMALL
NO_CHARGES


@<TRIPOS>ATOM
      1 C1         22.0320   30.5980   16.0950 C.3       1 R13200      0.0000 
      2 C2         21.0690   31.2690   15.0880 C.3       1 R13200      0.0000 
      3 C3         20.4100   30.2440   14.1100 C.3       1 R13200      0.0000 
      4 C4         19.5380   29.1960   14.8440 C.3       1 R13200      0.0000 
      5 C5         20.2690   28.6070   16.1040 C.ar      1 R13200      0.0000 
      6 C6         19.7760   27.4010   16.7060 C.ar      1 R13200      0.0000 
      7 C7         20.4030   26.8550   17.8480 C.ar      1 R13200      0.0000 
      8 C8         21.5450   27.4930   18.4030 C.ar      1 R13200      0.0000 
      9 C9         22.0610   28.6780   17.8210 C.ar      1 R13200      0.0000 
     10 C10        21.4400   29.2640   16.6850 C.ar      1 R13200      0.0000 
     11 C11        22.2470   26.9180   19.6740 C.2       1 R13200      0.0000 
     12 C12        21.6600   25.8630   20.3090 C.2       1 R13200      0.0000 
     13 C13        22.1540   25.3030   21.4780 C.2       1 R13200      0.0000 
     14 C14        21.4580   24.2850   22.1120 C.2       1 R13200      0.0000 
     15 C15        21.9040   23.7090   23.3140 C.2       1 R13200      0.0000 
     16 C16        21.1190   22.7080   23.9000 C.2       1 R13200      0.0000 
     17 C17        21.3750   21.9950   25.1620 C.2       1 R13200      0.0000 
     18 C18        18.2110   29.8240   15.2730 C.3       1 R13200      0.0000 
     19 C19        19.2060   28.0870   13.8430 C.3       1 R13200      0.0000 
     20 C20        22.2800   31.6070   17.2230 C.3       1 R13200      0.0000 
     21 C21        23.3810   30.3210   15.4280 C.3       1 R13200      0.0000 
     22 C22        23.5570   27.5550   20.1970 C.3       1 R13200      0.0000 
     23 C23        23.2240   24.1810   23.9910 C.3       1 R13200      0.0000 
     24 O1         22.4180   21.3230   25.2820 O.co2     1 R13200      0.0000 
     25 O2         20.5490   22.0950   26.0900 O.co2     1 R13200      0.0000 
     26 H          21.6203   32.0044   14.5003 H         1 R13200      0.0000 
     27 H          20.2784   31.7833   15.6362 H         1 R13200      0.0000 
     28 H          21.1998   29.7305   13.5607 H         1 R13200      0.0000 
     29 H          19.7894   30.7911   13.3994 H         1 R13200      0.0000 
     30 H          18.9609   26.9390   16.2961 H         1 R13200      0.0000 
     31 H          20.0396   26.0046   18.2761 H         1 R13200      0.0000 
     32 H          22.8939   29.1198   18.2241 H         1 R13200      0.0000 
     33 H          20.7818   25.4432   19.8959 H         1 R13200      0.0000 
     34 H          23.0412   25.6448   21.8764 H         1 R13200      0.0000 
     35 H          20.5742   23.9297   21.6898 H         1 R13200      0.0000 
     36 H          20.2274   22.4094   23.3935 H         1 R13200      0.0000 
     37 H          18.3490   30.5972   15.8920 H         1 R13200      0.0000 
     38 H          17.6910   30.1647   14.4897 H         1 R13200      0.0000 
     39 H          17.6264   29.1676   15.7498 H         1 R13200      0.0000 
     40 H          20.0311   27.6441   13.4922 H         1 R13200      0.0000 
     41 H          18.6418   27.3715   14.2550 H         1 R13200      0.0000 
     42 H          18.7034   28.4380   13.0530 H         1 R13200      0.0000 
     43 H          22.9018   31.2433   17.9166 H         1 R13200      0.0000 
     44 H          22.6860   32.4543   16.8807 H         1 R13200      0.0000 
     45 H          21.4323   31.8564   17.6912 H         1 R13200      0.0000 
     46 H          23.8126   31.1613   15.0999 H         1 R13200      0.0000 
     47 H          24.0250   29.8876   16.0584 H         1 R13200      0.0000 
     48 H          23.2877   29.7124   14.6400 H         1 R13200      0.0000 
     49 H          23.8961   27.0891   21.0143 H         1 R13200      0.0000 
     50 H          24.2867   27.5174   19.5142 H         1 R13200      0.0000 
     51 H          23.4313   28.5171   20.4390 H         1 R13200      0.0000 
     52 H          24.0159   24.0451   23.3957 H         1 R13200      0.0000 
     53 H          23.1953   25.1532   24.2232 H         1 R13200      0.0000 
     54 H          23.4055   23.6825   24.8386 H         1 R13200      0.0000 
@<TRIPOS>BOND
     1    2    1 1    
     2   10    1 1    
     3   20    1 1    
     4   21    1 1    
     5    3    2 1    
     6   26    2 1    
     7   27    2 1    
     8    4    3 1    
     9   28    3 1    
    10   29    3 1    
    11    5    4 1    
    12   18    4 1    
    13   19    4 1    
    14    6    5 ar   
    15   10    5 ar   
    16    7    6 ar   
    17   30    6 1    
    18    8    7 ar   
    19   31    7 1    
    20    9    8 ar   
    21   11    8 1    
    22   10    9 ar   
    23   32    9 1    
    24   12   11 2    
    25   22   11 1    
    26   13   12 1    
    27   33   12 1    
    28   14   13 2    
    29   34   13 1    
    30   15   14 1    
    31   35   14 1    
    32   16   15 2    
    33   23   15 1    
    34   17   16 1    
    35   36   16 1    
    36   24   17 ar   
    37   25   17 ar   
    38   37   18 1    
    39   38   18 1    
    40   39   18 1    
    41   40   19 1    
    42   41   19 1    
    43   42   19 1    
    44   43   20 1    
    45   44   20 1    
    46   45   20 1    
    47   46   21 1    
    48   47   21 1    
    49   48   21 1    
    50   49   22 1    
    51   50   22 1    
    52   51   22 1    
    53   52   23 1    
    54   53   23 1    
    55   54   23 1    
@<TRIPOS>SUBSTRUCTURE
     1 R13200      1 GROUP   
@<TRIPOS>SET

