#    Name: 2zvj_SAM_1_INTS_M
#    Modification time : Tue Mar 25 11:10:08 2014

@<TRIPOS>MOLECULE
2zvj_SAM_1_INTS_M
   92     0    12     0     0
SMALL
NO_CHARGES


@<TRIPOS>ATOM
      1 OD1       -19.7280    6.6210  -17.1200 O.co2     3 ASC3        0.0000 
      2 OD1       -19.9530    6.4900  -15.8520 O.co2    11 ASL3        0.0000 
      3 OD1       -19.5030    6.7520  -18.3880 O.co2     7 ASP3        0.0000 
      4 O         -19.9280    5.2935  -15.1725 O.2       1 ALC1        0.0000 
      5 O         -19.9530    6.4900  -15.8520 O.2       9 ALL1        0.0000 
      6 O         -19.9030    4.0970  -14.4930 O.2       5 ALP1        0.0000 
      7 O         -20.9275    7.2525  -15.1095 O.2       1 ALC1        0.0000 
      8 O         -21.9020    8.0150  -14.3670 O.2       5 ALP1        0.0000 
      9 O         -19.7280    6.6210  -17.1200 O.2       1 ALC1        0.0000 
     10 O         -19.5030    6.7520  -18.3880 O.2       5 ALP1        0.0000 
     11 CA        -19.0360    5.7765  -13.3835 C.3       4 GLC5        0.0000 
     12 CA        -18.9140    7.1920  -15.0570 C.3      12 GLL5        0.0000 
     13 CA        -19.1580    4.3610  -11.7100 C.3       8 GLP5        0.0000 
     14 CA        -20.7520    8.1865  -14.9260 C.3       4 GLC5        0.0000 
     15 CA        -22.5900    9.1810  -14.7950 C.3       8 GLP5        0.0000 
     16 N         -19.2975   10.1630  -16.8980 N.am      2 SEC2        0.0000 
     17 N         -19.7860    9.1960  -15.9720 N.am     10 SEL2        0.0000 
     18 N         -18.8090   11.1300  -17.8240 N.am      6 SEP2        0.0000 
     19 N         -20.2060    9.9275  -13.5025 N.am      2 SEC2        0.0000 
     20 N         -18.7740    9.4050  -14.1020 N.am     10 SEL2        0.0000 
     21 N         -21.6380   10.4500  -12.9030 N.am      6 SEP2        0.0000 
     22 CA        -17.1500    9.1170  -16.0820 C.3       4 GLC5        0.0000 
     23 CA        -17.5350    6.9770  -15.6740 C.3      12 GLL5        0.0000 
     24 CA        -16.7650   11.2570  -16.4900 C.3       8 GLP5        0.0000 
     25 CA        -18.1690    3.6530  -15.1815 C.3       4 GLC5        0.0000 
     26 CA        -17.1930    5.4950  -15.7920 C.3      12 GLL5        0.0000 
     27 CA        -19.1450    1.8110  -14.5710 C.3       8 GLP5        0.0000 
     28 CA        -14.2090    6.4730  -16.8925 C.3       4 GLC5        0.0000 
     29 CA        -15.4920    5.2490  -16.3480 C.3      12 GLL5        0.0000 
     30 CA        -12.9260    7.6970  -17.4370 C.3       8 GLP5        0.0000 
     31 CA        -13.9560    5.8565  -18.0415 C.3       4 GLC5        0.0000 
     32 CA        -15.6920    5.6010  -18.1280 C.3      12 GLL5        0.0000 
     33 CA        -12.2200    6.1120  -17.9550 C.3       8 GLP5        0.0000 
     34 CA        -13.8735    4.7790  -17.2695 C.3       4 GLC5        0.0000 
     35 CA        -15.5270    3.4460  -16.5840 C.3      12 GLL5        0.0000 
     36 CA        -16.6655    2.1090  -17.6460 C.3       4 GLC5        0.0000 
     37 CA        -17.8040    0.7720  -18.7080 C.3       8 GLP5        0.0000 
     38 O         -15.1160    2.5510  -12.6680 O.2       1 ALC1        0.0000 
     39 O         -14.1180    3.0740  -13.3960 O.2       9 ALL1        0.0000 
     40 O         -16.1140    2.0280  -11.9400 O.2       5 ALP1        0.0000 
     41 O         -14.3410    1.8245  -12.3545 O.2       1 ALC1        0.0000 
     42 O         -14.5640    0.5750  -11.3130 O.2       5 ALP1        0.0000 
     43 O         -13.8870    0.5570  -12.3905 O.2       1 ALC1        0.0000 
     44 O         -13.2100    0.5390  -13.4680 O.2       9 ALL1        0.0000 
     45 CA        -17.1960    1.1225  -14.6250 C.3       4 GLC5        0.0000 
     46 CA        -15.2470    0.4340  -14.6790 C.3      12 GLL5        0.0000 
     47 CA        -16.7030   -0.0150  -16.2655 C.3       4 GLC5        0.0000 
     48 CA        -18.1590   -0.4640  -17.8520 C.3       8 GLP5        0.0000 
     49 CA        -17.0435   -5.4255  -14.1830 C.3       4 GLC5        0.0000 
     50 CA        -16.8640   -4.0000  -15.7770 C.3      12 GLL5        0.0000 
     51 CA        -17.2230   -6.8510  -12.5890 C.3       8 GLP5        0.0000 
     52 CA        -18.8455   -4.7615  -15.6250 C.3       4 GLC5        0.0000 
     53 CA        -20.8270   -5.5230  -15.4730 C.3       8 GLP5        0.0000 
     54 CA        -18.1290   -3.3625  -16.9745 C.3       4 GLC5        0.0000 
     55 CA        -19.3940   -2.7250  -18.1720 C.3       8 GLP5        0.0000 
     56 O         -17.0810   -6.5315  -16.6040 O.2       1 ALC1        0.0000 
     57 O         -16.7810   -5.0290  -16.6370 O.2       9 ALL1        0.0000 
     58 O         -17.3810   -8.0340  -16.5710 O.2       5 ALP1        0.0000 
     59 N         -18.4420   -5.2440  -14.2880 N.am      2 SEC2        0.0000 
     60 N         -17.7080   -4.0950  -14.6910 N.am     10 SEL2        0.0000 
     61 N         -19.1760   -6.3930  -13.8850 N.am      6 SEP2        0.0000 
     62 CA        -19.7850   -2.9005  -12.8000 C.3       4 GLC5        0.0000 
     63 CA        -17.8020   -3.0700  -13.7650 C.3      12 GLL5        0.0000 
     64 CA        -21.7680   -2.7310  -11.8350 C.3       8 GLP5        0.0000 
     65 CA        -17.7770   -1.9030  -12.1080 C.3       4 GLC5        0.0000 
     66 CA        -17.7520   -0.7360  -10.4510 C.3       8 GLP5        0.0000 
     67 CA        -16.1930   -3.5590  -12.8400 C.3       4 GLC5        0.0000 
     68 CA        -14.5840   -4.0480  -11.9150 C.3       8 GLP5        0.0000 
     69 CA        -17.5125   -4.9605  -13.1770 C.3       4 GLC5        0.0000 
     70 CA        -19.3145   -4.2965  -14.6190 C.3       4 GLC5        0.0000 
     71 N         -16.4305   -2.0355  -12.4030 N.am      2 SEC2        0.0000 
     72 N         -17.0530   -1.9310  -13.9280 N.am     10 SEL2        0.0000 
     73 N         -15.8080   -2.1400  -10.8780 N.am      6 SEP2        0.0000 
     74 CA        -14.8905   -2.6195  -13.8985 C.3       4 GLC5        0.0000 
     75 CA        -16.2270   -1.8280  -14.9860 C.3      12 GLL5        0.0000 
     76 CA        -13.5540   -3.4110  -12.8110 C.3       8 GLP5        0.0000 
     77 CA        -16.8657    6.7917  -14.1218 C.3       4 GLC5        0.0000 
     78 CA        -15.5070    6.4990  -12.8780 C.3       8 GLP5        0.0000 
     79 CA        -15.9248    5.9355  -14.4740 C.3       4 GLC5        0.0000 
     80 CA        -17.3185    2.4282  -15.2555 C.3       4 GLC5        0.0000 
     81 CA        -13.9695    2.4832  -17.1260 C.3       4 GLC5        0.0000 
     82 CA        -15.4570    2.6450  -15.2960 C.3      12 GLL5        0.0000 
     83 CA        -12.4470    1.9210  -18.3120 C.3       8 GLP5        0.0000 
     84 CA        -12.9395    2.4307  -12.9518 C.3       4 GLC5        0.0000 
     85 CA        -14.0670    2.5120  -14.6890 C.3      12 GLL5        0.0000 
     86 CA        -11.9290    3.1080  -11.2390 C.3       8 GLP5        0.0000 
     87 CA        -12.6575    1.6843  -16.0538 C.3       4 GLC5        0.0000 
     88 CA        -11.3650    1.6150  -17.4430 C.3       8 GLP5        0.0000 
     89 CA        -14.8068   -3.9493  -15.0277 C.3       4 GLC5        0.0000 
     90 CA        -16.1090   -2.8490  -15.9220 C.3      12 GLL5        0.0000 
     91 CA        -13.1270   -4.4740  -14.2060 C.3       8 GLP5        0.0000 
     92 CA        -17.1635   -1.4013  -16.6530 C.3       4 GLC5        0.0000 
@<TRIPOS>BOND
@<TRIPOS>SUBSTRUCTURE
     1 ALC1        4 GROUP        1 X    ALC  0     ROOT ALC X 1
     2 SEC2       16 GROUP        1 X    SEC  0     **** SEC X 2
     3 ASC3        1 GROUP        1 X    ASC  0     **** ASC X 3
     4 GLC5       11 GROUP        1 X    GLC  0     **** GLC X 6
     5 ALP1        6 GROUP        1 Y    ALP  0     ROOT ALP Y 8
     6 SEP2       18 GROUP        1 Y    SEP  0     **** SEP Y 9
     7 ASP3        3 GROUP        1 Y    ASP  0     **** ASP Y 10
     8 GLP5       13 GROUP        1 Y    GLP  0     **** GLP Y 13
     9 ALL1        5 GROUP        1 Z    ALL  0     ROOT ALL Z 15
    10 SEL2       17 GROUP        1 Z    SEL  0     **** SEL Z 16
    11 ASL3        2 GROUP        1 Z    ASL  0     **** ASL Z 17
    12 GLL5       12 GROUP        1 Z    GLL  0     **** GLL Z 20
@<TRIPOS>SET

