#    Name: 2zvj_SAM_1_ligand
#    Modification time : Tue Mar 25 11:10:08 2014

@<TRIPOS>MOLECULE
2zvj_SAM_1_ligand
   50    52     1     0     0
SMALL
NO_CHARGES


@<TRIPOS>ATOM
      1 N         -19.9530    6.4900  -15.8520 N.4       1 SAM301      0.0000 
      2 CA        -18.9140    7.1920  -15.0570 C.3       1 SAM301      0.0000 
      3 C         -19.1830    8.6920  -15.0240 C.2       1 SAM301      0.0000 
      4 O         -19.7860    9.1960  -15.9720 O.co2     1 SAM301      0.0000 
      5 OXT       -18.7740    9.4050  -14.1020 O.co2     1 SAM301      0.0000 
      6 CB        -17.5350    6.9770  -15.6740 C.3       1 SAM301      0.0000 
      7 CG        -17.1930    5.4950  -15.7920 C.3       1 SAM301      0.0000 
      8 SD        -15.4920    5.2490  -16.3480 S.3       1 SAM301      0.0000 
      9 CE        -15.6920    5.6010  -18.1280 C.3       1 SAM301      0.0000 
     10 C5'       -15.5270    3.4460  -16.5840 C.3       1 SAM301      0.0000 
     11 C4'       -15.4570    2.6450  -15.2960 C.3       1 SAM301      0.0000 
     12 O4'       -15.9350    1.3280  -15.5220 O.3       1 SAM301      0.0000 
     13 C3'       -14.0670    2.5120  -14.6890 C.3       1 SAM301      0.0000 
     14 O3'       -14.1180    3.0740  -13.3960 O.3       1 SAM301      0.0000 
     15 C2'       -13.8330    0.9950  -14.6400 C.3       1 SAM301      0.0000 
     16 O2'       -13.2100    0.5390  -13.4680 O.3       1 SAM301      0.0000 
     17 C1'       -15.2470    0.4340  -14.6790 C.3       1 SAM301      0.0000 
     18 N9        -15.3760   -0.8250  -15.3750 N.pl3     1 SAM301      0.0000 
     19 C8        -14.7530   -1.2010  -16.5480 C.2       1 SAM301      0.0000 
     20 N7        -15.2150   -2.4320  -16.8530 N.2       1 SAM301      0.0000 
     21 C5        -16.1090   -2.8490  -15.9220 C.ar      1 SAM301      0.0000 
     22 C6        -16.8640   -4.0000  -15.7770 C.ar      1 SAM301      0.0000 
     23 N6        -16.7810   -5.0290  -16.6370 N.pl3     1 SAM301      0.0000 
     24 N1        -17.7080   -4.0950  -14.6910 N.ar      1 SAM301      0.0000 
     25 C2        -17.8020   -3.0700  -13.7650 C.ar      1 SAM301      0.0000 
     26 N3        -17.0530   -1.9310  -13.9280 N.ar      1 SAM301      0.0000 
     27 C4        -16.2270   -1.8280  -14.9860 C.ar      1 SAM301      0.0000 
     28 H         -18.8969    6.8249  -14.0493 H         1 SAM301      0.0000 
     29 H         -16.7829    7.4710  -15.0532 H         1 SAM301      0.0000 
     30 H         -17.5116    7.4314  -16.6680 H         1 SAM301      0.0000 
     31 H         -17.7579    4.9848  -16.5419 H         1 SAM301      0.0000 
     32 H         -17.2083    4.9775  -14.8573 H         1 SAM301      0.0000 
     33 H         -14.6813    3.2888  -17.2391 H         1 SAM301      0.0000 
     34 H         -16.4499    3.3090  -17.1305 H         1 SAM301      0.0000 
     35 H         -16.0952    3.1355  -14.5502 H         1 SAM301      0.0000 
     36 H         -13.3748    2.9506  -15.3354 H         1 SAM301      0.0000 
     37 H         -13.3524    0.7009  -15.5409 H         1 SAM301      0.0000 
     38 H         -15.6621    0.4193  -13.7238 H         1 SAM301      0.0000 
     39 H         -14.1245   -0.6816  -17.0320 H         1 SAM301      0.0000 
     40 H         -16.5526   -4.7952  -17.5821 H         1 SAM301      0.0000 
     41 H         -16.9551   -5.9367  -16.2551 H         1 SAM301      0.0000 
     42 H         -18.4347   -3.1669  -12.9565 H         1 SAM301      0.0000 
     43 H         -20.8337    6.9620  -15.8115 H         1 SAM301      0.0000 
     44 H         -19.7003    6.4234  -16.8172 H         1 SAM301      0.0000 
     45 H         -20.1049    5.5577  -15.5238 H         1 SAM301      0.0000 
     46 H         -14.8788    5.3453  -18.6508 H         1 SAM301      0.0000 
     47 H         -16.4629    5.1000  -18.5213 H         1 SAM301      0.0000 
     48 H         -15.8563    6.5726  -18.2983 H         1 SAM301      0.0000 
     49 H         -14.8733    2.6040  -12.9393 H         1 SAM301      0.0000 
     50 H         -13.9554    0.2005  -12.8937 H         1 SAM301      0.0000 
@<TRIPOS>BOND
     1    2    1 1    
     2   43    1 1    
     3   44    1 1    
     4   45    1 1    
     5    3    2 1    
     6    6    2 1    
     7   28    2 1    
     8    4    3 ar   
     9    5    3 ar   
    10    7    6 1    
    11   29    6 1    
    12   30    6 1    
    13    8    7 1    
    14   31    7 1    
    15   32    7 1    
    16    9    8 1    
    17   10    8 1    
    18   46    9 1    
    19   47    9 1    
    20   48    9 1    
    21   11   10 1    
    22   33   10 1    
    23   34   10 1    
    24   12   11 1    
    25   13   11 1    
    26   35   11 1    
    27   17   12 1    
    28   14   13 1    
    29   15   13 1    
    30   36   13 1    
    31   49   14 1    
    32   16   15 1    
    33   17   15 1    
    34   37   15 1    
    35   50   16 1    
    36   18   17 1    
    37   38   17 1    
    38   19   18 1    
    39   27   18 1    
    40   20   19 2    
    41   39   19 1    
    42   21   20 1    
    43   22   21 ar   
    44   27   21 ar   
    45   23   22 1    
    46   24   22 ar   
    47   40   23 1    
    48   41   23 1    
    49   25   24 ar   
    50   26   25 ar   
    51   42   25 1    
    52   27   26 ar   
@<TRIPOS>SUBSTRUCTURE
     1 SAM301      1 GROUP   
@<TRIPOS>SET

