#    Name: 1s2c_FLF_1_INTS_M
#    Modification time : Tue Mar 25 01:51:59 2014

@<TRIPOS>MOLECULE
1s2c_FLF_1_INTS_M
   38     0     9     0     0
SMALL
NO_CHARGES


@<TRIPOS>ATOM
      1 N          29.2470  -29.3150   61.6435 N.am      2 SEC2        0.0000 
      2 N          28.1750  -28.6650   61.8380 N.am      8 SEL2        0.0000 
      3 N          30.3190  -29.9650   61.4490 N.am      5 SEP2        0.0000 
      4 N          28.5500  -28.3205   63.1785 N.am      2 SEC2        0.0000 
      5 N          28.9250  -27.9760   64.5190 N.am      5 SEP2        0.0000 
      6 O          27.3460  -26.1120   62.4415 O.2       1 ALC1        0.0000 
      7 O          26.1010  -26.8590   62.5420 O.2       7 ALL1        0.0000 
      8 O          28.5910  -25.3650   62.3410 O.2       4 ALP1        0.0000 
      9 CA         25.5685  -28.3080   64.8195 C.3       3 GLC5        0.0000 
     10 CA         25.4070  -26.1780   64.6970 C.3       9 GLL5        0.0000 
     11 CA         25.7300  -30.4380   64.9420 C.3       6 GLP5        0.0000 
     12 CA         26.7345  -22.4440   60.7815 C.3       3 GLC5        0.0000 
     13 CA         25.1410  -21.9560   62.1080 C.3       9 GLL5        0.0000 
     14 CA         28.3280  -22.9320   59.4550 C.3       6 GLP5        0.0000 
     15 CA         23.7780  -22.2790   60.6110 C.3       3 GLC5        0.0000 
     16 CA         22.4150  -22.6020   59.1140 C.3       6 GLP5        0.0000 
     17 CA         27.2500  -21.0165   64.3575 C.3       3 GLC5        0.0000 
     18 CA         25.5930  -21.3270   64.0950 C.3       9 GLL5        0.0000 
     19 CA         28.9070  -20.7060   64.6200 C.3       6 GLP5        0.0000 
     20 CA         25.7550  -19.1745   64.5085 C.3       3 GLC5        0.0000 
     21 CA         25.9170  -17.0220   64.9220 C.3       6 GLP5        0.0000 
     22 CA         21.8665  -21.9640   63.9220 C.3       3 GLC5        0.0000 
     23 CA         23.5580  -21.7630   63.5430 C.3       9 GLL5        0.0000 
     24 CA         20.1750  -22.1650   64.3010 C.3       6 GLP5        0.0000 
     25 CA         25.6227  -29.9885   63.0060 C.3       3 GLC5        0.0000 
     26 CA         25.9190  -29.0180   61.2950 C.3       9 GLL5        0.0000 
     27 CA         24.6028  -29.9790   63.2200 C.3       3 GLC5        0.0000 
     28 CA         23.7490  -30.0440   61.1280 C.3       9 GLL5        0.0000 
     29 CA         25.1887  -29.1730   63.5757 C.3       3 GLC5        0.0000 
     30 CA         23.9630  -27.9320   62.3360 C.3       9 GLL5        0.0000 
     31 CA         27.3603  -26.4880   64.7133 C.3       3 GLC5        0.0000 
     32 CA         29.1900  -26.9540   65.3960 C.3       6 GLP5        0.0000 
     33 CA         24.3507  -22.2645   65.6838 C.3       3 GLC5        0.0000 
     34 CA         24.7880  -23.8910   65.1210 C.3       9 GLL5        0.0000 
     35 CA         23.7880  -20.8050   66.9100 C.3       6 GLP5        0.0000 
     36 CA         26.1520  -23.9280   66.6858 C.3       3 GLC5        0.0000 
     37 CA         27.4230  -23.3140   68.0220 C.3       6 GLP5        0.0000 
     38 CA         24.0855  -21.2745   65.2736 C.3       3 GLC5        0.0000 
@<TRIPOS>BOND
@<TRIPOS>SUBSTRUCTURE
     1 ALC1        6 GROUP        1 X    ALC  0     ROOT ALC X 1
     2 SEC2        1 GROUP        1 X    SEC  0     **** SEC X 2
     3 GLC5        9 GROUP        1 X    GLC  0     **** GLC X 6
     4 ALP1        8 GROUP        1 Y    ALP  0     ROOT ALP Y 8
     5 SEP2        3 GROUP        1 Y    SEP  0     **** SEP Y 9
     6 GLP5       11 GROUP        1 Y    GLP  0     **** GLP Y 13
     7 ALL1        7 GROUP        1 Z    ALL  0     ROOT ALL Z 15
     8 SEL2        2 GROUP        1 Z    SEL  0     **** SEL Z 16
     9 GLL5       10 GROUP        1 Z    GLL  0     **** GLL Z 20
@<TRIPOS>SET

