#    Name: 1s2c_FLF_1_ligand
#    Modification time : Tue Mar 25 01:52:00 2014

@<TRIPOS>MOLECULE
1s2c_FLF_1_ligand
   29    30     1     0     0
SMALL
NO_CHARGES


@<TRIPOS>ATOM
      1 C1         25.9190  -29.0180   61.2950 C.ar      1 FLF2001     0.0000 
      2 O1         28.1750  -28.6650   61.8380 O.co2     1 FLF2001     0.0000 
      3 C2         25.1120  -30.0600   60.8450 C.ar      1 FLF2001     0.0000 
      4 C3         23.7490  -30.0440   61.1280 C.ar      1 FLF2001     0.0000 
      5 O2         27.7350  -29.5810   59.8720 O.co2     1 FLF2001     0.0000 
      6 C4         23.2020  -28.9960   61.8680 C.ar      1 FLF2001     0.0000 
      7 C5         23.9630  -27.9320   62.3360 C.ar      1 FLF2001     0.0000 
      8 C6         25.3320  -27.8840   62.0830 C.ar      1 FLF2001     0.0000 
      9 C7         27.3770  -29.0840   60.9690 C.2       1 FLF2001     0.0000 
     10 N          26.1010  -26.8590   62.5420 N.pl3     1 FLF2001     0.0000 
     11 C1'        25.6540  -25.8660   63.3640 C.ar      1 FLF2001     0.0000 
     12 C2'        25.4750  -24.5560   62.9120 C.ar      1 FLF2001     0.0000 
     13 C3'        25.0390  -23.5570   63.7940 C.ar      1 FLF2001     0.0000 
     14 C4'        24.7880  -23.8910   65.1210 C.ar      1 FLF2001     0.0000 
     15 C5'        24.9740  -25.1930   65.5780 C.ar      1 FLF2001     0.0000 
     16 C6'        25.4070  -26.1780   64.6970 C.ar      1 FLF2001     0.0000 
     17 C7'        24.8230  -22.1230   63.3680 C.3       1 FLF2001     0.0000 
     18 F1         25.1410  -21.9560   62.1080 F         1 FLF2001     0.0000 
     19 F2         25.5930  -21.3270   64.0950 F         1 FLF2001     0.0000 
     20 F3         23.5580  -21.7630   63.5430 F         1 FLF2001     0.0000 
     21 H          25.5187  -30.8328   60.3095 H         1 FLF2001     0.0000 
     22 H          23.1447  -30.8042   60.7920 H         1 FLF2001     0.0000 
     23 H          22.1770  -29.0138   62.0780 H         1 FLF2001     0.0000 
     24 H          23.5150  -27.1754   62.8719 H         1 FLF2001     0.0000 
     25 H          27.1252  -26.8288   62.2385 H         1 FLF2001     0.0000 
     26 H          25.6631  -24.3216   61.9297 H         1 FLF2001     0.0000 
     27 H          24.4588  -23.1627   65.7773 H         1 FLF2001     0.0000 
     28 H          24.7921  -25.4240   66.5611 H         1 FLF2001     0.0000 
     29 H          25.5453  -27.1418   65.0323 H         1 FLF2001     0.0000 
@<TRIPOS>BOND
     1    3    1 ar   
     2    8    1 ar   
     3    9    1 1    
     4    9    2 ar   
     5    4    3 ar   
     6   21    3 1    
     7    6    4 ar   
     8   22    4 1    
     9    9    5 ar   
    10    7    6 ar   
    11   23    6 1    
    12    8    7 ar   
    13   24    7 1    
    14   10    8 1    
    15   11   10 1    
    16   25   10 1    
    17   12   11 ar   
    18   16   11 ar   
    19   13   12 ar   
    20   26   12 1    
    21   14   13 ar   
    22   17   13 1    
    23   15   14 ar   
    24   27   14 1    
    25   16   15 ar   
    26   28   15 1    
    27   29   16 1    
    28   18   17 1    
    29   19   17 1    
    30   20   17 1    
@<TRIPOS>SUBSTRUCTURE
     1 FLF2001     1 GROUP   
@<TRIPOS>SET

