#    Name: 4jvn_YUG_1_INTS_M
#    Modification time : Tue Mar 25 06:37:28 2014

@<TRIPOS>MOLECULE
4jvn_YUG_1_INTS_M
   50     0     9     0     0
SMALL
NO_CHARGES


@<TRIPOS>ATOM
      1 CA         -8.9420   -9.0475   32.0245 C.3       3 GLC5        0.0000 
      2 CA         -7.7280   -9.5710   33.5960 C.3       9 GLL5        0.0000 
      3 CA        -10.1560   -8.5240   30.4530 C.3       6 GLP5        0.0000 
      4 CA         -6.6545   -8.1620   34.3100 C.3       3 GLC5        0.0000 
      5 CA         -5.5810   -6.7530   35.0240 C.3       6 GLP5        0.0000 
      6 CA         -6.3975  -10.4285   32.1700 C.3       3 GLC5        0.0000 
      7 CA         -5.0670  -11.2860   30.7440 C.3       6 GLP5        0.0000 
      8 CA         -9.2860   -8.2955   33.8620 C.3       3 GLC5        0.0000 
      9 CA        -10.8440   -7.0200   34.1280 C.3       6 GLP5        0.0000 
     10 CA         -8.3205  -10.9010   35.2915 C.3       3 GLC5        0.0000 
     11 CA         -7.6400  -12.4510   33.8520 C.3       9 GLL5        0.0000 
     12 CA         -9.0010   -9.3510   36.7310 C.3       6 GLP5        0.0000 
     13 NZ         -7.4920  -13.0330   36.2640 N.4       2 LYC4        0.0000 
     14 NZ         -7.1100  -12.1830   35.0900 N.4       8 LYL4        0.0000 
     15 NZ         -7.8740  -13.8830   37.4380 N.4       5 LYP4        0.0000 
     16 N          -7.4920  -13.0330   36.2640 N.am      1 SEC2        0.0000 
     17 N          -7.1100  -12.1830   35.0900 N.am      7 SEL2        0.0000 
     18 N          -7.8740  -13.8830   37.4380 N.am      4 SEP2        0.0000 
     19 N          -6.0370  -11.3580   35.8160 N.am      1 SEC2        0.0000 
     20 N          -4.9640  -10.5330   36.5420 N.am      4 SEP2        0.0000 
     21 CA         -9.3310  -16.1410   24.4995 C.3       3 GLC5        0.0000 
     22 CA        -10.8280  -16.4930   26.1070 C.3       9 GLL5        0.0000 
     23 CA         -7.8340  -15.7890   22.8920 C.3       6 GLP5        0.0000 
     24 CA         -6.5790  -17.0390   34.8870 C.3       3 GLC5        0.0000 
     25 CA         -7.2170  -15.2310   34.5970 C.3       9 GLL5        0.0000 
     26 CA         -5.9410  -18.8470   35.1770 C.3       6 GLP5        0.0000 
     27 CA         -6.0525  -16.0880   33.0885 C.3       3 GLC5        0.0000 
     28 CA         -4.8880  -16.9450   31.5800 C.3       6 GLP5        0.0000 
     29 CA        -12.8800  -16.5815   28.7615 C.3       3 GLC5        0.0000 
     30 CA        -11.0120  -15.8230   28.9230 C.3       9 GLL5        0.0000 
     31 CA        -14.7480  -17.3400   28.6000 C.3       6 GLP5        0.0000 
     32 CA        -12.4495  -13.4540   31.6910 C.3       3 GLC5        0.0000 
     33 CA        -11.4610  -15.1080   31.7510 C.3       9 GLL5        0.0000 
     34 CA        -13.4380  -11.8000   31.6310 C.3       6 GLP5        0.0000 
     35 CA        -11.4835  -14.4680   33.6335 C.3       3 GLC5        0.0000 
     36 CA        -11.5060  -13.8280   35.5160 C.3       6 GLP5        0.0000 
     37 CA        -12.8560  -15.3125   32.2580 C.3       3 GLC5        0.0000 
     38 CA        -14.2510  -15.5170   32.7650 C.3       6 GLP5        0.0000 
     39 CA         -8.4467   -9.9082   35.0057 C.3       3 GLC5        0.0000 
     40 CA         -8.0570  -11.3600   32.9650 C.3       9 GLL5        0.0000 
     41 CA         -9.2625  -17.9297   27.1008 C.3       3 GLC5        0.0000 
     42 CA        -10.0780  -16.2040   27.8480 C.3       9 GLL5        0.0000 
     43 CA         -8.0720  -19.5110   27.2240 C.3       6 GLP5        0.0000 
     44 CA         -7.3510  -15.0032   28.6893 C.3       3 GLC5        0.0000 
     45 CA         -8.0300  -16.1470   29.4290 C.3       9 GLL5        0.0000 
     46 CA         -6.2050  -14.0620   27.4100 C.3       6 GLP5        0.0000 
     47 CA         -6.6925  -16.4447   30.7742 C.3       3 GLC5        0.0000 
     48 CA         -7.7763  -15.1720   27.6880 C.3       3 GLC5        0.0000 
     49 CA         -8.6170  -16.3600   28.0840 C.3       9 GLL5        0.0000 
     50 CA         -8.1977  -17.8822   27.9902 C.3       3 GLC5        0.0000 
@<TRIPOS>BOND
@<TRIPOS>SUBSTRUCTURE
     1 SEC2       16 GROUP        1 X    SEC  0     ROOT SEC X 2
     2 LYC4       13 GROUP        1 X    LYC  0     **** LYC X 4
     3 GLC5        1 GROUP        1 X    GLC  0     **** GLC X 6
     4 SEP2       18 GROUP        1 Y    SEP  0     ROOT SEP Y 9
     5 LYP4       15 GROUP        1 Y    LYP  0     **** LYP Y 11
     6 GLP5        3 GROUP        1 Y    GLP  0     **** GLP Y 13
     7 SEL2       17 GROUP        1 Z    SEL  0     ROOT SEL Z 16
     8 LYL4       14 GROUP        1 Z    LYL  0     **** LYL Z 18
     9 GLL5        2 GROUP        1 Z    GLL  0     **** GLL Z 20
@<TRIPOS>SET

