#    Name: 4jvn_YUG_1_ligand
#    Modification time : Tue Mar 25 06:37:28 2014

@<TRIPOS>MOLECULE
4jvn_YUG_1_ligand
   23    24     1     0     0
SMALL
NO_CHARGES


@<TRIPOS>ATOM
      1 O          -8.5530  -15.5140   31.7940 O.3       1 YUG501      0.0000 
      2 C1         -8.4210  -14.1690   32.0980 C.ar      1 YUG501      0.0000 
      3 C2         -7.8260  -13.8420   33.4100 C.ar      1 YUG501      0.0000 
      4 BR4        -7.7280   -9.5710   33.5960 Br        1 YUG501      0.0000 
      5 C3         -7.6400  -12.4510   33.8520 C.ar      1 YUG501      0.0000 
      6 O3         -7.1100  -12.1830   35.0900 O.co2     1 YUG501      0.0000 
      7 C4         -8.0570  -11.3600   32.9650 C.ar      1 YUG501      0.0000 
      8 BR3       -10.8280  -16.4930   26.1070 Br        1 YUG501      0.0000 
      9 C5         -8.6590  -11.6520   31.6400 C.ar      1 YUG501      0.0000 
     10 C6         -8.8480  -13.0540   31.1970 C.ar      1 YUG501      0.0000 
     11 C1'        -8.9640  -15.7420   30.5080 C.ar      1 YUG501      0.0000 
     12 C2'       -10.4040  -15.6110   30.2440 C.ar      1 YUG501      0.0000 
     13 BR2        -7.2170  -15.2310   34.5970 Br        1 YUG501      0.0000 
     14 C3'       -11.0120  -15.8230   28.9230 C.ar      1 YUG501      0.0000 
     15 C4'       -10.0780  -16.2040   27.8480 C.ar      1 YUG501      0.0000 
     16 BR1       -11.4610  -15.1080   31.7510 Br        1 YUG501      0.0000 
     17 C5'        -8.6170  -16.3600   28.0840 C.ar      1 YUG501      0.0000 
     18 C6'        -8.0300  -16.1470   29.4290 C.ar      1 YUG501      0.0000 
     19 H          -8.9379  -10.8993   31.0443 H         1 YUG501      0.0000 
     20 H          -9.2516  -13.2561   30.3161 H         1 YUG501      0.0000 
     21 H         -11.9620  -15.7199   28.7669 H         1 YUG501      0.0000 
     22 H          -8.0193  -16.6143   27.3167 H         1 YUG501      0.0000 
     23 H          -7.0788  -16.2669   29.5959 H         1 YUG501      0.0000 
@<TRIPOS>BOND
     1    2    1 1    
     2   11    1 1    
     3    3    2 ar   
     4   10    2 ar   
     5    5    3 ar   
     6   13    3 1    
     7    7    4 1    
     8    6    5 1    
     9    7    5 ar   
    10    9    7 ar   
    11   15    8 1    
    12   10    9 ar   
    13   19    9 1    
    14   20   10 1    
    15   12   11 ar   
    16   18   11 ar   
    17   14   12 ar   
    18   16   12 1    
    19   15   14 ar   
    20   21   14 1    
    21   17   15 ar   
    22   18   17 ar   
    23   22   17 1    
    24   23   18 1    
@<TRIPOS>SUBSTRUCTURE
     1 YUG501      1 GROUP   
@<TRIPOS>SET

