#    Name: 3P5S_1_CAVITY_N1_ALL.mol2
#    Modification time : Mon Mar 10 13:11:51 2014

@<TRIPOS>MOLECULE
3P5S_1_CAVITY_N1_ALL.mol2
   59     0     7     0     0
SMALL
NO_CHARGES


@<TRIPOS>ATOM
      1 CZ         13.1415   13.0669   37.6762 C.ar      5 PHE5        0.0000 
      2 DU         14.2249   12.0686   37.3938 H         7 CUB7        0.0000 
      3 DU         15.3083   11.0703   37.1115 H         7 CUB7        0.0000 
      4 CA         16.3916   10.0720   36.8291 C.3       6 GLY6        0.0000 
      5 DU         13.3036   10.9552   37.7957 H         7 CUB7        0.0000 
      6 DU         14.3870    9.9569   37.5133 H         7 CUB7        0.0000 
      7 CA         15.4703    8.9586   37.2310 C.3       6 GLY6        0.0000 
      8 CZ         14.6691   13.0652   35.5746 C.ar      5 PHE5        0.0000 
      9 O          15.7525   12.0670   35.2923 O.2       2 ALA2        0.0000 
     10 CZ         13.7479   11.9518   35.9765 C.ar      5 PHE5        0.0000 
     11 CA         14.8312   10.9535   35.6941 C.3       6 GLY6        0.0000 
     12 CZ         11.7432   11.8367   36.6607 C.ar      5 PHE5        0.0000 
     13 CZ         12.8266   10.8384   36.3783 C.ar      5 PHE5        0.0000 
     14 CA         13.9099    9.8401   36.0960 C.3       6 GLY6        0.0000 
     15 DU         11.9053    9.7249   36.7802 H         7 CUB7        0.0000 
     16 CA         12.9887    8.7266   36.4979 C.3       6 GLY6        0.0000 
     17 DU          9.9006    9.6098   37.4644 H         7 CUB7        0.0000 
     18 DU         12.0674    7.6132   36.8997 H         7 CUB7        0.0000 
     19 DU         10.0627    7.4980   37.5839 H         7 CUB7        0.0000 
     20 NZ         13.2380   12.7148   31.3227 N.2       4 LYS4        0.0000 
     21 CZ         12.3168   11.6013   31.7245 C.ar      5 PHE5        0.0000 
     22 OG         13.4001   10.6030   31.4422 O.2       1 SER1        0.0000 
     23 CA         11.3955   10.4879   32.1264 C.3       6 GLY6        0.0000 
     24 OG         12.4788    9.4896   31.8440 O.2       1 SER1        0.0000 
     25 CZ         10.4742    9.3745   32.5282 C.ar      5 PHE5        0.0000 
     26 NZ          8.4696    9.2593   33.2124 N.2       4 LYS4        0.0000 
     27 O          11.6777   13.5963   30.1877 O.2       2 ALA2        0.0000 
     28 N          14.1921   12.9484   34.1573 N.2       2 ALA2        0.0000 
     29 CA         15.2755   11.9501   33.8750 C.3       6 GLY6        0.0000 
     30 CZ         13.2708   11.8350   34.5592 C.ar      5 PHE5        0.0000 
     31 CA         14.3542   10.8367   34.2768 C.3       6 GLY6        0.0000 
     32 CZ         12.3495   10.7215   34.9610 C.ar      5 PHE5        0.0000 
     33 CA         13.4329    9.7232   34.6787 C.3       6 GLY6        0.0000 
     34 CZ         10.3449   10.6064   35.6452 C.ar      5 PHE5        0.0000 
     35 CZ         11.4283    9.6081   35.3629 C.ar      5 PHE5        0.0000 
     36 CA         12.5116    8.6098   35.0805 C.3       6 GLY6        0.0000 
     37 CA          8.3402   10.4913   36.3294 C.3       6 GLY6        0.0000 
     38 DU          9.4236    9.4930   36.0471 H         7 CUB7        0.0000 
     39 DU         10.5070    8.4947   35.7647 H         7 CUB7        0.0000 
     40 CA         11.5903    7.4964   35.4824 C.3       6 GLY6        0.0000 
     41 CA          7.4190    9.3778   36.7313 C.3       6 GLY6        0.0000 
     42 DU          8.5023    8.3795   36.4489 H         7 CUB7        0.0000 
     43 O           9.5857    7.3812   36.1666 O.2       2 ALA2        0.0000 
     44 O           6.4977    8.2644   37.1331 O.2       2 ALA2        0.0000 
     45 N          13.7151   12.8316   32.7400 N.2       2 ALA2        0.0000 
     46 CA         14.7984   11.8333   32.4577 C.3       6 GLY6        0.0000 
     47 CZ         12.7938   11.7182   33.1419 C.ar      5 PHE5        0.0000 
     48 CA         13.8772   10.7199   32.8595 C.3       6 GLY6        0.0000 
     49 CZ         11.8725   10.6047   33.5437 C.ar      5 PHE5        0.0000 
     50 CA         12.9559    9.6064   33.2614 C.3       6 GLY6        0.0000 
     51 CZ          9.8679   10.4896   34.2279 C.ar      5 PHE5        0.0000 
     52 DU         10.9512    9.4913   33.9456 H         7 CUB7        0.0000 
     53 CA         12.0346    8.4930   33.6632 C.3       6 GLY6        0.0000 
     54 OD1         7.8632   10.3744   34.9121 O.3       3 ASP3        0.0000 
     55 NZ          8.9466    9.3761   34.6298 N.2       4 LYS4        0.0000 
     56 CZ         10.0299    8.3778   34.3474 C.ar      5 PHE5        0.0000 
     57 NZ          6.9419    9.2610   35.3140 N.2       4 LYS4        0.0000 
     58 CZ          8.0253    8.2627   35.0316 C.ar      5 PHE5        0.0000 
     59 O           6.0207    8.1475   35.7158 O.2       2 ALA2        0.0000 
@<TRIPOS>BOND
@<TRIPOS>SUBSTRUCTURE
     1 SER1       22 GROUP   
     2 ALA2        9 GROUP   
     3 ASP3       54 GROUP   
     4 LYS4       20 GROUP   
     5 PHE5        1 GROUP   
     6 GLY6        4 GROUP   
     7 CUB7        2 GROUP   
@<TRIPOS>SET

