#    Name: 3p5s_AVU_1_INTS_M
#    Modification time : Tue Mar 25 05:59:51 2014

@<TRIPOS>MOLECULE
3p5s_AVU_1_INTS_M
   71     0    12     0     0
SMALL
NO_CHARGES


@<TRIPOS>ATOM
      1 CA          5.0540    7.4905   36.7570 C.3       4 GLC5        0.0000 
      2 CA          7.1440    7.9460   36.1850 C.3      12 GLL5        0.0000 
      3 CA          2.9640    7.0350   37.3290 C.3       8 GLP5        0.0000 
      4 CA          6.6765   10.8310   35.1515 C.3       4 GLC5        0.0000 
      5 CA          7.4290    9.0350   34.1220 C.3      12 GLL5        0.0000 
      6 CA          5.9240   12.6270   36.1810 C.3       8 GLP5        0.0000 
      7 CA          6.4240   10.4825   32.9020 C.3       4 GLC5        0.0000 
      8 CA          5.4190   11.9300   31.6820 C.3       8 GLP5        0.0000 
      9 CA          5.3460    8.2355   33.8320 C.3       4 GLC5        0.0000 
     10 CA          3.2630    7.4360   33.5420 C.3       8 GLP5        0.0000 
     11 O           7.3060   10.6540   32.5685 O.2       1 ALC1        0.0000 
     12 O           6.8370    9.5850   32.9340 O.2       9 ALL1        0.0000 
     13 O           7.7750   11.7230   32.2030 O.2       5 ALP1        0.0000 
     14 O           5.4380    9.7925   33.6205 O.2       1 ALC1        0.0000 
     15 O           4.0390   10.0000   34.3070 O.2       5 ALP1        0.0000 
     16 CA         11.0510    6.7280   34.9185 C.3       4 GLC5        0.0000 
     17 CA         11.4750    8.2000   36.5390 C.3      12 GLL5        0.0000 
     18 CA         10.6270    5.2560   33.2980 C.3       8 GLP5        0.0000 
     19 NZ         16.8235   13.8425   39.3555 N.4       3 LYC4        0.0000 
     20 NZ         15.8750   13.3340   38.6640 N.4      11 LYL4        0.0000 
     21 NZ         17.7720   14.3510   40.0470 N.4       7 LYP4        0.0000 
     22 N          16.8235   13.8425   39.3555 N.am      2 SEC2        0.0000 
     23 N          15.8750   13.3340   38.6640 N.am     10 SEL2        0.0000 
     24 N          17.7720   14.3510   40.0470 N.am      6 SEP2        0.0000 
     25 N          17.3975   11.1595   35.3545 N.am      2 SEC2        0.0000 
     26 N          16.1400   11.4700   35.9860 N.am     10 SEL2        0.0000 
     27 N          18.6550   10.8490   34.7230 N.am      6 SEP2        0.0000 
     28 CA         14.3030    9.8400   29.7125 C.3       4 GLC5        0.0000 
     29 CA         13.5930   11.2920   30.6930 C.3      12 GLL5        0.0000 
     30 CA         15.0130    8.3880   28.7320 C.3       8 GLP5        0.0000 
     31 CA         15.1650   10.2805   31.2540 C.3       4 GLC5        0.0000 
     32 CA         16.7370    9.2690   31.8150 C.3       8 GLP5        0.0000 
     33 CA         15.3090   11.4430   29.5035 C.3       4 GLC5        0.0000 
     34 CA         17.0250   11.5940   28.3140 C.3       8 GLP5        0.0000 
     35 CA         12.4830    6.5375   34.5795 C.3       4 GLC5        0.0000 
     36 CA         12.8580    7.7880   36.1820 C.3      12 GLL5        0.0000 
     37 CA         12.1080    5.2870   32.9770 C.3       8 GLP5        0.0000 
     38 N          13.8050   15.6845   37.9530 N.am      2 SEC2        0.0000 
     39 N          13.5290   14.2040   38.4090 N.am     10 SEL2        0.0000 
     40 N          14.0810   17.1650   37.4970 N.am      6 SEP2        0.0000 
     41 N          16.8285   14.8300   35.0820 N.am      2 SEC2        0.0000 
     42 N          16.4800   13.5200   34.5290 N.am     10 SEL2        0.0000 
     43 N          17.1770   16.1400   35.6350 N.am      6 SEP2        0.0000 
     44 N          17.3890   13.0920   33.5755 N.am      2 SEC2        0.0000 
     45 N          18.2980   12.6640   32.6220 N.am      6 SEP2        0.0000 
     46 CA         10.4390   11.7420   29.4130 C.3       4 GLC5        0.0000 
     47 CA         11.4940   12.1260   30.7150 C.3      12 GLL5        0.0000 
     48 CA          9.3840   11.3580   28.1110 C.3       8 GLP5        0.0000 
     49 N          13.3380   15.9660   30.5135 N.am      2 SEC2        0.0000 
     50 N          13.6400   14.5710   30.2120 N.am     10 SEL2        0.0000 
     51 N          13.0360   17.3610   30.8150 N.am      6 SEP2        0.0000 
     52 O          14.8120   13.9010   29.9610 O.2       1 ALC1        0.0000 
     53 O          13.6400   14.5710   30.2120 O.2       9 ALL1        0.0000 
     54 O          15.9840   13.2310   29.7100 O.2       5 ALP1        0.0000 
     55 CA         15.5820   11.4115   32.6145 C.3       4 GLC5        0.0000 
     56 CA         14.2080   13.0740   31.9870 C.3      12 GLL5        0.0000 
     57 CA         16.9560    9.7490   33.2420 C.3       8 GLP5        0.0000 
     58 CA         16.1415   14.0765   31.9980 C.3       4 GLC5        0.0000 
     59 CA         18.0750   15.0790   32.0090 C.3       8 GLP5        0.0000 
     60 CA         12.0840   12.7545   36.6145 C.3       4 GLC5        0.0000 
     61 CA         13.0000   11.1230   37.6400 C.3      12 GLL5        0.0000 
     62 CA         11.1680   14.3860   35.5890 C.3       8 GLP5        0.0000 
     63 CA         12.4530   13.6910   34.4960 C.3       4 GLC5        0.0000 
     64 CA         13.7380   12.9960   33.4030 C.3      12 GLL5        0.0000 
     65 CA         11.8515   10.5625   29.6728 C.3       4 GLC5        0.0000 
     66 CA         12.7190   12.4340   30.2880 C.3      12 GLL5        0.0000 
     67 CA         10.5470    9.2620   28.8550 C.3       8 GLP5        0.0000 
     68 CA         14.4268    7.9857   35.1912 C.3       4 GLC5        0.0000 
     69 CA         15.5620    7.6820   33.9110 C.3       8 GLP5        0.0000 
     70 CA         11.3339   13.7843   31.9316 C.3       4 GLC5        0.0000 
     71 CA         10.0410   14.6480   33.0840 C.3       8 GLP5        0.0000 
@<TRIPOS>BOND
@<TRIPOS>SUBSTRUCTURE
     1 ALC1       11 GROUP        1 X    ALC  0     ROOT ALC X 1
     2 SEC2       22 GROUP        1 X    SEC  0     **** SEC X 2
     3 LYC4       19 GROUP        1 X    LYC  0     **** LYC X 4
     4 GLC5        1 GROUP        1 X    GLC  0     **** GLC X 6
     5 ALP1       13 GROUP        1 Y    ALP  0     ROOT ALP Y 8
     6 SEP2       24 GROUP        1 Y    SEP  0     **** SEP Y 9
     7 LYP4       21 GROUP        1 Y    LYP  0     **** LYP Y 11
     8 GLP5        3 GROUP        1 Y    GLP  0     **** GLP Y 13
     9 ALL1       12 GROUP        1 Z    ALL  0     ROOT ALL Z 15
    10 SEL2       23 GROUP        1 Z    SEL  0     **** SEL Z 16
    11 LYL4       20 GROUP        1 Z    LYL  0     **** LYL Z 18
    12 GLL5        2 GROUP        1 Z    GLL  0     **** GLL Z 20
@<TRIPOS>SET

