#    Name: 3p5s_AVU_1_ligand
#    Modification time : Tue Mar 25 05:59:52 2014

@<TRIPOS>MOLECULE
3p5s_AVU_1_ligand
   55    58     1     0     0
SMALL
NO_CHARGES


@<TRIPOS>ATOM
      1 N1          6.6280    8.4750   35.0590 N.ar      1 AVU280      0.0000 
      2 C2          7.1440    7.9460   36.1850 C.ar      1 AVU280      0.0000 
      3 N3          8.4820    7.9890   36.3640 N.ar      1 AVU280      0.0000 
      4 C4          9.3070    8.5360   35.4520 C.ar      1 AVU280      0.0000 
      5 C5          8.8020    9.0870   34.2880 C.ar      1 AVU280      0.0000 
      6 C6          7.4290    9.0350   34.1220 C.ar      1 AVU280      0.0000 
      7 N6          6.8370    9.5850   32.9340 N.pl3     1 AVU280      0.0000 
      8 N7          9.8580    9.5590   33.5720 N.2       1 AVU280      0.0000 
      9 C8         10.9920    9.2910   34.2700 C.2       1 AVU280      0.0000 
     10 N9         10.6440    8.6690   35.4280 N.pl3     1 AVU280      0.0000 
     11 PA         14.5750   13.2240   37.9190 P.3       1 AVU280      0.0000 
     12 PB         15.5090   12.6810   35.3240 P.3       1 AVU280      0.0000 
     13 C1'        11.4750    8.2000   36.5390 C.3       1 AVU280      0.0000 
     14 O1A        15.8750   13.3340   38.6640 O.co2     1 AVU280      0.0000 
     15 O1B        16.1400   11.4700   35.9860 O.co2     1 AVU280      0.0000 
     16 C1R        13.5930   11.2920   30.6930 C.3       1 AVU280      0.0000 
     17 C2'        12.8580    7.7880   36.1820 C.3       1 AVU280      0.0000 
     18 O2'        13.1330    6.5090   36.6820 O.3       1 AVU280      0.0000 
     19 O2A        13.5290   14.2040   38.4090 O.co2     1 AVU280      0.0000 
     20 O2B        16.4800   13.5200   34.5290 O.co2     1 AVU280      0.0000 
     21 C2R        12.7190   12.4340   30.2880 C.3       1 AVU280      0.0000 
     22 F2R        11.4940   12.1260   30.7150 F         1 AVU280      0.0000 
     23 C3'        13.7250    8.7910   36.7610 C.3       1 AVU280      0.0000 
     24 O3'        14.8510    8.2160   37.3130 O.3       1 AVU280      0.0000 
     25 O3A        14.7880   13.5790   36.3990 O.3       1 AVU280      0.0000 
     26 C3R        13.1470   13.5610   31.0570 C.3       1 AVU280      0.0000 
     27 O3R        13.6400   14.5710   30.2120 O.3       1 AVU280      0.0000 
     28 C4'        12.8830    9.5890   37.7680 C.3       1 AVU280      0.0000 
     29 O4'        11.5630    9.1580   37.6350 O.3       1 AVU280      0.0000 
     30 C4R        14.2080   13.0740   31.9870 C.3       1 AVU280      0.0000 
     31 O4R        14.6210   11.8100   31.4610 O.3       1 AVU280      0.0000 
     32 C5'        13.0000   11.1230   37.6400 C.3       1 AVU280      0.0000 
     33 O5'        14.1930   11.6870   38.0920 O.3       1 AVU280      0.0000 
     34 C5R        13.7380   12.9960   33.4030 C.3       1 AVU280      0.0000 
     35 O5R        14.3740   12.1450   34.3040 O.3       1 AVU280      0.0000 
     36 H           6.5317    7.5167   36.8967 H         1 AVU280      0.0000 
     37 H           5.8395    9.5408   32.8784 H         1 AVU280      0.0000 
     38 H           7.4719    9.9662   32.2619 H         1 AVU280      0.0000 
     39 H          11.8876    9.5042   33.9934 H         1 AVU280      0.0000 
     40 H          10.9814    7.2760   36.9730 H         1 AVU280      0.0000 
     41 H          13.9541   10.8005   29.7827 H         1 AVU280      0.0000 
     42 H          12.9780   10.5715   31.2438 H         1 AVU280      0.0000 
     43 H          12.9415    7.8281   35.1018 H         1 AVU280      0.0000 
     44 H          12.8111   12.6001   29.2649 H         1 AVU280      0.0000 
     45 H          13.9873    9.5079   35.9600 H         1 AVU280      0.0000 
     46 H          12.3196   13.9205   31.6617 H         1 AVU280      0.0000 
     47 H          13.2628    9.3159   38.7735 H         1 AVU280      0.0000 
     48 H          15.0428   13.7809   31.9239 H         1 AVU280      0.0000 
     49 H          12.1045   11.5500   38.1729 H         1 AVU280      0.0000 
     50 H          12.8059   11.3617   36.5566 H         1 AVU280      0.0000 
     51 H          12.6123   12.7694   33.3628 H         1 AVU280      0.0000 
     52 H          13.7289   14.0722   33.8052 H         1 AVU280      0.0000 
     53 H          12.5201    6.3999   37.4645 H         1 AVU280      0.0000 
     54 H          14.7281    7.2319   37.1850 H         1 AVU280      0.0000 
     55 H          14.5533   14.2627   29.9458 H         1 AVU280      0.0000 
@<TRIPOS>BOND
     1    2    1 ar   
     2    6    1 ar   
     3    3    2 ar   
     4   36    2 1    
     5    4    3 ar   
     6    5    4 ar   
     7   10    4 1    
     8    6    5 ar   
     9    8    5 1    
    10    7    6 1    
    11   37    7 1    
    12   38    7 1    
    13    9    8 2    
    14   10    9 1    
    15   39    9 1    
    16   13   10 1    
    17   14   11 ar   
    18   19   11 ar   
    19   25   11 1    
    20   33   11 1    
    21   15   12 ar   
    22   20   12 ar   
    23   25   12 1    
    24   35   12 1    
    25   17   13 1    
    26   29   13 1    
    27   40   13 1    
    28   21   16 1    
    29   31   16 1    
    30   41   16 1    
    31   42   16 1    
    32   18   17 1    
    33   23   17 1    
    34   43   17 1    
    35   53   18 1    
    36   22   21 1    
    37   26   21 1    
    38   44   21 1    
    39   24   23 1    
    40   28   23 1    
    41   45   23 1    
    42   54   24 1    
    43   27   26 1    
    44   30   26 1    
    45   46   26 1    
    46   55   27 1    
    47   29   28 1    
    48   32   28 1    
    49   47   28 1    
    50   31   30 1    
    51   34   30 1    
    52   48   30 1    
    53   33   32 1    
    54   49   32 1    
    55   50   32 1    
    56   35   34 1    
    57   51   34 1    
    58   52   34 1    
@<TRIPOS>SUBSTRUCTURE
     1 AVU280      1 GROUP   
@<TRIPOS>SET

