#    Name: 1a2n_TET_1_INTS_M
#    Modification time : Mon Mar 24 17:44:25 2014

@<TRIPOS>MOLECULE
1a2n_TET_1_INTS_M
  104     0    12     0     0
SMALL
NO_CHARGES


@<TRIPOS>ATOM
      1 O          51.0155   23.3845   35.2315 O.2       1 ALC1        0.0000 
      2 O          50.0350   22.6720   36.1030 O.2       9 ALL1        0.0000 
      3 O          51.9960   24.0970   34.3600 O.2       5 ALP1        0.0000 
      4 CA         46.8825   22.0130   34.6670 C.3       4 GLC5        0.0000 
      5 CA         47.8790   21.9480   36.5250 C.3      12 GLL5        0.0000 
      6 CA         45.8860   22.0780   32.8090 C.3       8 GLP5        0.0000 
      7 N          49.4230   22.2415   33.2350 N.am      2 SEC2        0.0000 
      8 N          48.7100   22.4380   34.3790 N.am     10 SEL2        0.0000 
      9 N          50.1360   22.0450   32.0910 N.am      6 SEP2        0.0000 
     10 CA         48.3180   25.2045   40.0625 C.3       4 GLC5        0.0000 
     11 CA         48.8100   23.1030   40.6230 C.3      12 GLL5        0.0000 
     12 CA         47.8260   27.3060   39.5020 C.3       8 GLP5        0.0000 
     13 CA         47.7160   19.7825   43.4050 C.3       4 GLC5        0.0000 
     14 CA         47.7660   20.0620   41.2510 C.3      12 GLL5        0.0000 
     15 CA         47.6660   19.5030   45.5590 C.3       8 GLP5        0.0000 
     16 O          50.0055   22.2785   43.8625 O.2       1 ALC1        0.0000 
     17 O          50.0840   22.9840   42.6460 O.2       9 ALL1        0.0000 
     18 O          49.9270   21.5730   45.0790 O.2       5 ALP1        0.0000 
     19 O          49.1185   25.4665   41.5845 O.2       1 ALC1        0.0000 
     20 O          48.8240   24.5940   40.4240 O.2       9 ALL1        0.0000 
     21 O          49.4130   26.3390   42.7450 O.2       5 ALP1        0.0000 
     22 N          45.4590   17.5155   39.5355 N.am      2 SEC2        0.0000 
     23 N          45.7580   18.6050   40.3760 N.am     10 SEL2        0.0000 
     24 N          45.1600   16.4260   38.6950 N.am      6 SEP2        0.0000 
     25 N          46.2690   19.3015   37.5425 N.am      2 SEC2        0.0000 
     26 N          45.5470   20.0670   38.4780 N.am     10 SEL2        0.0000 
     27 N          46.9910   18.5360   36.6070 N.am      6 SEP2        0.0000 
     28 N          44.4445   18.9985   37.7850 N.am      2 SEC2        0.0000 
     29 N          43.3420   17.9300   37.0920 N.am      6 SEP2        0.0000 
     30 NZ         42.0560   21.9055   37.9110 N.4       3 LYC4        0.0000 
     31 NZ         42.8270   20.3110   38.6820 N.4      11 LYL4        0.0000 
     32 NZ         41.2850   23.5000   37.1400 N.4       7 LYP4        0.0000 
     33 N          43.0845   19.1205   37.8870 N.am      2 SEC2        0.0000 
     34 N          42.8270   20.3110   38.6820 N.am     10 SEL2        0.0000 
     35 NZ         42.4510   22.9325   38.3410 N.4       3 LYC4        0.0000 
     36 NZ         43.6170   22.3650   39.5420 N.4      11 LYL4        0.0000 
     37 NZ         43.1460   23.9360   40.5315 N.4       3 LYC4        0.0000 
     38 NZ         42.6750   25.5070   41.5210 N.4       7 LYP4        0.0000 
     39 CA         41.2730   18.0325   40.1425 C.3       4 GLC5        0.0000 
     40 CA         41.1980   19.8180   41.1000 C.3      12 GLL5        0.0000 
     41 CA         41.3480   16.2470   39.1850 C.3       8 GLP5        0.0000 
     42 CA         43.2165   21.2085   44.6350 C.3       4 GLC5        0.0000 
     43 CA         41.5280   20.1180   43.9700 C.3      12 GLL5        0.0000 
     44 CA         44.9050   22.2990   45.3000 C.3       8 GLP5        0.0000 
     45 CA         43.7570   21.3595   43.5225 C.3       4 GLC5        0.0000 
     46 CA         42.6570   19.7800   43.0030 C.3      12 GLL5        0.0000 
     47 CA         44.8570   22.9390   44.0420 C.3       8 GLP5        0.0000 
     48 CA         44.2655   19.1790   45.6465 C.3       4 GLC5        0.0000 
     49 CA         43.8560   19.0270   43.6360 C.3      12 GLL5        0.0000 
     50 CA         44.6750   19.3310   47.6570 C.3       8 GLP5        0.0000 
     51 CA         45.7610   19.2650   44.5975 C.3       4 GLC5        0.0000 
     52 CA         44.3805   20.6630   44.4680 C.3       4 GLC5        0.0000 
     53 N          38.2275   20.3390   43.8105 N.am      2 SEC2        0.0000 
     54 N          39.3280   21.2910   44.0240 N.am     10 SEL2        0.0000 
     55 N          37.1270   19.3870   43.5970 N.am      6 SEP2        0.0000 
     56 O          41.4235   20.6735   46.2405 O.2       1 ALC1        0.0000 
     57 O          42.2430   20.4760   45.2150 O.2       9 ALL1        0.0000 
     58 O          40.6040   20.8710   47.2660 O.2       5 ALP1        0.0000 
     59 O          41.1730   19.6760   45.8805 O.2       1 ALC1        0.0000 
     60 O          40.1030   18.8760   46.5460 O.2       5 ALP1        0.0000 
     61 CA         36.5930   19.8540   40.9870 C.3       4 GLC5        0.0000 
     62 CA         37.2840   21.7050   39.9190 C.3      12 GLL5        0.0000 
     63 CA         35.9020   18.0030   42.0550 C.3       8 GLP5        0.0000 
     64 CA         35.3470   22.1800   39.5385 C.3       4 GLC5        0.0000 
     65 CA         33.4100   22.6550   39.1580 C.3       8 GLP5        0.0000 
     66 CA         37.7335   20.8180   38.2585 C.3       4 GLC5        0.0000 
     67 CA         38.1830   19.9310   36.5980 C.3       8 GLP5        0.0000 
     68 N          36.7035   22.9370   43.2120 N.am      2 SEC2        0.0000 
     69 N          38.1080   23.1940   43.2950 N.am     10 SEL2        0.0000 
     70 N          35.2990   22.6800   43.1290 N.am      6 SEP2        0.0000 
     71 NZ         36.1980   23.7460   42.7325 N.4       3 LYC4        0.0000 
     72 NZ         37.0970   24.8120   42.3360 N.4      11 LYL4        0.0000 
     73 NZ         35.2990   22.6800   43.1290 N.4       7 LYP4        0.0000 
     74 NZ         36.3775   26.0875   42.2900 N.4       3 LYC4        0.0000 
     75 NZ         35.3890   27.8220   43.4340 N.4       7 LYP4        0.0000 
     76 N          36.1980   23.7460   42.7325 N.am      2 SEC2        0.0000 
     77 N          37.0970   24.8120   42.3360 N.am     10 SEL2        0.0000 
     78 N          36.3775   26.0875   42.2900 N.am      2 SEC2        0.0000 
     79 N          35.6580   27.3630   42.2440 N.am      6 SEP2        0.0000 
     80 NZ         40.2760   24.8880   41.4625 N.4       3 LYC4        0.0000 
     81 NZ         39.1660   24.1290   41.2040 N.4      11 LYL4        0.0000 
     82 N          40.2760   24.8880   41.4625 N.am      2 SEC2        0.0000 
     83 N          39.1660   24.1290   41.2040 N.am     10 SEL2        0.0000 
     84 N          41.3860   25.6470   41.7210 N.am      6 SEP2        0.0000 
     85 NZ         36.1775   22.4275   44.4760 N.4       3 LYC4        0.0000 
     86 NZ         37.0560   22.1750   45.8230 N.4      11 LYL4        0.0000 
     87 NZ         36.2730   21.7170   47.0775 N.4       3 LYC4        0.0000 
     88 NZ         35.4900   21.2590   48.3320 N.4       7 LYP4        0.0000 
     89 N          36.1775   22.4275   44.4760 N.am      2 SEC2        0.0000 
     90 N          37.0560   22.1750   45.8230 N.am     10 SEL2        0.0000 
     91 N          39.9125   23.2325   47.6860 N.am      2 SEC2        0.0000 
     92 N          38.7770   23.0630   46.8540 N.am     10 SEL2        0.0000 
     93 N          41.0480   23.4020   48.5180 N.am      6 SEP2        0.0000 
     94 N          37.7215   22.4480   47.7600 N.am      2 SEC2        0.0000 
     95 N          36.6660   21.8330   48.6660 N.am      6 SEP2        0.0000 
     96 CA         42.9940   22.9595   44.4665 C.3       4 GLC5        0.0000 
     97 CA         41.1310   22.9800   44.8910 C.3      12 GLL5        0.0000 
     98 CA         47.9995   19.7450   37.0802 C.3       4 GLC5        0.0000 
     99 CA         48.1570   21.8900   37.8720 C.3      12 GLL5        0.0000 
    100 CA         47.9810   17.5710   36.9620 C.3       8 GLP5        0.0000 
    101 CA         47.3182   23.3413   42.5107 C.3       4 GLC5        0.0000 
    102 CA         45.7690   23.9760   43.7200 C.3       8 GLP5        0.0000 
    103 CA         42.0795   24.4218   45.3950 C.3       4 GLC5        0.0000 
    104 CA         43.5650   25.5210   46.1140 C.3       8 GLP5        0.0000 
@<TRIPOS>BOND
@<TRIPOS>SUBSTRUCTURE
     1 ALC1        1 GROUP        1 X    ALC  0     ROOT ALC X 1
     2 SEC2        7 GROUP        1 X    SEC  0     **** SEC X 2
     3 LYC4       30 GROUP        1 X    LYC  0     **** LYC X 4
     4 GLC5        4 GROUP        1 X    GLC  0     **** GLC X 6
     5 ALP1        3 GROUP        1 Y    ALP  0     ROOT ALP Y 8
     6 SEP2        9 GROUP        1 Y    SEP  0     **** SEP Y 9
     7 LYP4       32 GROUP        1 Y    LYP  0     **** LYP Y 11
     8 GLP5        6 GROUP        1 Y    GLP  0     **** GLP Y 13
     9 ALL1        2 GROUP        1 Z    ALL  0     ROOT ALL Z 15
    10 SEL2        8 GROUP        1 Z    SEL  0     **** SEL Z 16
    11 LYL4       31 GROUP        1 Z    LYL  0     **** LYL Z 18
    12 GLL5        5 GROUP        1 Z    GLL  0     **** GLL Z 20
@<TRIPOS>SET

