#    Name: 1a2n_TET_1_ligand
#    Modification time : Mon Mar 24 17:44:25 2014

@<TRIPOS>MOLECULE
1a2n_TET_1_ligand
   76    78     1     0     0
SMALL
NO_CHARGES


@<TRIPOS>ATOM
      1 C1         48.8840   22.3450   35.5710 C.2       1 TET420      0.0000 
      2 N1         50.0350   22.6720   36.1030 N.am      1 TET420      0.0000 
      3 C3         50.3320   22.6350   37.3630 C.2       1 TET420      0.0000 
      4 N2         49.3940   22.2630   38.2930 N.am      1 TET420      0.0000 
      5 C5         48.1570   21.8900   37.8720 C.2       1 TET420      0.0000 
      6 C6         47.8790   21.9480   36.5250 C.2       1 TET420      0.0000 
      7 O1         48.7100   22.4380   34.3790 O.2       1 TET420      0.0000 
      8 O2         51.4410   23.0520   37.7060 O.2       1 TET420      0.0000 
      9 C9         48.8100   23.1030   40.6230 C.3       1 TET420      0.0000 
     10 C2         49.7500   22.2790   39.7180 C.3       1 TET420      0.0000 
     11 O3         49.5530   20.9420   40.0950 O.3       1 TET420      0.0000 
     12 C4         49.0880   20.8470   41.4090 C.3       1 TET420      0.0000 
     13 C15        48.9250   22.3100   41.9800 C.3       1 TET420      0.0000 
     14 C12        47.7660   20.0620   41.2510 C.3       1 TET420      0.0000 
     15 O14        50.0840   22.9840   42.6460 O.3       1 TET420      0.0000 
     16 O11        48.8240   24.5940   40.4240 O.3       1 TET420      0.0000 
     17 O4         46.6990   20.7830   40.5920 O.3       1 TET420      0.0000 
     18 P1         45.5540   19.9700   39.9420 P.3       1 TET420      0.0000 
     19 O5         45.7580   18.6050   40.3760 O.co2     1 TET420      0.0000 
     20 O6         45.5470   20.0670   38.4780 O.co2     1 TET420      0.0000 
     21 O7         44.2400   20.2290   40.5730 O.3       1 TET420      0.0000 
     22 P2         43.1760   21.0090   39.8650 P.3       1 TET420      0.0000 
     23 O8         41.8030   21.0030   40.5950 O.3       1 TET420      0.0000 
     24 O9         42.8270   20.3110   38.6820 O.co2     1 TET420      0.0000 
     25 O10        43.6170   22.3650   39.5420 O.co2     1 TET420      0.0000 
     26 C10        41.1980   19.8180   41.1000 C.3       1 TET420      0.0000 
     27 C18        40.0270   20.2250   41.9970 C.3       1 TET420      0.0000 
     28 C13        40.4960   21.0160   43.2090 C.3       1 TET420      0.0000 
     29 C20        41.5280   20.1180   43.9700 C.3       1 TET420      0.0000 
     30 C16        42.6570   19.7800   43.0030 C.3       1 TET420      0.0000 
     31 C17        43.8560   19.0270   43.6360 C.3       1 TET420      0.0000 
     32 C7         38.3310   20.6900   40.3530 C.2       1 TET420      0.0000 
     33 N3         39.0990   21.0970   41.3170 N.am      1 TET420      0.0000 
     34 O21        39.3280   21.2910   44.0240 O.3       1 TET420      0.0000 
     35 O22        42.2430   20.4760   45.2150 O.3       1 TET420      0.0000 
     36 O23        42.1200   19.0770   41.8720 O.3       1 TET420      0.0000 
     37 O24        43.6190   17.6740   44.2820 O.3       1 TET420      0.0000 
     38 O12        38.4910   19.5780   39.8990 O.2       1 TET420      0.0000 
     39 C8         37.2840   21.7050   39.9190 C.3       1 TET420      0.0000 
     40 C11        38.9440   22.6660   44.3570 C.3       1 TET420      0.0000 
     41 C19        40.0570   23.6650   44.4610 C.3       1 TET420      0.0000 
     42 O13        38.1080   23.1940   43.2950 O.3       1 TET420      0.0000 
     43 P3         38.4640   24.4340   42.4810 P.3       1 TET420      0.0000 
     44 O15        37.0970   24.8120   42.3360 O.co2     1 TET420      0.0000 
     45 O16        39.1660   24.1290   41.2040 O.co2     1 TET420      0.0000 
     46 O17        39.0020   25.5250   43.2500 O.co2     1 TET420      0.0000 
     47 C14        38.2900   22.6570   45.8340 C.2       1 TET420      0.0000 
     48 O18        37.0560   22.1750   45.8230 O.co2     1 TET420      0.0000 
     49 O19        38.7770   23.0630   46.8540 O.co2     1 TET420      0.0000 
     50 F1         41.1310   22.9800   44.8910 F         1 TET420      0.0000 
     51 H          50.8187   23.0086   35.4106 H         1 TET420      0.0000 
     52 H          47.4427   21.5720   38.5346 H         1 TET420      0.0000 
     53 H          46.9432   21.7085   36.1639 H         1 TET420      0.0000 
     54 H          47.7574   22.7095   40.2181 H         1 TET420      0.0000 
     55 H          50.7457   22.5748   39.8689 H         1 TET420      0.0000 
     56 H          49.7458   20.2987   42.0258 H         1 TET420      0.0000 
     57 H          48.0215   22.4221   42.4564 H         1 TET420      0.0000 
     58 H          47.4556   19.7360   42.2712 H         1 TET420      0.0000 
     59 H          48.0081   19.1210   40.7038 H         1 TET420      0.0000 
     60 H          40.7885   19.2237   40.2991 H         1 TET420      0.0000 
     61 H          39.5235   19.3439   42.3522 H         1 TET420      0.0000 
     62 H          40.9827   21.8916   42.8825 H         1 TET420      0.0000 
     63 H          41.0326   19.1116   44.1264 H         1 TET420      0.0000 
     64 H          43.0625   20.7609   42.6398 H         1 TET420      0.0000 
     65 H          44.3260   19.7130   44.3928 H         1 TET420      0.0000 
     66 H          44.6447   18.9168   42.8422 H         1 TET420      0.0000 
     67 H          39.0905   22.0947   41.6626 H         1 TET420      0.0000 
     68 H          39.7292   24.4512   45.1497 H         1 TET420      0.0000 
     69 H          40.1873   24.1156   43.4712 H         1 TET420      0.0000 
     70 H          37.7015   22.5547   39.5969 H         1 TET420      0.0000 
     71 H          36.7157   21.3567   39.1736 H         1 TET420      0.0000 
     72 H          36.6681   21.9469   40.6687 H         1 TET420      0.0000 
     73 H          50.1729   22.5298   43.5324 H         1 TET420      0.0000 
     74 H          49.0183   24.9739   41.3284 H         1 TET420      0.0000 
     75 H          41.5255   20.5859   45.9029 H         1 TET420      0.0000 
     76 H          42.6953   17.4121   44.0024 H         1 TET420      0.0000 
@<TRIPOS>BOND
     1    2    1 1    
     2    6    1 1    
     3    7    1 2    
     4    3    2 1    
     5   51    2 1    
     6    4    3 1    
     7    8    3 2    
     8    5    4 1    
     9   10    4 1    
    10    6    5 2    
    11   52    5 1    
    12   53    6 1    
    13   10    9 1    
    14   13    9 1    
    15   16    9 1    
    16   54    9 1    
    17   11   10 1    
    18   55   10 1    
    19   12   11 1    
    20   13   12 1    
    21   14   12 1    
    22   56   12 1    
    23   15   13 1    
    24   57   13 1    
    25   17   14 1    
    26   58   14 1    
    27   59   14 1    
    28   73   15 1    
    29   74   16 1    
    30   18   17 1    
    31   19   18 ar   
    32   20   18 ar   
    33   21   18 1    
    34   22   21 1    
    35   23   22 1    
    36   24   22 ar   
    37   25   22 ar   
    38   26   23 1    
    39   27   26 1    
    40   36   26 1    
    41   60   26 1    
    42   28   27 1    
    43   33   27 1    
    44   61   27 1    
    45   29   28 1    
    46   34   28 1    
    47   62   28 1    
    48   30   29 1    
    49   35   29 1    
    50   63   29 1    
    51   31   30 1    
    52   36   30 1    
    53   64   30 1    
    54   37   31 1    
    55   65   31 1    
    56   66   31 1    
    57   33   32 am   
    58   38   32 2    
    59   39   32 1    
    60   67   33 1    
    61   40   34 1    
    62   75   35 1    
    63   76   37 1    
    64   70   39 1    
    65   71   39 1    
    66   72   39 1    
    67   41   40 1    
    68   42   40 1    
    69   47   40 1    
    70   50   41 1    
    71   68   41 1    
    72   69   41 1    
    73   43   42 1    
    74   44   43 ar   
    75   45   43 ar   
    76   46   43 ar   
    77   48   47 ar   
    78   49   47 ar   
@<TRIPOS>SUBSTRUCTURE
     1 TET420      1 GROUP   
@<TRIPOS>SET

