#    Name: 2x06_NAD_8_INTS_M
#    Modification time : Tue Mar 25 04:55:06 2014

@<TRIPOS>MOLECULE
2x06_NAD_8_INTS_M
   78     0    12     0     0
SMALL
NO_CHARGES


@<TRIPOS>ATOM
      1 NZ         18.0615  150.4140   -7.4230 N.4       3 LYC4        0.0000 
      2 NZ         18.6280  151.2820   -8.7520 N.4      11 LYL4        0.0000 
      3 NZ         17.4950  149.5460   -6.0940 N.4       7 LYP4        0.0000 
      4 CA         18.8145  152.2255   -6.8660 C.3       4 GLC5        0.0000 
      5 CA         18.8130  154.2480   -7.7900 C.3      12 GLL5        0.0000 
      6 CA         18.8160  150.2030   -5.9420 C.3       8 GLP5        0.0000 
      7 CA         19.7860  156.3185   -5.3570 C.3       4 GLC5        0.0000 
      8 CA         19.6100  155.4410   -7.3220 C.3      12 GLL5        0.0000 
      9 CA         19.9620  157.1960   -3.3920 C.3       8 GLP5        0.0000 
     10 N          17.9610  158.0530   -6.6335 N.am      2 SEC2        0.0000 
     11 N          19.1360  157.7450   -7.6510 N.am     10 SEL2        0.0000 
     12 N          16.7860  158.3610   -5.6160 N.am      6 SEP2        0.0000 
     13 N          21.3130  159.4390   -8.6960 N.am      2 SEC2        0.0000 
     14 N          21.2430  158.0070   -9.0630 N.am     10 SEL2        0.0000 
     15 N          21.3830  160.8710   -8.3290 N.am      6 SEP2        0.0000 
     16 O          20.6040  158.6615  -10.1110 O.2       1 ALC1        0.0000 
     17 O          21.2430  158.0070   -9.0630 O.2       9 ALL1        0.0000 
     18 O          19.9650  159.3160  -11.1590 O.2       5 ALP1        0.0000 
     19 O          20.3415  157.6675  -10.4945 O.2       1 ALC1        0.0000 
     20 O          19.4400  157.3280  -11.9260 O.2       5 ALP1        0.0000 
     21 CA         27.0395  156.8240  -10.2340 C.3       4 GLC5        0.0000 
     22 CA         26.4340  155.5970   -8.7640 C.3      12 GLL5        0.0000 
     23 CA         27.6450  158.0510  -11.7040 C.3       8 GLP5        0.0000 
     24 CA         26.9075  158.5115   -8.5830 C.3       4 GLC5        0.0000 
     25 CA         25.9490  157.4050   -7.3770 C.3      12 GLL5        0.0000 
     26 CA         27.8660  159.6180   -9.7890 C.3       8 GLP5        0.0000 
     27 CA         24.3720  158.8825   -6.8985 C.3       4 GLC5        0.0000 
     28 CA         22.7950  160.3600   -6.4200 C.3       8 GLP5        0.0000 
     29 NZ         16.8260  150.3380   -6.9560 N.4       3 LYC4        0.0000 
     30 NZ         16.1570  151.1300   -7.8180 N.4      11 LYL4        0.0000 
     31 N          16.8260  150.3380   -6.9560 N.am      2 SEC2        0.0000 
     32 N          16.1570  151.1300   -7.8180 N.am     10 SEL2        0.0000 
     33 N          17.4950  149.5460   -6.0940 N.am      6 SEP2        0.0000 
     34 N          15.3190  151.5460   -6.6740 N.am      2 SEC2        0.0000 
     35 N          14.4810  151.9620   -5.5300 N.am      6 SEP2        0.0000 
     36 CA         10.9635  153.0750  -11.3005 C.3       4 GLC5        0.0000 
     37 CA         12.7770  153.7020  -10.2100 C.3      12 GLL5        0.0000 
     38 CA          9.1500  152.4480  -12.3910 C.3       8 GLP5        0.0000 
     39 CA         14.1535  155.2380  -10.5045 C.3       4 GLC5        0.0000 
     40 CA         12.8450  154.6240   -9.0140 C.3      12 GLL5        0.0000 
     41 CA         15.4620  155.8520  -11.9950 C.3       8 GLP5        0.0000 
     42 O          12.9205  156.5570   -8.1230 O.2       1 ALC1        0.0000 
     43 O          12.9150  155.9160   -9.4480 O.2       9 ALL1        0.0000 
     44 O          12.9260  157.1980   -6.7980 O.2       5 ALP1        0.0000 
     45 CA         11.0755  153.8595   -6.2215 C.3       4 GLC5        0.0000 
     46 CA         11.6570  154.3610   -8.1620 C.3      12 GLL5        0.0000 
     47 CA         10.4940  153.3580   -4.2810 C.3       8 GLP5        0.0000 
     48 N          10.0015  156.6830   -7.6855 N.am      2 SEC2        0.0000 
     49 N          10.9470  155.4940   -7.8370 N.am     10 SEL2        0.0000 
     50 N           9.0560  157.8720   -7.5340 N.am      6 SEP2        0.0000 
     51 O          11.9365  156.3460   -7.3175 O.2       1 ALC1        0.0000 
     52 O          10.9470  155.4940   -7.8370 O.2       9 ALL1        0.0000 
     53 CA          9.9835  152.9375  -10.6815 C.3       4 GLC5        0.0000 
     54 CA         10.8170  153.4270   -8.9720 C.3      12 GLL5        0.0000 
     55 CA          8.8470  152.5920  -10.2635 C.3       4 GLC5        0.0000 
     56 CA          8.5440  152.7360   -8.1360 C.3      12 GLL5        0.0000 
     57 O           6.0900  154.5905   -8.3495 O.2       1 ALC1        0.0000 
     58 O           5.6590  153.4760   -7.4300 O.2       9 ALL1        0.0000 
     59 O           6.5210  155.7050   -9.2690 O.2       5 ALP1        0.0000 
     60 CA          9.7625  148.6695   -6.1040 C.3       4 GLC5        0.0000 
     61 CA          9.5940  150.5120   -6.8840 C.3      12 GLL5        0.0000 
     62 CA          9.9310  146.8270   -5.3240 C.3       8 GLP5        0.0000 
     63 CA         18.0752  154.3408   -6.0815 C.3       4 GLC5        0.0000 
     64 CA         16.9390  153.8370   -4.6070 C.3       8 GLP5        0.0000 
     65 CA         24.8635  154.2923   -7.3712 C.3       4 GLC5        0.0000 
     66 CA         25.0700  155.2770   -8.8060 C.3      12 GLL5        0.0000 
     67 CA         24.7600  152.8200   -6.3070 C.3       8 GLP5        0.0000 
     68 CA         24.6050  155.9672  -10.4692 C.3       4 GLC5        0.0000 
     69 CA         24.2430  156.1700  -12.5030 C.3       8 GLP5        0.0000 
     70 CA         13.9845  154.3057  -11.5748 C.3       4 GLC5        0.0000 
     71 CA         14.1050  152.9990  -10.4510 C.3      12 GLL5        0.0000 
     72 CA         14.5280  155.2610  -12.8190 C.3       8 GLP5        0.0000 
     73 CA          8.5769  152.4151   -5.6813 C.3       4 GLC5        0.0000 
     74 CA          8.9870  153.2930   -4.0720 C.3       8 GLP5        0.0000 
     75 CA         10.2453  152.1575   -5.7610 C.3       4 GLC5        0.0000 
     76 CA         11.6433  150.4330   -6.6105 C.3       4 GLC5        0.0000 
     77 CA         10.3990  151.4020   -7.5980 C.3      12 GLL5        0.0000 
     78 CA         13.2900  149.9090   -5.9800 C.3       8 GLP5        0.0000 
@<TRIPOS>BOND
@<TRIPOS>SUBSTRUCTURE
     1 ALC1       16 GROUP        1 X    ALC  0     ROOT ALC X 1
     2 SEC2       10 GROUP        1 X    SEC  0     **** SEC X 2
     3 LYC4        1 GROUP        1 X    LYC  0     **** LYC X 4
     4 GLC5        4 GROUP        1 X    GLC  0     **** GLC X 6
     5 ALP1       18 GROUP        1 Y    ALP  0     ROOT ALP Y 8
     6 SEP2       12 GROUP        1 Y    SEP  0     **** SEP Y 9
     7 LYP4        3 GROUP        1 Y    LYP  0     **** LYP Y 11
     8 GLP5        6 GROUP        1 Y    GLP  0     **** GLP Y 13
     9 ALL1       17 GROUP        1 Z    ALL  0     ROOT ALL Z 15
    10 SEL2       11 GROUP        1 Z    SEL  0     **** SEL Z 16
    11 LYL4        2 GROUP        1 Z    LYL  0     **** LYL Z 18
    12 GLL5        5 GROUP        1 Z    GLL  0     **** GLL Z 20
@<TRIPOS>SET

