#    Name: 2x06_NAD_8_ligand
#    Modification time : Tue Mar 25 04:55:07 2014

@<TRIPOS>MOLECULE
2x06_NAD_8_ligand
   70    74     1     0     0
SMALL
NO_CHARGES


@<TRIPOS>ATOM
      1 PA         18.7600  152.4930   -9.7220 P.3       1 NAD4008     0.0000 
      2 O1A        18.6280  151.2820   -8.7520 O.co2     1 NAD4008     0.0000 
      3 O2A        18.3350  152.2790  -11.2100 O.co2     1 NAD4008     0.0000 
      4 O5B        18.8370  153.9710   -9.1550 O.3       1 NAD4008     0.0000 
      5 C5B        18.8130  154.2480   -7.7900 C.3       1 NAD4008     0.0000 
      6 C4B        19.6100  155.4410   -7.3220 C.3       1 NAD4008     0.0000 
      7 O4B        20.9740  155.1190   -7.1660 O.3       1 NAD4008     0.0000 
      8 C3B        19.5370  156.5830   -8.2850 C.3       1 NAD4008     0.0000 
      9 O3B        19.1360  157.7450   -7.6510 O.3       1 NAD4008     0.0000 
     10 C2B        20.8840  156.7000   -8.8230 C.3       1 NAD4008     0.0000 
     11 O2B        21.2430  158.0070   -9.0630 O.3       1 NAD4008     0.0000 
     12 C1B        21.7400  156.1080   -7.7480 C.3       1 NAD4008     0.0000 
     13 N9A        22.9680  155.5700   -8.2930 N.pl3     1 NAD4008     0.0000 
     14 C8A        23.0690  154.5020   -9.0970 C.2       1 NAD4008     0.0000 
     15 N7A        24.3580  154.3180   -9.4010 N.2       1 NAD4008     0.0000 
     16 C5A        25.0700  155.2770   -8.8060 C.ar      1 NAD4008     0.0000 
     17 C6A        26.4340  155.5970   -8.7640 C.ar      1 NAD4008     0.0000 
     18 N6A        27.3700  154.7920   -9.4920 N.pl3     1 NAD4008     0.0000 
     19 N1A        26.8460  156.6520   -8.0480 N.ar      1 NAD4008     0.0000 
     20 C2A        25.9490  157.4050   -7.3770 C.ar      1 NAD4008     0.0000 
     21 N3A        24.6260  157.1470   -7.3820 N.ar      1 NAD4008     0.0000 
     22 C4A        24.1820  156.0920   -8.0860 C.ar      1 NAD4008     0.0000 
     23 O3         17.2090  152.7640   -9.4950 O.3       1 NAD4008     0.0000 
     24 PN         16.0660  151.7070   -9.2230 P.3       1 NAD4008     0.0000 
     25 O1N        16.1570  151.1300   -7.8180 O.co2     1 NAD4008     0.0000 
     26 O2N        16.1280  150.5630  -10.2040 O.co2     1 NAD4008     0.0000 
     27 O5D        14.6720  152.4250   -9.3130 O.3       1 NAD4008     0.0000 
     28 C5D        14.1050  152.9990  -10.4510 C.3       1 NAD4008     0.0000 
     29 C4D        12.7770  153.7020  -10.2100 C.3       1 NAD4008     0.0000 
     30 O4D        11.7450  152.8100   -9.9600 O.3       1 NAD4008     0.0000 
     31 C3D        12.8450  154.6240   -9.0140 C.3       1 NAD4008     0.0000 
     32 O3D        12.9150  155.9160   -9.4480 O.3       1 NAD4008     0.0000 
     33 C2D        11.6570  154.3610   -8.1620 C.3       1 NAD4008     0.0000 
     34 O2D        10.9470  155.4940   -7.8370 O.3       1 NAD4008     0.0000 
     35 C1D        10.8170  153.4270   -8.9720 C.3       1 NAD4008     0.0000 
     36 N1N         9.8630  152.4750   -8.1990 N.pl3     1 NAD4008     0.0000 
     37 C2N         8.5440  152.7360   -8.1360 C.ar      1 NAD4008     0.0000 
     38 C3N         7.6790  151.8890   -7.4300 C.ar      1 NAD4008     0.0000 
     39 C7N         6.2020  152.1500   -7.3370 C.2       1 NAD4008     0.0000 
     40 O7N         5.4390  151.2160   -7.1420 O.2       1 NAD4008     0.0000 
     41 N7N         5.6590  153.4760   -7.4300 N.am      1 NAD4008     0.0000 
     42 C4N         8.2220  150.7620   -6.7980 C.ar      1 NAD4008     0.0000 
     43 C5N         9.5940  150.5120   -6.8840 C.ar      1 NAD4008     0.0000 
     44 C6N        10.3990  151.4020   -7.5980 C.ar      1 NAD4008     0.0000 
     45 H          19.1691  153.3595   -7.1839 H         1 NAD4008     0.0000 
     46 H          17.7529  154.3981   -7.4195 H         1 NAD4008     0.0000 
     47 H          19.1934  155.7818   -6.3711 H         1 NAD4008     0.0000 
     48 H          18.8692  156.2873   -9.0842 H         1 NAD4008     0.0000 
     49 H          20.9715  156.0619   -9.6869 H         1 NAD4008     0.0000 
     50 H          21.9585  156.8994   -7.0376 H         1 NAD4008     0.0000 
     51 H          22.3288  153.9550   -9.4057 H         1 NAD4008     0.0000 
     52 H          26.9926  153.9927   -9.9596 H         1 NAD4008     0.0000 
     53 H          28.3221  155.0970   -9.4714 H         1 NAD4008     0.0000 
     54 H          26.3022  158.2379   -6.8204 H         1 NAD4008     0.0000 
     55 H          13.9281  152.2394  -11.2567 H         1 NAD4008     0.0000 
     56 H          14.7892  153.7517  -10.9230 H         1 NAD4008     0.0000 
     57 H          12.5577  154.3233  -11.0802 H         1 NAD4008     0.0000 
     58 H          13.7369  154.3281   -8.4498 H         1 NAD4008     0.0000 
     59 H          11.9927  153.8026   -7.2895 H         1 NAD4008     0.0000 
     60 H          10.1391  154.1147   -9.5970 H         1 NAD4008     0.0000 
     61 H           8.1387  153.5687   -8.6079 H         1 NAD4008     0.0000 
     62 H           4.6619  153.5462   -7.4011 H         1 NAD4008     0.0000 
     63 H           6.3233  154.2185   -7.5159 H         1 NAD4008     0.0000 
     64 H           7.6139  150.1254   -6.2756 H         1 NAD4008     0.0000 
     65 H          10.0000  149.6938   -6.4331 H         1 NAD4008     0.0000 
     66 H          11.4195  151.2101   -7.6500 H         1 NAD4008     0.0000 
     67 H          19.9169  158.3648   -7.7288 H         1 NAD4008     0.0000 
     68 H          20.6691  158.2964   -9.8291 H         1 NAD4008     0.0000 
     69 H          12.4460  156.4508   -8.7452 H         1 NAD4008     0.0000 
     70 H          11.6289  156.1339   -7.4827 H         1 NAD4008     0.0000 
@<TRIPOS>BOND
     1    2    1 ar   
     2    3    1 ar   
     3    4    1 1    
     4   23    1 1    
     5    5    4 1    
     6    6    5 1    
     7   45    5 1    
     8   46    5 1    
     9    7    6 1    
    10    8    6 1    
    11   47    6 1    
    12   12    7 1    
    13    9    8 1    
    14   10    8 1    
    15   48    8 1    
    16   67    9 1    
    17   11   10 1    
    18   12   10 1    
    19   49   10 1    
    20   68   11 1    
    21   13   12 1    
    22   50   12 1    
    23   14   13 1    
    24   22   13 1    
    25   15   14 2    
    26   51   14 1    
    27   16   15 1    
    28   17   16 ar   
    29   22   16 ar   
    30   18   17 1    
    31   19   17 ar   
    32   52   18 1    
    33   53   18 1    
    34   20   19 ar   
    35   21   20 ar   
    36   54   20 1    
    37   22   21 ar   
    38   24   23 1    
    39   25   24 ar   
    40   26   24 ar   
    41   27   24 1    
    42   28   27 1    
    43   29   28 1    
    44   55   28 1    
    45   56   28 1    
    46   30   29 1    
    47   31   29 1    
    48   57   29 1    
    49   35   30 1    
    50   32   31 1    
    51   33   31 1    
    52   58   31 1    
    53   69   32 1    
    54   34   33 1    
    55   35   33 1    
    56   59   33 1    
    57   70   34 1    
    58   36   35 1    
    59   60   35 1    
    60   37   36 ar   
    61   44   36 ar   
    62   38   37 ar   
    63   61   37 1    
    64   39   38 1    
    65   42   38 ar   
    66   40   39 2    
    67   41   39 am   
    68   62   41 1    
    69   63   41 1    
    70   43   42 ar   
    71   64   42 1    
    72   44   43 ar   
    73   65   43 1    
    74   66   44 1    
@<TRIPOS>SUBSTRUCTURE
     1 NAD4008     1 GROUP   
@<TRIPOS>SET

