#    Name: 3rbv_NAP_1_INTS_M
#    Modification time : Tue Mar 25 11:20:56 2014

@<TRIPOS>MOLECULE
3rbv_NAP_1_INTS_M
   83     0    12     0     0
SMALL
NO_CHARGES


@<TRIPOS>ATOM
      1 N          10.2015  -32.9880  -28.1180 N.am      2 SEC2        0.0000 
      2 N          10.9560  -31.9850  -27.4230 N.am     10 SEL2        0.0000 
      3 N           9.4470  -33.9910  -28.8130 N.am      6 SEP2        0.0000 
      4 CA         10.1540  -30.8215  -30.8240 C.3       4 GLC5        0.0000 
      5 CA         11.5320  -29.1430  -31.0330 C.3      12 GLL5        0.0000 
      6 CA          8.7760  -32.5000  -30.6150 C.3       8 GLP5        0.0000 
      7 N          10.2730  -29.9890  -33.9650 N.am      2 SEC2        0.0000 
      8 N          11.3280  -28.8510  -33.4360 N.am     10 SEL2        0.0000 
      9 N           9.2180  -31.1270  -34.4940 N.am      6 SEP2        0.0000 
     10 CA          9.4765  -28.0600  -33.4320 C.3       4 GLC5        0.0000 
     11 CA         10.8980  -27.0790  -32.0750 C.3      12 GLL5        0.0000 
     12 CA          8.0550  -29.0410  -34.7890 C.3       8 GLP5        0.0000 
     13 CA          9.2235  -26.3940  -32.4550 C.3       4 GLC5        0.0000 
     14 CA          7.5490  -25.7090  -32.8350 C.3       8 GLP5        0.0000 
     15 CA         10.0395  -26.0920  -30.5070 C.3       4 GLC5        0.0000 
     16 CA          9.1810  -25.1050  -28.9390 C.3       8 GLP5        0.0000 
     17 CA         13.4155  -24.2925  -33.2135 C.3       4 GLC5        0.0000 
     18 CA         12.8420  -24.1600  -31.1340 C.3      12 GLL5        0.0000 
     19 CA         13.9890  -24.4250  -35.2930 C.3       8 GLP5        0.0000 
     20 CA         12.0580  -25.2570  -28.5060 C.3       4 GLC5        0.0000 
     21 CA         13.9120  -25.7160  -29.1600 C.3      12 GLL5        0.0000 
     22 CA         10.2040  -24.7980  -27.8520 C.3       8 GLP5        0.0000 
     23 CA         10.8185  -25.2935  -29.9460 C.3       4 GLC5        0.0000 
     24 CA         12.4560  -25.4820  -30.9530 C.3      12 GLL5        0.0000 
     25 N           7.5325  -33.4465  -26.8975 N.am      2 SEC2        0.0000 
     26 N           7.9920  -32.1450  -26.5180 N.am     10 SEL2        0.0000 
     27 N           7.0730  -34.7480  -27.2770 N.am      6 SEP2        0.0000 
     28 CA          7.1050  -30.4960  -28.1895 C.3       4 GLC5        0.0000 
     29 CA          6.5900  -29.2890  -26.3640 C.3      12 GLL5        0.0000 
     30 CA          7.6200  -31.7030  -30.0150 C.3       8 GLP5        0.0000 
     31 CA          3.4600  -28.6675  -26.2815 C.3       4 GLC5        0.0000 
     32 CA          5.3360  -28.6400  -25.7950 C.3      12 GLL5        0.0000 
     33 CA          1.5840  -28.6950  -26.7680 C.3       8 GLP5        0.0000 
     34 CA          6.7890  -26.0765  -25.8340 C.3       4 GLC5        0.0000 
     35 CA          5.5610  -27.4660  -24.8350 C.3      12 GLL5        0.0000 
     36 CA          8.0170  -24.6870  -26.8330 C.3       8 GLP5        0.0000 
     37 CA          4.0210  -26.0365  -25.6105 C.3       4 GLC5        0.0000 
     38 CA          2.4810  -24.6070  -26.3860 C.3       8 GLP5        0.0000 
     39 O           3.2305  -26.9110  -24.2045 O.2       1 ALC1        0.0000 
     40 O           4.3560  -26.6970  -24.9810 O.2       9 ALL1        0.0000 
     41 O           2.1050  -27.1250  -23.4280 O.2       5 ALP1        0.0000 
     42 O           3.5705  -27.2855  -22.9130 O.2       1 ALC1        0.0000 
     43 O           5.0360  -27.4460  -22.3980 O.2       9 ALL1        0.0000 
     44 CA          3.1395  -29.0145  -25.2035 C.3       4 GLC5        0.0000 
     45 CA          4.6950  -29.3340  -23.6390 C.3      12 GLL5        0.0000 
     46 CA          2.6940  -29.6300  -22.8155 C.3       4 GLC5        0.0000 
     47 CA          0.6930  -29.9260  -21.9920 C.3       8 GLP5        0.0000 
     48 CA          2.6825  -30.1425  -21.6965 C.3       4 GLC5        0.0000 
     49 CA          4.6720  -30.3590  -21.4010 C.3      12 GLL5        0.0000 
     50 CA          5.1285  -28.6080  -20.0670 C.3       4 GLC5        0.0000 
     51 CA          5.5850  -26.8570  -18.7330 C.3       8 GLP5        0.0000 
     52 N          10.5425  -30.6475  -34.9775 N.am      2 SEC2        0.0000 
     53 N          11.8670  -30.1680  -35.4610 N.am     10 SEL2        0.0000 
     54 N          12.4240  -30.2200  -36.5785 N.am      2 SEC2        0.0000 
     55 N          12.9810  -30.2720  -37.6960 N.am      6 SEP2        0.0000 
     56 NZ         14.3985  -27.7870  -33.4885 N.4       3 LYC4        0.0000 
     57 NZ         13.6250  -28.7490  -34.2020 N.4      11 LYL4        0.0000 
     58 NZ         15.0430  -25.6800  -33.4320 N.4       7 LYP4        0.0000 
     59 N          13.9215  -27.1825  -34.3385 N.am      2 SEC2        0.0000 
     60 N          13.6250  -28.7490  -34.2020 N.am     10 SEL2        0.0000 
     61 N          14.2180  -25.6160  -34.4750 N.am      6 SEP2        0.0000 
     62 N          14.3985  -27.7870  -33.4885 N.am      2 SEC2        0.0000 
     63 N          15.1720  -26.8250  -32.7750 N.am      6 SEP2        0.0000 
     64 N          12.3170  -27.4980  -36.8740 N.am      2 SEC2        0.0000 
     65 N          11.8080  -27.5990  -35.4680 N.am     10 SEL2        0.0000 
     66 N          12.8260  -27.3970  -38.2800 N.am      6 SEP2        0.0000 
     67 N          13.0130  -26.6075  -34.9715 N.am      2 SEC2        0.0000 
     68 N          10.9430  -26.6875  -35.2425 N.am      2 SEC2        0.0000 
     69 N          10.0780  -25.7760  -35.0170 N.am      6 SEP2        0.0000 
     70 CA          8.7910  -30.2295  -29.9565 C.3       4 GLC5        0.0000 
     71 CA         10.1120  -28.7480  -30.6510 C.3      12 GLL5        0.0000 
     72 CA          8.2550  -27.4585  -29.9645 C.3       4 GLC5        0.0000 
     73 CA          9.8120  -28.7640  -29.1450 C.3      12 GLL5        0.0000 
     74 CA          6.5480  -26.1610  -30.0310 C.3       8 GLP5        0.0000 
     75 CA          9.5715  -26.9305  -29.4185 C.3       4 GLC5        0.0000 
     76 CA         11.7643  -24.3485  -29.2808 C.3       4 GLC5        0.0000 
     77 CA         11.7492  -22.7020  -30.6457 C.3       4 GLC5        0.0000 
     78 CA         10.1740  -21.5050  -30.5820 C.3       8 GLP5        0.0000 
     79 CA          5.3080  -30.8773  -26.6478 C.3       4 GLC5        0.0000 
     80 CA          4.6530  -32.7900  -27.2160 C.3       8 GLP5        0.0000 
     81 CA          4.3015  -32.9853  -23.8183 C.3       4 GLC5        0.0000 
     82 CA          5.5780  -31.5140  -23.2710 C.3      12 GLL5        0.0000 
     83 CA          2.8590  -33.9080  -24.7600 C.3       8 GLP5        0.0000 
@<TRIPOS>BOND
@<TRIPOS>SUBSTRUCTURE
     1 ALC1       39 GROUP        1 X    ALC  0     ROOT ALC X 1
     2 SEC2        1 GROUP        1 X    SEC  0     **** SEC X 2
     3 LYC4       56 GROUP        1 X    LYC  0     **** LYC X 4
     4 GLC5        4 GROUP        1 X    GLC  0     **** GLC X 6
     5 ALP1       41 GROUP        1 Y    ALP  0     ROOT ALP Y 8
     6 SEP2        3 GROUP        1 Y    SEP  0     **** SEP Y 9
     7 LYP4       58 GROUP        1 Y    LYP  0     **** LYP Y 11
     8 GLP5        6 GROUP        1 Y    GLP  0     **** GLP Y 13
     9 ALL1       40 GROUP        1 Z    ALL  0     ROOT ALL Z 15
    10 SEL2        2 GROUP        1 Z    SEL  0     **** SEL Z 16
    11 LYL4       57 GROUP        1 Z    LYL  0     **** LYL Z 18
    12 GLL5        5 GROUP        1 Z    GLL  0     **** GLL Z 20
@<TRIPOS>SET

