#    Name: 3rbv_NAP_1_ligand
#    Modification time : Tue Mar 25 11:20:56 2014

@<TRIPOS>MOLECULE
3rbv_NAP_1_ligand
   71    75     1     0     0
SMALL
NO_CHARGES


@<TRIPOS>ATOM
      1 PA         10.7520  -30.4850  -27.3190 P.3       1 NAP334      0.0000 
      2 O1A        10.9560  -31.9850  -27.4230 O.co2     1 NAP334      0.0000 
      3 O2A        11.7680  -29.4110  -27.0610 O.co2     1 NAP334      0.0000 
      4 O5B        10.0630  -30.1070  -28.7300 O.3       1 NAP334      0.0000 
      5 C5B         9.8120  -28.7640  -29.1450 C.3       1 NAP334      0.0000 
      6 C4B        10.1120  -28.7480  -30.6510 C.3       1 NAP334      0.0000 
      7 O4B         9.9280  -27.3980  -31.0830 O.3       1 NAP334      0.0000 
      8 C3B        11.5320  -29.1430  -31.0330 C.3       1 NAP334      0.0000 
      9 O3B        11.5740  -30.5200  -31.4240 O.3       1 NAP334      0.0000 
     10 C2B        11.8400  -28.2650  -32.2450 C.3       1 NAP334      0.0000 
     11 O2B        11.3280  -28.8510  -33.4360 O.3       1 NAP334      0.0000 
     12 C1B        10.8980  -27.0790  -32.0750 C.3       1 NAP334      0.0000 
     13 N9A        11.5530  -25.7600  -31.9000 N.pl3     1 NAP334      0.0000 
     14 C8A        11.3630  -24.6650  -32.6500 C.2       1 NAP334      0.0000 
     15 N7A        12.1520  -23.6740  -32.1840 N.2       1 NAP334      0.0000 
     16 C5A        12.8420  -24.1600  -31.1340 C.ar      1 NAP334      0.0000 
     17 C6A        13.8070  -23.6380  -30.2850 C.ar      1 NAP334      0.0000 
     18 N6A        14.2180  -22.3550  -30.4350 N.pl3     1 NAP334      0.0000 
     19 N1A        14.3040  -24.4390  -29.3110 N.ar      1 NAP334      0.0000 
     20 C2A        13.9120  -25.7160  -29.1600 C.ar      1 NAP334      0.0000 
     21 N3A        12.9860  -26.2540  -29.9750 N.ar      1 NAP334      0.0000 
     22 C4A        12.4560  -25.4820  -30.9530 C.ar      1 NAP334      0.0000 
     23 O3          9.6350  -30.1340  -26.1980 O.3       1 NAP334      0.0000 
     24 PN          8.4080  -31.0190  -25.5890 P.3       1 NAP334      0.0000 
     25 O1N         7.9920  -32.1450  -26.5180 O.co2     1 NAP334      0.0000 
     26 O2N         8.8340  -31.4430  -24.2000 O.co2     1 NAP334      0.0000 
     27 O5D         7.3690  -29.8040  -25.2820 O.3       1 NAP334      0.0000 
     28 C5D         6.5900  -29.2890  -26.3640 C.3       1 NAP334      0.0000 
     29 C4D         5.3360  -28.6400  -25.7950 C.3       1 NAP334      0.0000 
     30 O4D         4.7320  -29.6830  -25.0310 O.3       1 NAP334      0.0000 
     31 C3D         5.5610  -27.4660  -24.8350 C.3       1 NAP334      0.0000 
     32 O3D         4.3560  -26.6970  -24.9810 O.3       1 NAP334      0.0000 
     33 C2D         5.6530  -28.1580  -23.4750 C.3       1 NAP334      0.0000 
     34 O2D         5.0360  -27.4460  -22.3980 O.3       1 NAP334      0.0000 
     35 C1D         4.6950  -29.3340  -23.6390 C.3       1 NAP334      0.0000 
     36 N1N         4.9990  -30.4370  -22.7130 N.pl3     1 NAP334      0.0000 
     37 C2N         5.5780  -31.5140  -23.2710 C.ar      1 NAP334      0.0000 
     38 C3N         5.9100  -32.6110  -22.4820 C.ar      1 NAP334      0.0000 
     39 C7N         6.5840  -33.8210  -23.0790 C.2       1 NAP334      0.0000 
     40 O7N         6.0080  -34.8400  -22.7220 O.2       1 NAP334      0.0000 
     41 N7N         7.6740  -33.8290  -23.8590 N.am      1 NAP334      0.0000 
     42 C4N         5.6060  -32.5650  -21.1180 C.ar      1 NAP334      0.0000 
     43 C5N         4.9640  -31.4470  -20.5830 C.ar      1 NAP334      0.0000 
     44 C6N         4.6720  -30.3590  -21.4010 C.ar      1 NAP334      0.0000 
     45 P2B        12.2400  -28.8680  -34.7720 P.3       1 NAP334      0.0000 
     46 O1X        11.8670  -30.1680  -35.4610 O.co2     1 NAP334      0.0000 
     47 O2X        13.6250  -28.7490  -34.2020 O.co2     1 NAP334      0.0000 
     48 O3X        11.8080  -27.5990  -35.4680 O.co2     1 NAP334      0.0000 
     49 H          10.4701  -28.0577  -28.6678 H         1 NAP334      0.0000 
     50 H           8.7828  -28.4783  -29.0084 H         1 NAP334      0.0000 
     51 H           9.4148  -29.3916  -31.1514 H         1 NAP334      0.0000 
     52 H          12.1844  -28.8946  -30.2563 H         1 NAP334      0.0000 
     53 H          12.7929  -27.9540  -32.2734 H         1 NAP334      0.0000 
     54 H          10.3330  -27.0300  -33.0756 H         1 NAP334      0.0000 
     55 H          10.7584  -24.5917  -33.4053 H         1 NAP334      0.0000 
     56 H          14.9347  -22.0466  -29.8095 H         1 NAP334      0.0000 
     57 H          13.7681  -21.8305  -31.1578 H         1 NAP334      0.0000 
     58 H          14.3327  -26.3010  -28.3976 H         1 NAP334      0.0000 
     59 H           6.2794  -30.0785  -27.0515 H         1 NAP334      0.0000 
     60 H           7.1348  -28.5313  -26.9310 H         1 NAP334      0.0000 
     61 H           4.6927  -28.3468  -26.5880 H         1 NAP334      0.0000 
     62 H           6.4231  -26.9896  -25.0825 H         1 NAP334      0.0000 
     63 H           6.5874  -28.5217  -23.2876 H         1 NAP334      0.0000 
     64 H           3.6896  -28.9274  -23.4037 H         1 NAP334      0.0000 
     65 H           5.7856  -31.5482  -24.2851 H         1 NAP334      0.0000 
     66 H           5.8554  -33.3540  -20.5109 H         1 NAP334      0.0000 
     67 H           4.7087  -31.4287  -19.5896 H         1 NAP334      0.0000 
     68 H           4.2223  -29.5309  -21.0048 H         1 NAP334      0.0000 
     69 H          11.1640  -30.5426  -32.3359 H         1 NAP334      0.0000 
     70 H           3.7324  -27.0592  -24.2882 H         1 NAP334      0.0000 
     71 H           4.0904  -27.3033  -22.6904 H         1 NAP334      0.0000 
@<TRIPOS>BOND
     1    2    1 ar   
     2    3    1 ar   
     3    4    1 1    
     4   23    1 1    
     5    5    4 1    
     6    6    5 1    
     7   49    5 1    
     8   50    5 1    
     9    7    6 1    
    10    8    6 1    
    11   51    6 1    
    12   12    7 1    
    13    9    8 1    
    14   10    8 1    
    15   52    8 1    
    16   69    9 1    
    17   11   10 1    
    18   12   10 1    
    19   53   10 1    
    20   45   11 1    
    21   13   12 1    
    22   54   12 1    
    23   14   13 1    
    24   22   13 1    
    25   15   14 2    
    26   55   14 1    
    27   16   15 1    
    28   17   16 ar   
    29   22   16 ar   
    30   18   17 1    
    31   19   17 ar   
    32   56   18 1    
    33   57   18 1    
    34   20   19 ar   
    35   21   20 ar   
    36   58   20 1    
    37   22   21 ar   
    38   24   23 1    
    39   25   24 ar   
    40   26   24 ar   
    41   27   24 1    
    42   28   27 1    
    43   29   28 1    
    44   59   28 1    
    45   60   28 1    
    46   30   29 1    
    47   31   29 1    
    48   61   29 1    
    49   35   30 1    
    50   32   31 1    
    51   33   31 1    
    52   62   31 1    
    53   70   32 1    
    54   34   33 1    
    55   35   33 1    
    56   63   33 1    
    57   71   34 1    
    58   36   35 1    
    59   64   35 1    
    60   37   36 ar   
    61   44   36 ar   
    62   38   37 ar   
    63   65   37 1    
    64   39   38 1    
    65   42   38 ar   
    66   40   39 2    
    67   41   39 am   
    68   43   42 ar   
    69   66   42 1    
    70   44   43 ar   
    71   67   43 1    
    72   68   44 1    
    73   46   45 ar   
    74   47   45 ar   
    75   48   45 ar   
@<TRIPOS>SUBSTRUCTURE
     1 NAP334      1 GROUP   
@<TRIPOS>SET

