#    Name: 2y5l_RO8_4_INTS_M
#    Modification time : Tue Mar 25 07:39:21 2014

@<TRIPOS>MOLECULE
2y5l_RO8_4_INTS_M
   56     0     9     0     0
SMALL
NO_CHARGES


@<TRIPOS>ATOM
      1 CA         25.9990  -13.3805   27.6655 C.3       3 GLC5        0.0000 
      2 CA         25.8420  -14.0260   29.4210 C.3       9 GLL5        0.0000 
      3 CA         26.1560  -12.7350   25.9100 C.3       6 GLP5        0.0000 
      4 CA         24.2025  -15.3770   28.9070 C.3       3 GLC5        0.0000 
      5 CA         22.5630  -16.7280   28.3930 C.3       6 GLP5        0.0000 
      6 CA         27.4935  -13.3020   28.6655 C.3       3 GLC5        0.0000 
      7 CA         29.1450  -12.5780   27.9100 C.3       6 GLP5        0.0000 
      8 CA         27.1140  -15.4050   29.0315 C.3       3 GLC5        0.0000 
      9 CA         28.3860  -16.7840   28.6420 C.3       6 GLP5        0.0000 
     10 CA         20.6075  -10.1400   29.5165 C.3       3 GLC5        0.0000 
     11 CA         20.6030   -9.4050   31.4460 C.3       9 GLL5        0.0000 
     12 CA         20.6120  -10.8750   27.5870 C.3       6 GLP5        0.0000 
     13 CA         21.0025  -11.5070   31.4945 C.3       3 GLC5        0.0000 
     14 CA         21.4020  -13.6090   31.5430 C.3       6 GLP5        0.0000 
     15 CA         22.4075   -8.7020   30.3720 C.3       3 GLC5        0.0000 
     16 CA         24.2120   -7.9990   29.2980 C.3       6 GLP5        0.0000 
     17 CA         16.9215   -7.0060   30.6045 C.3       3 GLC5        0.0000 
     18 CA         18.4890   -7.5420   29.8920 C.3       9 GLL5        0.0000 
     19 CA         15.3540   -6.4700   31.3170 C.3       6 GLP5        0.0000 
     20 CA         18.5555   -5.7570   28.8080 C.3       3 GLC5        0.0000 
     21 CA         18.6220   -3.9720   27.7240 C.3       6 GLP5        0.0000 
     22 CA         19.5390   -7.9615   28.4355 C.3       3 GLC5        0.0000 
     23 CA         20.5890   -8.3810   26.9790 C.3       6 GLP5        0.0000 
     24 CA         17.6160   -9.4075   30.6005 C.3       3 GLC5        0.0000 
     25 CA         16.7430  -11.2730   31.3090 C.3       6 GLP5        0.0000 
     26 O          21.9710  -11.0780   35.5720 O.2       1 ALC1        0.0000 
     27 O          23.0550  -11.5310   34.3150 O.2       7 ALL1        0.0000 
     28 O          20.8870  -10.6250   36.8290 O.2       4 ALP1        0.0000 
     29 N          23.6025  -10.3780   31.1980 N.am      2 SEC2        0.0000 
     30 N          22.8100  -10.4630   32.3980 N.am      8 SEL2        0.0000 
     31 N          24.3950  -10.2930   29.9980 N.am      5 SEP2        0.0000 
     32 N          26.1185  -10.1230   32.4165 N.am      2 SEC2        0.0000 
     33 N          25.2260  -10.7920   33.5050 N.am      8 SEL2        0.0000 
     34 N          27.0110   -9.4540   31.3280 N.am      5 SEP2        0.0000 
     35 CA         25.0045  -11.0500   31.0765 C.3       3 GLC5        0.0000 
     36 CA         25.1230  -13.1180   31.8910 C.3       9 GLL5        0.0000 
     37 CA         24.8860   -8.9820   30.2620 C.3       6 GLP5        0.0000 
     38 CA         23.8290  -16.1210   30.0250 C.3       3 GLC5        0.0000 
     39 CA         25.0950  -15.5140   31.6570 C.3       9 GLL5        0.0000 
     40 CA         27.0100  -14.8440   32.0445 C.3       3 GLC5        0.0000 
     41 CA         28.9250  -14.1740   32.4320 C.3       6 GLP5        0.0000 
     42 CA         27.2505  -14.1540   31.3505 C.3       3 GLC5        0.0000 
     43 CA         25.3100  -14.2420   31.1170 C.3       9 GLL5        0.0000 
     44 CA         17.0792   -7.5035   31.6620 C.3       3 GLC5        0.0000 
     45 CA         19.1390   -8.5120   31.4210 C.3       9 GLL5        0.0000 
     46 CA         17.9567  -10.0166   31.6611 C.3       3 GLC5        0.0000 
     47 CA         18.4700   -8.5620   32.5930 C.3       9 GLL5        0.0000 
     48 CA         23.1650  -13.4055   32.0460 C.3       3 GLC5        0.0000 
     49 CA         24.7330  -13.2860   33.2070 C.3       9 GLL5        0.0000 
     50 CA         26.6075  -12.4970   32.7590 C.3       3 GLC5        0.0000 
     51 CA         28.2870  -11.7920   32.9690 C.3       6 GLP5        0.0000 
     52 CA         23.0075  -14.3550   32.4600 C.3       3 GLC5        0.0000 
     53 CA         24.5210  -14.5370   33.7720 C.3       9 GLL5        0.0000 
     54 CA         23.1515  -16.1380   34.0700 C.3       3 GLC5        0.0000 
     55 CA         21.6900  -17.1750   34.7630 C.3       6 GLP5        0.0000 
     56 CA         23.3023  -14.2435   31.4650 C.3       3 GLC5        0.0000 
@<TRIPOS>BOND
@<TRIPOS>SUBSTRUCTURE
     1 ALC1       26 GROUP        1 X    ALC  0     ROOT ALC X 1
     2 SEC2       29 GROUP        1 X    SEC  0     **** SEC X 2
     3 GLC5        1 GROUP        1 X    GLC  0     **** GLC X 6
     4 ALP1       28 GROUP        1 Y    ALP  0     ROOT ALP Y 8
     5 SEP2       31 GROUP        1 Y    SEP  0     **** SEP Y 9
     6 GLP5        3 GROUP        1 Y    GLP  0     **** GLP Y 13
     7 ALL1       27 GROUP        1 Z    ALL  0     ROOT ALL Z 15
     8 SEL2       30 GROUP        1 Z    SEL  0     **** SEL Z 16
     9 GLL5        2 GROUP        1 Z    GLL  0     **** GLL Z 20
@<TRIPOS>SET

