#    Name: 2y5l_RO8_4_ligand
#    Modification time : Tue Mar 25 07:39:21 2014

@<TRIPOS>MOLECULE
2y5l_RO8_4_ligand
   27    28     1     0     0
SMALL
NO_CHARGES


@<TRIPOS>ATOM
      1 CL         25.8420  -14.0260   29.4210 Cl        1 RO81000     0.0000 
      2 S1         20.6030   -9.4050   31.4460 S.3       1 RO81000     0.0000 
      3 C2         20.2280   -9.8390   33.0710 C.2       1 RO81000     0.0000 
      4 N3         19.0870   -9.2960   33.5560 N.pl3     1 RO81000     0.0000 
      5 C4         18.4700   -8.5620   32.5930 C.2       1 RO81000     0.0000 
      6 C5         19.1390   -8.5120   31.4210 C.2       1 RO81000     0.0000 
      7 BR6        18.4890   -7.5420   29.8920 Br        1 RO81000     0.0000 
      8 N7         21.0720  -10.5690   33.7970 N.2       1 RO81000     0.0000 
      9 S8         24.5230  -11.8940   34.1310 S.o2      1 RO81000     0.0000 
     10 N9         23.0550  -11.5310   34.3150 N.am      1 RO81000     0.0000 
     11 C10        22.3380  -10.8310   33.4570 C.2       1 RO81000     0.0000 
     12 O11        22.8100  -10.4630   32.3980 O.2       1 RO81000     0.0000 
     13 O12        25.2260  -10.7920   33.5050 O.2       1 RO81000     0.0000 
     14 O13        25.0500  -12.1190   35.4230 O.2       1 RO81000     0.0000 
     15 C14        24.7330  -13.2860   33.2070 C.ar      1 RO81000     0.0000 
     16 C15        25.1230  -13.1180   31.8910 C.ar      1 RO81000     0.0000 
     17 C16        24.5210  -14.5370   33.7720 C.ar      1 RO81000     0.0000 
     18 C17        25.3100  -14.2420   31.1170 C.ar      1 RO81000     0.0000 
     19 C18        24.7050  -15.6650   32.9820 C.ar      1 RO81000     0.0000 
     20 C19        25.0950  -15.5140   31.6570 C.ar      1 RO81000     0.0000 
     21 H          18.7534   -9.4127   34.4642 H         1 RO81000     0.0000 
     22 H          17.5947   -8.0997   32.7438 H         1 RO81000     0.0000 
     23 H          22.6556  -11.9036   35.2199 H         1 RO81000     0.0000 
     24 H          25.2678  -12.1848   31.5057 H         1 RO81000     0.0000 
     25 H          24.2361  -14.6260   34.7468 H         1 RO81000     0.0000 
     26 H          24.5544  -16.6000   33.3730 H         1 RO81000     0.0000 
     27 H          25.2284  -16.3465   31.0620 H         1 RO81000     0.0000 
@<TRIPOS>BOND
     1   18    1 1    
     2    3    2 1    
     3    6    2 1    
     4    4    3 1    
     5    8    3 2    
     6    5    4 1    
     7   21    4 1    
     8    6    5 2    
     9   22    5 1    
    10    7    6 1    
    11   11    8 1    
    12   10    9 1    
    13   13    9 2    
    14   14    9 2    
    15   15    9 1    
    16   11   10 am   
    17   23   10 1    
    18   12   11 2    
    19   16   15 ar   
    20   17   15 ar   
    21   18   16 ar   
    22   24   16 1    
    23   19   17 ar   
    24   25   17 1    
    25   20   18 ar   
    26   20   19 ar   
    27   26   19 1    
    28   27   20 1    
@<TRIPOS>SUBSTRUCTURE
     1 RO81000     1 GROUP   
@<TRIPOS>SET

