#    Name: 4g2r_H1L_3_INTS_M
#    Modification time : Mon Mar 24 21:16:14 2014

@<TRIPOS>MOLECULE
4g2r_H1L_3_INTS_M
   66     0     6     0     0
SMALL
NO_CHARGES


@<TRIPOS>ATOM
      1 N         -35.9795  -27.5010   18.1975 N.am      1 SEC2        0.0000 
      2 N         -35.3870  -27.0170   16.9940 N.am      5 SEL2        0.0000 
      3 N         -36.5720  -27.9850   19.4010 N.am      3 SEP2        0.0000 
      4 N         -36.0630  -27.4010   15.7690 N.am      1 SEC2        0.0000 
      5 N         -36.7390  -27.7850   14.5440 N.am      3 SEP2        0.0000 
      6 CA        -36.9580  -23.7830   16.7150 C.3       2 GLC5        0.0000 
      7 CA        -34.9740  -23.9030   16.8550 C.3       6 GLL5        0.0000 
      8 CA        -38.9420  -23.6630   16.5750 C.3       4 GLP5        0.0000 
      9 CA        -35.6640  -23.0540   20.8235 C.3       2 GLC5        0.0000 
     10 CA        -35.4210  -25.1020   21.2710 C.3       6 GLL5        0.0000 
     11 CA        -35.9070  -21.0060   20.3760 C.3       4 GLP5        0.0000 
     12 CA        -35.7175  -26.8305   20.0260 C.3       2 GLC5        0.0000 
     13 CA        -33.6900  -26.3520   20.1300 C.3       6 GLL5        0.0000 
     14 CA        -37.7450  -27.3090   19.9220 C.3       4 GLP5        0.0000 
     15 CA        -32.6035  -24.4960   23.3270 C.3       2 GLC5        0.0000 
     16 CA        -32.8500  -26.1480   24.6910 C.3       6 GLL5        0.0000 
     17 CA        -32.3570  -22.8440   21.9630 C.3       4 GLP5        0.0000 
     18 CA        -32.3415  -23.4445   23.7675 C.3       2 GLC5        0.0000 
     19 CA        -32.3260  -24.0450   25.5720 C.3       6 GLL5        0.0000 
     20 CA        -31.0005  -22.5040   24.7355 C.3       2 GLC5        0.0000 
     21 CA        -29.6750  -20.9630   23.8990 C.3       4 GLP5        0.0000 
     22 CA        -30.0235  -25.7100   29.5815 C.3       2 GLC5        0.0000 
     23 CA        -31.0300  -24.4910   28.8760 C.3       6 GLL5        0.0000 
     24 CA        -29.0170  -26.9290   30.2870 C.3       4 GLP5        0.0000 
     25 CA        -32.3335  -21.1130   27.4350 C.3       2 GLC5        0.0000 
     26 CA        -31.9440  -22.6950   28.0350 C.3       6 GLL5        0.0000 
     27 CA        -32.7230  -19.5310   26.8350 C.3       4 GLP5        0.0000 
     28 CA        -29.8275  -22.1465   25.6495 C.3       2 GLC5        0.0000 
     29 CA        -29.9800  -23.3300   27.4000 C.3       6 GLL5        0.0000 
     30 CA        -29.6675  -25.9050   26.7015 C.3       2 GLC5        0.0000 
     31 CA        -31.7550  -26.0090   26.8330 C.3       6 GLL5        0.0000 
     32 CA        -27.5800  -25.8010   26.5700 C.3       4 GLP5        0.0000 
     33 CA        -30.7680  -28.4160   25.0505 C.3       2 GLC5        0.0000 
     34 CA        -32.3220  -28.5330   25.8780 C.3       6 GLL5        0.0000 
     35 CA        -29.2140  -28.2990   24.2230 C.3       4 GLP5        0.0000 
     36 CA        -32.9060  -29.7180   27.4365 C.3       2 GLC5        0.0000 
     37 CA        -33.4900  -30.9030   28.9950 C.3       4 GLP5        0.0000 
     38 CA        -34.0095  -28.1380   26.0675 C.3       2 GLC5        0.0000 
     39 CA        -35.6970  -27.7430   26.2570 C.3       4 GLP5        0.0000 
     40 CA        -31.5190  -30.4220   25.3490 C.3       2 GLC5        0.0000 
     41 CA        -30.7160  -32.3110   24.8200 C.3       4 GLP5        0.0000 
     42 CA        -35.4005  -24.9645   15.6273 C.3       2 GLC5        0.0000 
     43 CA        -34.4240  -24.9530   17.7620 C.3       6 GLL5        0.0000 
     44 CA        -36.1020  -25.5010   13.9460 C.3       4 GLP5        0.0000 
     45 CA        -34.0790  -22.6125   17.2617 C.3       2 GLC5        0.0000 
     46 CA        -33.4590  -20.7970   17.2150 C.3       4 GLP5        0.0000 
     47 CA        -33.7275  -24.0697   21.3233 C.3       2 GLC5        0.0000 
     48 CA        -34.7750  -25.4890   20.0960 C.3       6 GLL5        0.0000 
     49 CA        -36.8420  -24.3652   19.8727 C.3       2 GLC5        0.0000 
     50 CA        -38.5860  -23.4350   19.0620 C.3       4 GLP5        0.0000 
     51 CA        -33.3908  -24.4277   22.2385 C.3       2 GLC5        0.0000 
     52 CA        -34.9780  -25.5840   22.4950 C.3       6 GLL5        0.0000 
     53 CA        -36.3915  -26.3744   20.7556 C.3       2 GLC5        0.0000 
     54 CA        -32.9138  -24.7172   21.3523 C.3       2 GLC5        0.0000 
     55 CA        -34.2559  -27.9804   20.0500 C.3       2 GLC5        0.0000 
     56 CA        -33.2510  -26.8290   21.3530 C.3       6 GLL5        0.0000 
     57 CA        -34.7700  -29.5860   19.3670 C.3       4 GLP5        0.0000 
     58 CA        -35.8696  -26.7670   23.2370 C.3       2 GLC5        0.0000 
     59 CA        -33.8710  -26.4390   22.5330 C.3       6 GLL5        0.0000 
     60 CA        -37.2040  -27.6430   24.2660 C.3       4 GLP5        0.0000 
     61 CA        -32.4951  -23.6285   29.6958 C.3       2 GLC5        0.0000 
     62 CA        -31.1750  -23.7510   27.7840 C.3       6 GLL5        0.0000 
     63 CA        -33.4670  -23.8490   31.2090 C.3       4 GLP5        0.0000 
     64 CA        -29.6699  -21.8562   27.9189 C.3       2 GLC5        0.0000 
     65 CA        -28.5700  -20.4360   28.1830 C.3       4 GLP5        0.0000 
     66 CA        -29.0979  -24.8171   27.1506 C.3       2 GLC5        0.0000 
@<TRIPOS>BOND
@<TRIPOS>SUBSTRUCTURE
     1 SEC2        1 GROUP        1 X    SEC  0     ROOT SEC X 2
     2 GLC5        6 GROUP        1 X    GLC  0     **** GLC X 6
     3 SEP2        3 GROUP        1 Y    SEP  0     ROOT SEP Y 9
     4 GLP5        8 GROUP        1 Y    GLP  0     **** GLP Y 13
     5 SEL2        2 GROUP        1 Z    SEL  0     ROOT SEL Z 16
     6 GLL5        7 GROUP        1 Z    GLL  0     **** GLL Z 20
@<TRIPOS>SET

