#    Name: 4g2r_H1L_3_ligand
#    Modification time : Mon Mar 24 21:16:14 2014

@<TRIPOS>MOLECULE
4g2r_H1L_3_ligand
   34    35     1     0     0
SMALL
NO_CHARGES


@<TRIPOS>ATOM
      1 O1A       -35.3870  -27.0170   16.9940 O.co2     1 H1L501      0.0000 
      2 C1        -34.3800  -26.2480   17.0080 C.2       1 H1L501      0.0000 
      3 O1B       -33.3280  -26.5670   16.3730 O.co2     1 H1L501      0.0000 
      4 C2        -34.4240  -24.9530   17.7620 C.3       1 H1L501      0.0000 
      5 C2A       -34.9740  -23.9030   16.8550 C.3       1 H1L501      0.0000 
      6 O2        -35.2260  -25.0190   18.8850 O.3       1 H1L501      0.0000 
      7 C3        -34.7750  -25.4890   20.0960 C.ar      1 H1L501      0.0000 
      8 C4        -35.4210  -25.1020   21.2710 C.ar      1 H1L501      0.0000 
      9 C5        -34.9780  -25.5840   22.4950 C.ar      1 H1L501      0.0000 
     10 C6        -33.6900  -26.3520   20.1300 C.ar      1 H1L501      0.0000 
     11 C7        -33.2510  -26.8290   21.3530 C.ar      1 H1L501      0.0000 
     12 C8        -33.8710  -26.4390   22.5330 C.ar      1 H1L501      0.0000 
     13 O8        -33.3860  -26.9810   23.7150 O.3       1 H1L501      0.0000 
     14 C9        -32.8500  -26.1480   24.6910 C.ar      1 H1L501      0.0000 
     15 N9        -32.8470  -24.8060   24.6000 N.ar      1 H1L501      0.0000 
     16 C10       -32.3260  -24.0450   25.5720 C.ar      1 H1L501      0.0000 
     17 C11       -31.7720  -24.6120   26.7140 C.ar      1 H1L501      0.0000 
     18 C12       -31.1750  -23.7510   27.7840 C.3       1 H1L501      0.0000 
     19 F1        -31.0300  -24.4910   28.8760 F         1 H1L501      0.0000 
     20 F2        -31.9440  -22.6950   28.0350 F         1 H1L501      0.0000 
     21 F3        -29.9800  -23.3300   27.4000 F         1 H1L501      0.0000 
     22 C13       -31.7550  -26.0090   26.8330 C.ar      1 H1L501      0.0000 
     23 C14       -32.3030  -26.7860   25.8060 C.ar      1 H1L501      0.0000 
     24 CL1       -32.3220  -28.5330   25.8780 Cl        1 H1L501      0.0000 
     25 H         -33.4029  -24.6676   18.0055 H         1 H1L501      0.0000 
     26 H         -36.2226  -24.4614   21.2266 H         1 H1L501      0.0000 
     27 H         -35.4515  -25.3204   23.3615 H         1 H1L501      0.0000 
     28 H         -33.2223  -26.6310   19.2643 H         1 H1L501      0.0000 
     29 H         -32.4507  -27.4848   21.3908 H         1 H1L501      0.0000 
     30 H         -32.3256  -23.0023   25.4907 H         1 H1L501      0.0000 
     31 H         -31.3492  -26.4511   27.6559 H         1 H1L501      0.0000 
     32 H         -35.0247  -23.0120   17.3061 H         1 H1L501      0.0000 
     33 H         -34.4102  -23.7860   16.0374 H         1 H1L501      0.0000 
     34 H         -35.8977  -24.1272   16.5444 H         1 H1L501      0.0000 
@<TRIPOS>BOND
     1    2    1 ar   
     2    3    2 ar   
     3    4    2 1    
     4    5    4 1    
     5    6    4 1    
     6   25    4 1    
     7   32    5 1    
     8   33    5 1    
     9   34    5 1    
    10    7    6 1    
    11    8    7 ar   
    12   10    7 ar   
    13    9    8 ar   
    14   26    8 1    
    15   12    9 ar   
    16   27    9 1    
    17   11   10 ar   
    18   28   10 1    
    19   12   11 ar   
    20   29   11 1    
    21   13   12 1    
    22   14   13 1    
    23   15   14 ar   
    24   23   14 ar   
    25   16   15 ar   
    26   17   16 ar   
    27   30   16 1    
    28   18   17 1    
    29   22   17 ar   
    30   19   18 1    
    31   20   18 1    
    32   21   18 1    
    33   23   22 ar   
    34   31   22 1    
    35   24   23 1    
@<TRIPOS>SUBSTRUCTURE
     1 H1L501      1 GROUP   
@<TRIPOS>SET

