#    Name: 4h12_SAH_1_INTS_M
#    Modification time : Tue Mar 25 00:04:09 2014

@<TRIPOS>MOLECULE
4h12_SAH_1_INTS_M
   80     0     9     0     0
SMALL
NO_CHARGES


@<TRIPOS>ATOM
      1 O          -3.5855   27.6960   20.9410 O.2       1 ALC1        0.0000 
      2 O          -3.4920   26.4220   20.4500 O.2       7 ALL1        0.0000 
      3 O          -3.6790   28.9700   21.4320 O.2       4 ALP1        0.0000 
      4 O          -2.9605   25.7355   21.5135 O.2       1 ALC1        0.0000 
      5 O          -2.4290   25.0490   22.5770 O.2       4 ALP1        0.0000 
      6 O          -2.2070   26.5215   20.1435 O.2       1 ALC1        0.0000 
      7 O          -0.9220   26.6210   19.8370 O.2       4 ALP1        0.0000 
      8 CA         -5.9535   26.6140   18.9765 C.3       3 GLC5        0.0000 
      9 CA         -4.4130   25.5570   19.6400 C.3       9 GLL5        0.0000 
     10 CA         -7.4940   27.6710   18.3130 C.3       6 GLP5        0.0000 
     11 CA         -5.7665   26.0835   16.7115 C.3       3 GLC5        0.0000 
     12 CA         -3.8390   25.0810   16.4840 C.3       9 GLL5        0.0000 
     13 CA         -7.6940   27.0860   16.9390 C.3       6 GLP5        0.0000 
     14 CA         -5.1065   23.9045   16.5410 C.3       3 GLC5        0.0000 
     15 CA         -6.3740   22.7280   16.5980 C.3       6 GLP5        0.0000 
     16 N          -7.1600   24.0625   19.0160 N.am      2 SEC2        0.0000 
     17 N          -6.3620   24.2030   20.0430 N.am      8 SEL2        0.0000 
     18 N          -7.9580   23.9220   17.9890 N.am      5 SEP2        0.0000 
     19 N          -5.1550   25.7235   22.8370 N.am      2 SEC2        0.0000 
     20 N          -5.7920   25.5130   21.6140 N.am      8 SEL2        0.0000 
     21 N          -4.5180   25.9340   24.0600 N.am      5 SEP2        0.0000 
     22 CA         -1.7365   26.8850   14.7605 C.3       3 GLC5        0.0000 
     23 CA         -3.2770   26.6000   15.7800 C.3       9 GLL5        0.0000 
     24 CA         -0.1960   27.1700   13.7410 C.3       6 GLP5        0.0000 
     25 CA         -5.8475   27.4395   16.6670 C.3       3 GLC5        0.0000 
     26 CA         -4.0010   27.7930   16.3950 C.3       9 GLL5        0.0000 
     27 CA         -5.8540   28.6140   15.7620 C.3       3 GLC5        0.0000 
     28 CA         -3.7550   29.1030   15.6550 C.3       9 GLL5        0.0000 
     29 CA         -7.9530   28.1250   15.8690 C.3       6 GLP5        0.0000 
     30 CA         -1.9755   28.1365   14.6980 C.3       3 GLC5        0.0000 
     31 N          -5.8915   28.2990   14.2080 N.am      2 SEC2        0.0000 
     32 N          -4.7540   29.2240   14.6390 N.am      8 SEL2        0.0000 
     33 N          -7.0290   27.3740   13.7770 N.am      5 SEP2        0.0000 
     34 O          -4.6495   30.5605   14.2240 O.2       1 ALC1        0.0000 
     35 O          -4.7540   29.2240   14.6390 O.2       7 ALL1        0.0000 
     36 O          -4.5450   31.8970   13.8090 O.2       4 ALP1        0.0000 
     37 N          -5.9320   29.5130   17.7665 N.am      2 SEC2        0.0000 
     38 N          -5.3000   30.4020   16.9600 N.am      8 SEL2        0.0000 
     39 N          -6.5640   28.6240   18.5730 N.am      5 SEP2        0.0000 
     40 N          -5.7310   31.5300   16.0775 N.am      2 SEC2        0.0000 
     41 N          -6.1620   32.6580   15.1950 N.am      5 SEP2        0.0000 
     42 N           1.5060   28.3705   17.4520 N.am      2 SEC2        0.0000 
     43 N           0.3710   29.2370   17.8110 N.am      8 SEL2        0.0000 
     44 N           2.6410   27.5040   17.0930 N.am      5 SEP2        0.0000 
     45 CA          0.8495   28.6660   18.9875 C.3       3 GLC5        0.0000 
     46 CA          0.2190   30.5440   18.1390 C.3       9 GLL5        0.0000 
     47 CA          1.4800   26.7880   19.8360 C.3       6 GLP5        0.0000 
     48 CA          1.2435   31.2035   20.0645 C.3       3 GLC5        0.0000 
     49 CA          1.0930   31.7240   18.3940 C.3       9 GLL5        0.0000 
     50 CA          1.3940   30.6830   21.7350 C.3       6 GLP5        0.0000 
     51 CA          2.6930   32.9725   17.6330 C.3       3 GLC5        0.0000 
     52 CA          4.2930   34.2210   16.8720 C.3       6 GLP5        0.0000 
     53 O           3.4760   30.5255   18.1810 O.2       1 ALC1        0.0000 
     54 O           2.4420   31.6410   18.3670 O.2       7 ALL1        0.0000 
     55 O           4.5100   29.4100   17.9950 O.2       4 ALP1        0.0000 
     56 N           1.3545   34.0805   19.0460 N.am      2 SEC2        0.0000 
     57 N           0.5070   32.9120   18.6830 N.am      8 SEL2        0.0000 
     58 N           2.2020   35.2490   19.4090 N.am      5 SEP2        0.0000 
     59 CA         -0.4200   32.1295   20.2965 C.3       3 GLC5        0.0000 
     60 CA         -0.8190   33.0420   18.7410 C.3       9 GLL5        0.0000 
     61 CA         -0.0210   31.2170   21.8520 C.3       6 GLP5        0.0000 
     62 CA          0.6130   34.4300   17.8960 C.3       3 GLC5        0.0000 
     63 CA          2.0450   35.8180   17.0510 C.3       6 GLP5        0.0000 
     64 CA          0.3265   34.1620   20.2635 C.3       3 GLC5        0.0000 
     65 CA          1.4720   35.2820   21.7860 C.3       6 GLP5        0.0000 
     66 CA         -0.1615   33.0695   16.9000 C.3       3 GLC5        0.0000 
     67 CA          0.4960   33.0970   15.0590 C.3       6 GLP5        0.0000 
     68 CA         -0.8545   30.9035   16.1435 C.3       3 GLC5        0.0000 
     69 CA         -1.2230   30.7890   18.2100 C.3       9 GLL5        0.0000 
     70 CA         -0.4860   31.0180   14.0770 C.3       6 GLP5        0.0000 
     71 CA         -4.7820   23.6780   17.5270 C.3       3 GLC5        0.0000 
     72 CA         -2.7600   24.8680   17.8650 C.3       9 GLL5        0.0000 
     73 CA         -2.6460   22.9085   19.2345 C.3       3 GLC5        0.0000 
     74 CA         -3.6200   24.3880   19.0470 C.3       9 GLL5        0.0000 
     75 CA         -2.1020   21.1890   20.0130 C.3       6 GLP5        0.0000 
     76 CA         -2.1562   30.3240   15.1380 C.3       3 GLC5        0.0000 
     77 CA         -0.2615   30.9417   20.0132 C.3       3 GLC5        0.0000 
     78 CA          1.8295   30.1195   16.7897 C.3       3 GLC5        0.0000 
     79 CA          3.0030   29.1050   15.3130 C.3       6 GLP5        0.0000 
     80 CA          0.5760   32.1155   16.6627 C.3       3 GLC5        0.0000 
@<TRIPOS>BOND
@<TRIPOS>SUBSTRUCTURE
     1 ALC1        1 GROUP        1 X    ALC  0     ROOT ALC X 1
     2 SEC2       16 GROUP        1 X    SEC  0     **** SEC X 2
     3 GLC5        8 GROUP        1 X    GLC  0     **** GLC X 6
     4 ALP1        3 GROUP        1 Y    ALP  0     ROOT ALP Y 8
     5 SEP2       18 GROUP        1 Y    SEP  0     **** SEP Y 9
     6 GLP5       10 GROUP        1 Y    GLP  0     **** GLP Y 13
     7 ALL1        2 GROUP        1 Z    ALL  0     ROOT ALL Z 15
     8 SEL2       17 GROUP        1 Z    SEL  0     **** SEL Z 16
     9 GLL5        9 GROUP        1 Z    GLL  0     **** GLL Z 20
@<TRIPOS>SET

