#    Name: 4h12_SAH_1_ligand
#    Modification time : Tue Mar 25 00:04:09 2014

@<TRIPOS>MOLECULE
4h12_SAH_1_ligand
   46    48     1     0     0
SMALL
NO_CHARGES


@<TRIPOS>ATOM
      1 N          -3.4920   26.4220   20.4500 N.4       1 SAH1804     0.0000 
      2 CA         -4.4130   25.5570   19.6400 C.3       1 SAH1804     0.0000 
      3 CB         -3.6200   24.3880   19.0470 C.3       1 SAH1804     0.0000 
      4 CG         -2.7600   24.8680   17.8650 C.3       1 SAH1804     0.0000 
      5 SD         -3.8390   25.0810   16.4840 S.3       1 SAH1804     0.0000 
      6 C          -5.5790   25.0680   20.4710 C.2       1 SAH1804     0.0000 
      7 O          -6.3620   24.2030   20.0430 O.co2     1 SAH1804     0.0000 
      8 OXT        -5.7920   25.5130   21.6140 O.co2     1 SAH1804     0.0000 
      9 C5'        -3.2770   26.6000   15.7800 C.3       1 SAH1804     0.0000 
     10 C4'        -4.0010   27.7930   16.3950 C.3       1 SAH1804     0.0000 
     11 O4'        -3.5550   28.0490   17.7210 O.3       1 SAH1804     0.0000 
     12 C3'        -3.7550   29.1030   15.6550 C.3       1 SAH1804     0.0000 
     13 O3'        -4.7540   29.2240   14.6390 O.3       1 SAH1804     0.0000 
     14 C2'        -3.8980   30.1570   16.7430 C.3       1 SAH1804     0.0000 
     15 O2'        -5.3000   30.4020   16.9600 O.3       1 SAH1804     0.0000 
     16 C1'        -3.2970   29.4350   17.9280 C.3       1 SAH1804     0.0000 
     17 N9         -1.8240   29.6300   17.9500 N.pl3     1 SAH1804     0.0000 
     18 C8         -0.8720   28.7010   17.7070 C.2       1 SAH1804     0.0000 
     19 N7          0.3710   29.2370   17.8110 N.2       1 SAH1804     0.0000 
     20 C5          0.2190   30.5440   18.1390 C.ar      1 SAH1804     0.0000 
     21 C6          1.0930   31.7240   18.3940 C.ar      1 SAH1804     0.0000 
     22 N6          2.4420   31.6410   18.3670 N.pl3     1 SAH1804     0.0000 
     23 N1          0.5070   32.9120   18.6830 N.ar      1 SAH1804     0.0000 
     24 C2         -0.8190   33.0420   18.7410 C.ar      1 SAH1804     0.0000 
     25 N3         -1.6720   32.0390   18.5180 N.ar      1 SAH1804     0.0000 
     26 C4         -1.2230   30.7890   18.2100 C.ar      1 SAH1804     0.0000 
     27 H          -4.7999   26.1476   18.8087 H         1 SAH1804     0.0000 
     28 H          -4.3091   23.6254   18.6985 H         1 SAH1804     0.0000 
     29 H          -2.9725   23.9682   19.8102 H         1 SAH1804     0.0000 
     30 H          -2.0727   24.1428   17.5380 H         1 SAH1804     0.0000 
     31 H          -2.3536   25.8256   18.0170 H         1 SAH1804     0.0000 
     32 H          -3.4791   26.4812   14.7365 H         1 SAH1804     0.0000 
     33 H          -2.2274   26.5970   15.9854 H         1 SAH1804     0.0000 
     34 H          -5.0668   27.6100   16.3885 H         1 SAH1804     0.0000 
     35 H          -2.7705   29.0984   15.2938 H         1 SAH1804     0.0000 
     36 H          -3.3358   30.9830   16.5008 H         1 SAH1804     0.0000 
     37 H          -3.7373   29.7891   18.8173 H         1 SAH1804     0.0000 
     38 H          -1.0525   27.7631   17.4847 H         1 SAH1804     0.0000 
     39 H           2.9389   32.4837   18.5743 H         1 SAH1804     0.0000 
     40 H           2.8233   30.7443   18.1421 H         1 SAH1804     0.0000 
     41 H          -1.2236   34.0055   18.9800 H         1 SAH1804     0.0000 
     42 H          -2.5576   26.4045   20.0944 H         1 SAH1804     0.0000 
     43 H          -3.7867   27.3776   20.4528 H         1 SAH1804     0.0000 
     44 H          -3.4480   26.1260   21.4042 H         1 SAH1804     0.0000 
     45 H          -4.9999   30.1932   14.6321 H         1 SAH1804     0.0000 
     46 H          -5.3345   31.0528   17.7185 H         1 SAH1804     0.0000 
@<TRIPOS>BOND
     1    2    1 1    
     2   42    1 1    
     3   43    1 1    
     4   44    1 1    
     5    3    2 1    
     6    6    2 1    
     7   27    2 1    
     8    4    3 1    
     9   28    3 1    
    10   29    3 1    
    11    5    4 1    
    12   30    4 1    
    13   31    4 1    
    14    9    5 1    
    15    7    6 ar   
    16    8    6 ar   
    17   10    9 1    
    18   32    9 1    
    19   33    9 1    
    20   11   10 1    
    21   12   10 1    
    22   34   10 1    
    23   16   11 1    
    24   13   12 1    
    25   14   12 1    
    26   35   12 1    
    27   45   13 1    
    28   15   14 1    
    29   16   14 1    
    30   36   14 1    
    31   46   15 1    
    32   17   16 1    
    33   37   16 1    
    34   18   17 1    
    35   26   17 1    
    36   19   18 2    
    37   38   18 1    
    38   20   19 1    
    39   21   20 ar   
    40   26   20 ar   
    41   22   21 1    
    42   23   21 ar   
    43   39   22 1    
    44   40   22 1    
    45   24   23 ar   
    46   25   24 ar   
    47   41   24 1    
    48   26   25 ar   
@<TRIPOS>SUBSTRUCTURE
     1 SAH1804     1 GROUP   
@<TRIPOS>SET

