#    Name: 3kvj_1X5_2_INTS_M
#    Modification time : Mon Mar 24 20:36:35 2014

@<TRIPOS>MOLECULE
3kvj_1X5_2_INTS_M
   82     0     9     0     0
SMALL
NO_CHARGES


@<TRIPOS>ATOM
      1 CA         -5.8995   35.1790   -5.6015 C.3       3 GLC5        0.0000 
      2 CA         -4.9610   34.9510   -3.5920 C.3       9 GLL5        0.0000 
      3 CA         -6.8380   35.4070   -7.6110 C.3       6 GLP5        0.0000 
      4 NZ         -3.6610   38.3260   -6.3870 N.4       2 LYC4        0.0000 
      5 NZ         -3.2150   37.8920   -4.8270 N.4       8 LYL4        0.0000 
      6 NZ         -2.9200   38.8810   -8.5210 N.4       5 LYP4        0.0000 
      7 N          -2.5270   38.1450   -6.3735 N.am      1 SEC2        0.0000 
      8 N          -3.2150   37.8920   -4.8270 N.am      7 SEL2        0.0000 
      9 N          -1.8390   38.3980   -7.9200 N.am      4 SEP2        0.0000 
     10 N          -3.6610   38.3260   -6.3870 N.am      1 SEC2        0.0000 
     11 N          -4.1070   38.7600   -7.9470 N.am      4 SEP2        0.0000 
     12 NZ         -3.9405   37.3985   -6.9135 N.4       2 LYC4        0.0000 
     13 NZ         -3.7740   36.0370   -5.8800 N.4       8 LYL4        0.0000 
     14 N          -2.4015   35.7005   -6.7930 N.am      1 SEC2        0.0000 
     15 N          -3.7740   36.0370   -5.8800 N.am      7 SEL2        0.0000 
     16 N          -1.0290   35.3640   -7.7060 N.am      4 SEP2        0.0000 
     17 N          -3.9405   37.3985   -6.9135 N.am      1 SEC2        0.0000 
     18 CA         -5.0960   32.1080    1.2075 C.3       3 GLC5        0.0000 
     19 CA         -7.1100   32.4550    0.8030 C.3       9 GLL5        0.0000 
     20 CA         -3.0820   31.7610    1.6120 C.3       6 GLP5        0.0000 
     21 CA         -7.8730   30.0540   -0.5335 C.3       3 GLC5        0.0000 
     22 CA         -8.3610   31.6710   -1.0850 C.3       9 GLL5        0.0000 
     23 CA         -7.3850   28.4370    0.0180 C.3       6 GLP5        0.0000 
     24 CA         -5.2165   32.2095   -3.4645 C.3       3 GLC5        0.0000 
     25 CA         -5.9230   32.2810   -1.4350 C.3       9 GLL5        0.0000 
     26 CA         -4.5100   32.1380   -5.4940 C.3       6 GLP5        0.0000 
     27 CA         -4.5025   32.0210    0.0885 C.3       3 GLC5        0.0000 
     28 CA         -4.9100   30.6440   -1.9170 C.3       3 GLC5        0.0000 
     29 CA         -3.8970   29.0070   -2.3990 C.3       6 GLP5        0.0000 
     30 CA         -5.8140   32.5580   -4.5550 C.3       3 GLC5        0.0000 
     31 CA         -7.1180   32.9780   -3.6160 C.3       9 GLL5        0.0000 
     32 CA         -8.1100   33.7600   -5.3005 C.3       3 GLC5        0.0000 
     33 CA         -9.1020   34.5420   -6.9850 C.3       6 GLP5        0.0000 
     34 CA         -2.2585   40.8255   -3.8710 C.3       3 GLC5        0.0000 
     35 CA         -2.2720   39.8470   -1.8890 C.3       9 GLL5        0.0000 
     36 CA         -2.2450   41.8040   -5.8530 C.3       6 GLP5        0.0000 
     37 CA          0.9390   40.7645   -1.8585 C.3       3 GLC5        0.0000 
     38 CA         -1.0560   40.2950   -1.0750 C.3       9 GLL5        0.0000 
     39 CA          2.9340   41.2340   -2.6420 C.3       6 GLP5        0.0000 
     40 CA         -1.2955   39.5695    0.8080 C.3       3 GLC5        0.0000 
     41 CA         -1.5350   38.8440    2.6910 C.3       6 GLP5        0.0000 
     42 CA         -2.1575   43.1465   -0.0770 C.3       3 GLC5        0.0000 
     43 CA         -2.2660   41.2220   -1.2160 C.3       9 GLL5        0.0000 
     44 CA         -2.0490   45.0710    1.0620 C.3       6 GLP5        0.0000 
     45 N          -2.8950   39.0600    0.9350 N.am      1 SEC2        0.0000 
     46 N          -3.3390   38.4110   -0.2800 N.am      7 SEL2        0.0000 
     47 N          -2.4510   39.7090    2.1500 N.am      4 SEP2        0.0000 
     48 CA         -5.6238   37.6762   -4.2908 C.3       3 GLC5        0.0000 
     49 CA         -4.4680   37.0050   -2.4320 C.3       9 GLL5        0.0000 
     50 CA         -6.8140   38.7380   -5.5730 C.3       6 GLP5        0.0000 
     51 CA         -5.8680   38.3500   -1.5645 C.3       3 GLC5        0.0000 
     52 CA         -6.9530   39.9470   -1.2640 C.3       6 GLP5        0.0000 
     53 CA         -2.8300   36.4700   -1.7505 C.3       3 GLC5        0.0000 
     54 CA         -5.0980   36.5010   -1.2980 C.3       9 GLL5        0.0000 
     55 CA         -0.8770   36.1870   -1.6360 C.3       6 GLP5        0.0000 
     56 CA         -4.8952   33.4185   -4.2603 C.3       3 GLC5        0.0000 
     57 CA         -5.6000   34.4470   -2.4610 C.3       9 GLL5        0.0000 
     58 CA         -7.0380   35.5654   -1.1144 C.3       3 GLC5        0.0000 
     59 CA         -8.5860   35.9750   -0.3460 C.3       6 GLP5        0.0000 
     60 CA         -3.2435   34.5571   -2.9899 C.3       3 GLC5        0.0000 
     61 CA         -1.3470   34.0970   -2.9550 C.3       6 GLP5        0.0000 
     62 CA         -6.4820   30.3685   -1.0620 C.3       3 GLC5        0.0000 
     63 CA         -7.1610   32.1270   -0.5470 C.3       9 GLL5        0.0000 
     64 CA         -6.4220   28.5330   -1.1330 C.3       6 GLP5        0.0000 
     65 CA         -8.1671   33.9780   -0.4123 C.3       3 GLC5        0.0000 
     66 CA         -8.7150   34.0332    0.4610 C.3       3 GLC5        0.0000 
     67 CA         -8.2620   32.3210    1.5720 C.3       9 GLL5        0.0000 
     68 CA         -9.9575   32.8143    2.9235 C.3       3 GLC5        0.0000 
     69 CA        -11.0710   33.5370    4.5790 C.3       6 GLP5        0.0000 
     70 CA         -9.9400   30.8747    1.9855 C.3       3 GLC5        0.0000 
     71 CA        -11.0360   29.6580    2.7030 C.3       6 GLP5        0.0000 
     72 CA         -8.3115   31.1915    2.7669 C.3       3 GLC5        0.0000 
     73 CA         -9.4260   31.8620    0.9640 C.3       9 GLL5        0.0000 
     74 CA         -8.0670   30.2580    4.4580 C.3       6 GLP5        0.0000 
     75 CA         -7.9705   30.2810    0.5469 C.3       3 GLC5        0.0000 
     76 CA         -4.0955   40.7613   -1.1832 C.3       3 GLC5        0.0000 
     77 CA         -5.9220   40.9880   -0.8140 C.3       6 GLP5        0.0000 
     78 CA         -1.2705   38.1290   -1.5590 C.3       3 GLC5        0.0000 
     79 CA         -0.6935   41.5328    0.1847 C.3       3 GLC5        0.0000 
     80 CA          0.2740   42.3070    1.5150 C.3       6 GLP5        0.0000 
     81 CA         -1.0505   42.1338   -2.1040 C.3       3 GLC5        0.0000 
     82 CA         -0.1360   43.6210   -2.8590 C.3       6 GLP5        0.0000 
@<TRIPOS>BOND
@<TRIPOS>SUBSTRUCTURE
     1 SEC2        7 GROUP        1 X    SEC  0     ROOT SEC X 2
     2 LYC4        4 GROUP        1 X    LYC  0     **** LYC X 4
     3 GLC5        1 GROUP        1 X    GLC  0     **** GLC X 6
     4 SEP2        9 GROUP        1 Y    SEP  0     ROOT SEP Y 9
     5 LYP4        6 GROUP        1 Y    LYP  0     **** LYP Y 11
     6 GLP5        3 GROUP        1 Y    GLP  0     **** GLP Y 13
     7 SEL2        8 GROUP        1 Z    SEL  0     ROOT SEL Z 16
     8 LYL4        5 GROUP        1 Z    LYL  0     **** LYL Z 18
     9 GLL5        2 GROUP        1 Z    GLL  0     **** GLL Z 20
@<TRIPOS>SET

