#    Name: 3kvj_1X5_2_ligand
#    Modification time : Mon Mar 24 20:36:35 2014

@<TRIPOS>MOLECULE
3kvj_1X5_2_ligand
   42    44     1     0     0
SMALL
NO_CHARGES


@<TRIPOS>ATOM
      1 CAA        -4.4680   37.0050   -2.4320 C.ar      1 1X5402      0.0000 
      2 CAB        -4.3990   36.2240   -3.5850 C.ar      1 1X5402      0.0000 
      3 CAC        -5.0980   36.5010   -1.2980 C.ar      1 1X5402      0.0000 
      4 NAD        -3.9870   38.2480   -2.4460 N.am      1 1X5402      0.0000 
      5 CAE        -4.9610   34.9510   -3.5920 C.ar      1 1X5402      0.0000 
      6 CAF        -3.7440   36.7600   -4.8610 C.2       1 1X5402      0.0000 
      7 CAG        -5.6620   35.2280   -1.3110 C.ar      1 1X5402      0.0000 
      8 CAH        -5.6000   34.4470   -2.4610 C.ar      1 1X5402      0.0000 
      9 OAI        -3.2150   37.8920   -4.8270 O.co2     1 1X5402      0.0000 
     10 OAJ        -3.7740   36.0370   -5.8800 O.co2     1 1X5402      0.0000 
     11 CAK        -7.1610   32.1270   -0.5470 C.ar      1 1X5402      0.0000 
     12 CAL        -7.1100   32.4550    0.8030 C.ar      1 1X5402      0.0000 
     13 CAM        -8.3610   31.6710   -1.0850 C.ar      1 1X5402      0.0000 
     14 CAN        -5.9230   32.2810   -1.4350 C.3       1 1X5402      0.0000 
     15 CAO        -8.2620   32.3210    1.5720 C.ar      1 1X5402      0.0000 
     16 NAP        -9.4360   31.5570   -0.3240 N.ar      1 1X5402      0.0000 
     17 NAQ        -6.1980   33.2570   -2.5020 N.pl3     1 1X5402      0.0000 
     18 CAR        -9.4260   31.8620    0.9640 C.ar      1 1X5402      0.0000 
     19 CAS        -7.1180   32.9780   -3.6160 C.3       1 1X5402      0.0000 
     20 CAT        -2.2720   39.8470   -1.8890 C.3       1 1X5402      0.0000 
     21 CAU        -3.2480   38.7510   -1.4600 C.2       1 1X5402      0.0000 
     22 CAV        -1.0560   40.2950   -1.0750 C.3       1 1X5402      0.0000 
     23 CAW        -2.2660   41.2220   -1.2160 C.3       1 1X5402      0.0000 
     24 OAX        -3.3390   38.4110   -0.2800 O.2       1 1X5402      0.0000 
     25 H          -5.1476   37.0739   -0.4423 H         1 1X5402      0.0000 
     26 H          -4.2052   38.8685   -3.2878 H         1 1X5402      0.0000 
     27 H          -4.9042   34.3719   -4.4458 H         1 1X5402      0.0000 
     28 H          -6.1259   34.8641   -0.4676 H         1 1X5402      0.0000 
     29 H          -6.2421   32.7887    1.2238 H         1 1X5402      0.0000 
     30 H          -8.3803   31.4256   -2.0986 H         1 1X5402      0.0000 
     31 H          -5.6785   31.3061   -1.8563 H         1 1X5402      0.0000 
     32 H          -5.0922   32.6125   -0.8124 H         1 1X5402      0.0000 
     33 H          -8.2529   32.5554    2.5648 H         1 1X5402      0.0000 
     34 H         -10.2817   31.7678    1.5534 H         1 1X5402      0.0000 
     35 H          -2.0186   40.0503   -2.8434 H         1 1X5402      0.0000 
     36 H          -0.3994   40.5913   -1.6859 H         1 1X5402      0.0000 
     37 H          -1.1135   39.8809   -0.2280 H         1 1X5402      0.0000 
     38 H          -2.7716   41.1506   -0.4215 H         1 1X5402      0.0000 
     39 H          -2.0574   41.8611   -1.8793 H         1 1X5402      0.0000 
     40 H          -6.6581   33.0397   -4.5018 H         1 1X5402      0.0000 
     41 H          -7.5103   32.0603   -3.5527 H         1 1X5402      0.0000 
     42 H          -7.8822   33.6227   -3.6369 H         1 1X5402      0.0000 
@<TRIPOS>BOND
     1    2    1 ar   
     2    3    1 ar   
     3    4    1 1    
     4    5    2 ar   
     5    6    2 1    
     6    7    3 ar   
     7   25    3 1    
     8   21    4 am   
     9   26    4 1    
    10    8    5 ar   
    11   27    5 1    
    12    9    6 ar   
    13   10    6 ar   
    14    8    7 ar   
    15   28    7 1    
    16   17    8 1    
    17   12   11 ar   
    18   13   11 ar   
    19   14   11 1    
    20   15   12 ar   
    21   29   12 1    
    22   16   13 ar   
    23   30   13 1    
    24   17   14 1    
    25   31   14 1    
    26   32   14 1    
    27   18   15 ar   
    28   33   15 1    
    29   18   16 ar   
    30   19   17 1    
    31   34   18 1    
    32   40   19 1    
    33   41   19 1    
    34   42   19 1    
    35   21   20 1    
    36   22   20 1    
    37   23   20 1    
    38   35   20 1    
    39   24   21 2    
    40   23   22 1    
    41   36   22 1    
    42   37   22 1    
    43   38   23 1    
    44   39   23 1    
@<TRIPOS>SUBSTRUCTURE
     1 1X5402      1 GROUP   
@<TRIPOS>SET

