#    Name: 1vf2_GTX_1_INTS_M
#    Modification time : Tue Mar 25 07:45:30 2014

@<TRIPOS>MOLECULE
1vf2_GTX_1_INTS_M
   81     0    15     0     0
SMALL
NO_CHARGES


@<TRIPOS>ATOM
      1 OD1        26.7135   19.2885   30.1415 O.co2     3 ASC3        0.0000 
      2 OD1        27.6260   17.7810   30.2200 O.co2    13 ASL3        0.0000 
      3 OD1        25.8010   20.7960   30.0630 O.co2     8 ASP3        0.0000 
      4 OD1        27.4475   18.9700   30.8945 O.co2     3 ASC3        0.0000 
      5 OD1        27.2690   20.1590   31.5690 O.co2     8 ASP3        0.0000 
      6 O          28.9140   18.2485   29.8185 O.2       1 ALC1        0.0000 
      7 O          27.6260   17.7810   30.2200 O.2      11 ALL1        0.0000 
      8 O          30.2020   18.7160   29.4170 O.2       6 ALP1        0.0000 
      9 O          27.4475   18.9700   30.8945 O.2       1 ALC1        0.0000 
     10 O          27.2690   20.1590   31.5690 O.2       6 ALP1        0.0000 
     11 O          27.7400   19.0110   29.1365 O.2       1 ALC1        0.0000 
     12 O          27.8540   20.2410   28.0530 O.2       6 ALP1        0.0000 
     13 N          30.3990   14.7545   29.2310 N.am      2 SEC2        0.0000 
     14 N          29.5380   14.9520   30.3080 N.am     12 SEL2        0.0000 
     15 N          31.2600   14.5570   28.1540 N.am      7 SEP2        0.0000 
     16 N          29.3845   13.8290   29.3870 N.am      2 SEC2        0.0000 
     17 N          29.2310   12.7060   28.4660 N.am      7 SEP2        0.0000 
     18 NZ         26.3480   14.7700   28.5735 N.4       4 LYC4        0.0000 
     19 NZ         27.9500   15.5330   28.9530 N.4      14 LYL4        0.0000 
     20 NZ         24.7460   14.0070   28.1940 N.4       9 LYP4        0.0000 
     21 CA         28.8035   15.5230   34.5930 C.3       5 GLC5        0.0000 
     22 CA         27.4690   15.1970   32.9530 C.3      15 GLL5        0.0000 
     23 CA         30.1380   15.8490   36.2330 C.3      10 GLP5        0.0000 
     24 O          28.0705   13.0760   34.5190 O.2       1 ALC1        0.0000 
     25 O          26.8730   13.7940   34.7560 O.2      11 ALL1        0.0000 
     26 O          29.2680   12.3580   34.2820 O.2       6 ALP1        0.0000 
     27 CA         24.0925   13.0815   36.6815 C.3       5 GLC5        0.0000 
     28 CA         26.0800   13.1510   35.7680 C.3      15 GLL5        0.0000 
     29 CA         22.1050   13.0120   37.5950 C.3      10 GLP5        0.0000 
     30 N          29.4190   13.1525   36.6850 N.am      2 SEC2        0.0000 
     31 N          27.8940   13.3670   37.2870 N.am     12 SEL2        0.0000 
     32 N          30.9440   12.9380   36.0830 N.am      7 SEP2        0.0000 
     33 CA         28.0995   10.9430   36.1545 C.3       5 GLC5        0.0000 
     34 CA         26.1470   11.6420   35.5930 C.3      15 GLL5        0.0000 
     35 CA         30.0520   10.2440   36.7160 C.3      10 GLP5        0.0000 
     36 CA         25.4130   10.8705   32.0615 C.3       5 GLC5        0.0000 
     37 CA         25.4750   10.9990   34.0240 C.3      15 GLL5        0.0000 
     38 CA         25.3510   10.7420   30.0990 C.3      10 GLP5        0.0000 
     39 CA         21.9870   11.0960   32.0335 C.3       5 GLC5        0.0000 
     40 CA         22.6740   10.8610   34.0090 C.3      15 GLL5        0.0000 
     41 CA         21.3000   11.3310   30.0580 C.3      10 GLP5        0.0000 
     42 CA         20.5315   10.0660   31.9430 C.3       5 GLC5        0.0000 
     43 CA         20.2710   10.2400   33.8620 C.3      15 GLL5        0.0000 
     44 CA         20.7920    9.8920   30.0240 C.3      10 GLP5        0.0000 
     45 CA         16.9180   10.9915   33.0355 C.3       5 GLC5        0.0000 
     46 CA         18.2850   11.7300   34.1050 C.3      15 GLL5        0.0000 
     47 CA         15.5510   10.2530   31.9660 C.3      10 GLP5        0.0000 
     48 CA         16.3650   11.6605   34.5930 C.3       5 GLC5        0.0000 
     49 CA         14.4450   11.5910   35.0810 C.3      10 GLP5        0.0000 
     50 O          24.5165   13.8835   37.5325 O.2       1 ALC1        0.0000 
     51 O          25.8460   14.0870   37.9870 O.2      11 ALL1        0.0000 
     52 O          23.1870   13.6800   37.0780 O.2       6 ALP1        0.0000 
     53 CA         27.5955   15.5290   38.0305 C.3       5 GLC5        0.0000 
     54 CA         26.3010   14.5240   39.2940 C.3      15 GLL5        0.0000 
     55 CA         28.8900   16.5340   36.7670 C.3      10 GLP5        0.0000 
     56 CA         25.9345   12.6505   39.3755 C.3       5 GLC5        0.0000 
     57 CA         25.5680   10.7770   39.4570 C.3      10 GLP5        0.0000 
     58 CA         25.1130   14.9550   40.7765 C.3       5 GLC5        0.0000 
     59 CA         23.9250   15.3860   42.2590 C.3      10 GLP5        0.0000 
     60 N          26.3535   17.2715   37.1940 N.am      2 SEC2        0.0000 
     61 N          25.6030   16.6900   38.5760 N.am     12 SEL2        0.0000 
     62 N          27.1040   17.8530   35.8120 N.am      7 SEP2        0.0000 
     63 N          26.4560   18.0945   38.6685 N.am      2 SEC2        0.0000 
     64 N          27.3090   19.4990   38.7610 N.am      7 SEP2        0.0000 
     65 NZ         27.0430   18.0355   39.5770 N.4       4 LYC4        0.0000 
     66 NZ         26.7770   16.5720   40.3930 N.4      14 LYL4        0.0000 
     67 NZ         28.1780   19.6810   39.7410 N.4       9 LYP4        0.0000 
     68 N          27.0430   18.0355   39.5770 N.am      2 SEC2        0.0000 
     69 N          26.7770   16.5720   40.3930 N.am     12 SEL2        0.0000 
     70 N          27.5015   17.6945   40.5695 N.am      2 SEC2        0.0000 
     71 N          28.2260   18.8170   40.7460 N.am      7 SEP2        0.0000 
     72 CA         25.8407   11.5867   37.5688 C.3       5 GLC5        0.0000 
     73 CA         26.9925    9.7748   34.2152 C.3       5 GLC5        0.0000 
     74 CA         28.1740    8.2290   33.6220 C.3      10 GLP5        0.0000 
     75 CA         22.2689   11.7024   36.0511 C.3       5 GLC5        0.0000 
     76 CA         21.5760    9.9910   34.5650 C.3      15 GLL5        0.0000 
     77 CA         19.6011    8.6251   35.0556 C.3       5 GLC5        0.0000 
     78 CA         19.1280    6.8130   35.5980 C.3      10 GLP5        0.0000 
     79 CA         19.2390   11.9832   36.1500 C.3       5 GLC5        0.0000 
     80 CA         19.2250   10.7590   34.8130 C.3      15 GLL5        0.0000 
     81 CA         19.7230   12.7220   37.8410 C.3      10 GLP5        0.0000 
@<TRIPOS>BOND
@<TRIPOS>SUBSTRUCTURE
     1 ALC1        6 GROUP        1 X    ALC  0     ROOT ALC X 1
     2 SEC2       13 GROUP        1 X    SEC  0     **** SEC X 2
     3 ASC3        1 GROUP        1 X    ASC  0     **** ASC X 3
     4 LYC4       18 GROUP        1 X    LYC  0     **** LYC X 4
     5 GLC5       21 GROUP        1 X    GLC  0     **** GLC X 6
     6 ALP1        8 GROUP        1 Y    ALP  0     ROOT ALP Y 8
     7 SEP2       15 GROUP        1 Y    SEP  0     **** SEP Y 9
     8 ASP3        3 GROUP        1 Y    ASP  0     **** ASP Y 10
     9 LYP4       20 GROUP        1 Y    LYP  0     **** LYP Y 11
    10 GLP5       23 GROUP        1 Y    GLP  0     **** GLP Y 13
    11 ALL1        7 GROUP        1 Z    ALL  0     ROOT ALL Z 15
    12 SEL2       14 GROUP        1 Z    SEL  0     **** SEL Z 16
    13 ASL3        2 GROUP        1 Z    ASL  0     **** ASL Z 17
    14 LYL4       19 GROUP        1 Z    LYL  0     **** LYL Z 18
    15 GLL5       22 GROUP        1 Z    GLL  0     **** GLL Z 20
@<TRIPOS>SET

