#    Name: 1vf2_GTX_1_ligand
#    Modification time : Tue Mar 25 07:45:30 2014

@<TRIPOS>MOLECULE
1vf2_GTX_1_ligand
   54    53     1     0     0
SMALL
NO_CHARGES


@<TRIPOS>ATOM
      1 N1         27.6260   17.7810   30.2200 N.4       1 GTX2457     0.0000 
      2 CA1        28.1200   16.7160   31.0270 C.3       1 GTX2457     0.0000 
      3 C1         28.5700   15.6540   30.0170 C.2       1 GTX2457     0.0000 
      4 O11        29.5380   14.9520   30.3080 O.co2     1 GTX2457     0.0000 
      5 O12        27.9500   15.5330   28.9530 O.co2     1 GTX2457     0.0000 
      6 CB1        26.9950   16.2250   31.9480 C.3       1 GTX2457     0.0000 
      7 CG1        27.4690   15.1970   32.9530 C.3       1 GTX2457     0.0000 
      8 CD1        26.4040   14.6800   33.8970 C.2       1 GTX2457     0.0000 
      9 OE1        25.2310   15.0780   33.8390 O.2       1 GTX2457     0.0000 
     10 N2         26.8730   13.7940   34.7560 N.am      1 GTX2457     0.0000 
     11 CA2        26.0800   13.1510   35.7680 C.3       1 GTX2457     0.0000 
     12 C2         26.6780   13.5460   37.1000 C.2       1 GTX2457     0.0000 
     13 O2         27.8940   13.3670   37.2870 O.2       1 GTX2457     0.0000 
     14 CB2        26.1470   11.6420   35.5930 C.3       1 GTX2457     0.0000 
     15 SG2        25.4750   10.9990   34.0240 S.3       1 GTX2457     0.0000 
     16 C1S        23.9050   10.7280   34.8900 C.3       1 GTX2457     0.0000 
     17 C2S        22.6740   10.8610   34.0090 C.3       1 GTX2457     0.0000 
     18 C3S        21.5760    9.9910   34.5650 C.3       1 GTX2457     0.0000 
     19 C4S        20.2710   10.2400   33.8620 C.3       1 GTX2457     0.0000 
     20 C5S        19.2250   10.7590   34.8130 C.3       1 GTX2457     0.0000 
     21 C6S        18.2850   11.7300   34.1050 C.3       1 GTX2457     0.0000 
     22 N3         25.8460   14.0870   37.9870 N.am      1 GTX2457     0.0000 
     23 CA3        26.3010   14.5240   39.2940 C.3       1 GTX2457     0.0000 
     24 C3         26.2210   16.0350   39.4280 C.2       1 GTX2457     0.0000 
     25 O31        25.6030   16.6900   38.5760 O.co2     1 GTX2457     0.0000 
     26 O32        26.7770   16.5720   40.3930 O.co2     1 GTX2457     0.0000 
     27 H          28.9558   17.0213   31.6010 H         1 GTX2457     0.0000 
     28 H          26.1979   15.7924   31.3295 H         1 GTX2457     0.0000 
     29 H          26.5728   17.0884   32.4783 H         1 GTX2457     0.0000 
     30 H          28.2969   15.6342   33.5508 H         1 GTX2457     0.0000 
     31 H          27.9118   14.3375   32.4061 H         1 GTX2457     0.0000 
     32 H          27.8960   13.5059   34.7369 H         1 GTX2457     0.0000 
     33 H          25.0680   13.4716   35.7322 H         1 GTX2457     0.0000 
     34 H          25.5627   11.0935   36.3268 H         1 GTX2457     0.0000 
     35 H          27.1608   11.2514   35.5777 H         1 GTX2457     0.0000 
     36 H          23.9518   11.4638   35.6808 H         1 GTX2457     0.0000 
     37 H          24.0390    9.7358   35.2981 H         1 GTX2457     0.0000 
     38 H          22.9186   10.5446   33.0011 H         1 GTX2457     0.0000 
     39 H          22.3519   11.8963   33.9970 H         1 GTX2457     0.0000 
     40 H          21.4590   10.1952   35.6355 H         1 GTX2457     0.0000 
     41 H          21.8564    8.9374   34.4522 H         1 GTX2457     0.0000 
     42 H          19.9174    9.3070   33.4077 H         1 GTX2457     0.0000 
     43 H          20.4233   10.9687   33.0572 H         1 GTX2457     0.0000 
     44 H          19.7065   11.2747   35.6453 H         1 GTX2457     0.0000 
     45 H          18.6419    9.9267   35.2100 H         1 GTX2457     0.0000 
     46 H          24.8324   14.2224   37.7871 H         1 GTX2457     0.0000 
     47 H          27.3434   14.2184   39.4692 H         1 GTX2457     0.0000 
     48 H          25.6907   14.0756   40.0923 H         1 GTX2457     0.0000 
     49 H          26.9892   17.4535   29.5219 H         1 GTX2457     0.0000 
     50 H          27.1387   18.4640   30.7641 H         1 GTX2457     0.0000 
     51 H          28.3639   18.2585   29.7428 H         1 GTX2457     0.0000 
     52 H          18.7756   12.5194   33.7360 H         1 GTX2457     0.0000 
     53 H          17.8104   11.2958   33.3394 H         1 GTX2457     0.0000 
     54 H          17.5826   12.0839   34.7226 H         1 GTX2457     0.0000 
@<TRIPOS>BOND
     1    2    1 1    
     2   49    1 1    
     3   50    1 1    
     4   51    1 1    
     5    3    2 1    
     6    6    2 1    
     7   27    2 1    
     8    4    3 ar   
     9    5    3 ar   
    10    7    6 1    
    11   28    6 1    
    12   29    6 1    
    13    8    7 1    
    14   30    7 1    
    15   31    7 1    
    16    9    8 2    
    17   10    8 am   
    18   11   10 1    
    19   32   10 1    
    20   12   11 1    
    21   14   11 1    
    22   33   11 1    
    23   13   12 2    
    24   22   12 am   
    25   15   14 1    
    26   34   14 1    
    27   35   14 1    
    28   16   15 1    
    29   17   16 1    
    30   36   16 1    
    31   37   16 1    
    32   18   17 1    
    33   38   17 1    
    34   39   17 1    
    35   19   18 1    
    36   40   18 1    
    37   41   18 1    
    38   20   19 1    
    39   42   19 1    
    40   43   19 1    
    41   21   20 1    
    42   44   20 1    
    43   45   20 1    
    44   52   21 1    
    45   53   21 1    
    46   54   21 1    
    47   23   22 1    
    48   46   22 1    
    49   24   23 1    
    50   47   23 1    
    51   48   23 1    
    52   25   24 ar   
    53   26   24 ar   
@<TRIPOS>SUBSTRUCTURE
     1 GTX2457     1 GROUP   
@<TRIPOS>SET

