#    Name: 2q5o_TPW_1_INTS_M
#    Modification time : Mon Mar 24 20:47:41 2014

@<TRIPOS>MOLECULE
2q5o_TPW_1_INTS_M
   80     0    12     0     0
SMALL
NO_CHARGES


@<TRIPOS>ATOM
      1 CA         -7.4770   -5.0780   30.9905 C.3       4 GLC5        0.0000 
      2 CA         -9.4090   -5.4180   29.9040 C.3      12 GLL5        0.0000 
      3 CA         -5.5450   -4.7380   32.0770 C.3       8 GLP5        0.0000 
      4 CA         -7.8705   -5.1285   28.8845 C.3       4 GLC5        0.0000 
      5 CA         -6.3320   -4.8390   27.8650 C.3       8 GLP5        0.0000 
      6 CA         -8.0975   -9.3560   33.6180 C.3       4 GLC5        0.0000 
      7 CA         -9.1580   -8.1400   32.7430 C.3      12 GLL5        0.0000 
      8 CA         -7.0370  -10.5720   34.4930 C.3       8 GLP5        0.0000 
      9 CA         -8.8165   -3.6835   34.5665 C.3       4 GLC5        0.0000 
     10 CA         -9.0160   -4.1720   32.7290 C.3      12 GLL5        0.0000 
     11 CA         -8.6170   -3.1950   36.4040 C.3       8 GLP5        0.0000 
     12 CA         -9.1600   -2.1200   31.9075 C.3       4 GLC5        0.0000 
     13 CA         -9.3040   -0.0680   31.0860 C.3       8 GLP5        0.0000 
     14 CA        -10.4900   -5.8405   34.0415 C.3       4 GLC5        0.0000 
     15 CA         -8.7470   -6.3670   35.0550 C.3      12 GLL5        0.0000 
     16 CA        -12.2330   -5.3140   33.0280 C.3       8 GLP5        0.0000 
     17 CA         -7.0605   -6.2865   33.7280 C.3       4 GLC5        0.0000 
     18 CA         -5.3740   -6.2060   32.4010 C.3       8 GLP5        0.0000 
     19 CA        -11.4300   -5.6505   35.2640 C.3       4 GLC5        0.0000 
     20 CA        -10.0160   -6.5870   35.8800 C.3      12 GLL5        0.0000 
     21 CA        -12.8440   -4.7140   34.6480 C.3       8 GLP5        0.0000 
     22 CA         -9.3165   -4.8910   36.1420 C.3       4 GLC5        0.0000 
     23 N         -13.1775   -5.3400   37.6385 N.am      2 SEC2        0.0000 
     24 N         -12.2380   -6.4890   37.5910 N.am     10 SEL2        0.0000 
     25 N         -14.1170   -4.1910   37.6860 N.am      6 SEP2        0.0000 
     26 Zn         -9.9495   -6.4200   40.1555 Zn        3 ZIC7        0.0000 
     27 Zn        -10.7850   -6.0560   39.6080 Zn       11 ZIL7        0.0000 
     28 Zn         -9.1140   -6.7840   40.7030 Zn        7 ZIP7        0.0000 
     29 N         -11.4825   -4.9420   39.6340 N.am      2 SEC2        0.0000 
     30 N         -10.7850   -6.0560   39.6080 N.am     10 SEL2        0.0000 
     31 N         -12.1800   -3.8280   39.6600 N.am      6 SEP2        0.0000 
     32 N          -7.2425   -9.3435   36.9020 N.am      2 SEC2        0.0000 
     33 N          -8.5630   -8.9920   37.3000 N.am     10 SEL2        0.0000 
     34 N          -5.9220   -9.6950   36.5040 N.am      6 SEP2        0.0000 
     35 Zn         -8.8400   -7.5230   40.2070 Zn        3 ZIC7        0.0000 
     36 Zn         -8.5660   -8.2620   39.7110 Zn       11 ZIL7        0.0000 
     37 N          -8.0140   -8.6955   41.0195 N.am      2 SEC2        0.0000 
     38 N          -8.5660   -8.2620   39.7110 N.am     10 SEL2        0.0000 
     39 N          -7.4620   -9.1290   42.3280 N.am      6 SEP2        0.0000 
     40 N          -7.2650   -7.8265   39.0495 N.am      2 SEC2        0.0000 
     41 N          -5.9640   -7.3910   38.3880 N.am      6 SEP2        0.0000 
     42 N         -10.0390  -11.5505   38.3115 N.am      2 SEC2        0.0000 
     43 N          -9.4610  -10.5710   39.0510 N.am     10 SEL2        0.0000 
     44 N         -10.6170  -12.5300   37.5720 N.am      6 SEP2        0.0000 
     45 N         -14.4625   -5.7075   29.8050 N.am      2 SEC2        0.0000 
     46 N         -13.2390   -4.9840   29.2870 N.am     10 SEL2        0.0000 
     47 N         -15.6860   -6.4310   30.3230 N.am      6 SEP2        0.0000 
     48 CA        -13.9655   -6.5190   28.7790 C.3       4 GLC5        0.0000 
     49 CA        -12.0420   -5.6220   29.4460 C.3      12 GLL5        0.0000 
     50 CA        -15.8890   -7.4160   28.1120 C.3       8 GLP5        0.0000 
     51 CA        -12.8285   -5.9890   30.9875 C.3       4 GLC5        0.0000 
     52 CA        -13.6150   -6.3560   32.5290 C.3       8 GLP5        0.0000 
     53 CA        -13.0345   -5.5215   27.6820 C.3       4 GLC5        0.0000 
     54 CA        -14.0270   -5.4210   25.9180 C.3       8 GLP5        0.0000 
     55 O         -12.8635   -8.0035   28.8790 O.2       1 ALC1        0.0000 
     56 O         -11.9940   -7.0020   29.3920 O.2       9 ALL1        0.0000 
     57 O         -13.7330   -9.0050   28.3660 O.2       5 ALP1        0.0000 
     58 CA        -10.1540   -1.7410   30.3690 C.3       4 GLC5        0.0000 
     59 CA        -11.0040   -3.4140   29.6520 C.3      12 GLL5        0.0000 
     60 CA        -14.4428   -4.4215   30.8280 C.3       4 GLC5        0.0000 
     61 CA        -13.3220   -3.6360   29.2920 C.3      12 GLL5        0.0000 
     62 CA        -14.8940   -5.5390   32.4620 C.3       8 GLP5        0.0000 
     63 CA        -13.8008   -2.4155   31.0000 C.3       4 GLC5        0.0000 
     64 CA        -13.6100   -1.5270   32.8060 C.3       8 GLP5        0.0000 
     65 CA        -14.0092   -4.3625   27.5560 C.3       4 GLC5        0.0000 
     66 CA         -7.3108   -6.9835   31.1373 C.3       4 GLC5        0.0000 
     67 CA         -9.2940   -6.2620   31.2250 C.3      12 GLL5        0.0000 
     68 CA         -5.2950   -7.0470   31.1020 C.3       8 GLP5        0.0000 
     69 CA         -7.2250   -6.7825   32.7820 C.3       4 GLC5        0.0000 
     70 CA         -7.6048   -5.4188   35.2920 C.3       4 GLC5        0.0000 
     71 CA         -8.9940   -6.5780   33.5830 C.3      12 GLL5        0.0000 
     72 CA         -6.3390   -4.3650   36.2650 C.3       8 GLP5        0.0000 
     73 CA         -7.3015   -4.8327   32.3482 C.3       4 GLC5        0.0000 
     74 CA         -9.1000   -5.6830   32.5100 C.3      12 GLL5        0.0000 
     75 CA        -10.6323   -5.2326   32.9579 C.3       4 GLC5        0.0000 
     76 CA        -10.1775   -3.8935   27.6883 C.3       4 GLC5        0.0000 
     77 CA        -10.8360   -4.8160   29.6670 C.3      12 GLL5        0.0000 
     78 CA         -9.4350   -3.6720   25.7170 C.3       8 GLP5        0.0000 
     79 CA        -11.3981   -4.7897   31.3734 C.3       4 GLC5        0.0000 
     80 CA        -10.7546   -6.1873   32.3031 C.3       4 GLC5        0.0000 
@<TRIPOS>BOND
@<TRIPOS>SUBSTRUCTURE
     1 ALC1       55 GROUP        1 X    ALC  0     ROOT ALC X 1
     2 SEC2       23 GROUP        1 X    SEC  0     **** SEC X 2
     3 ZIC7       26 GROUP        1 X    ZIC  0     **** ZIC X 5
     4 GLC5        1 GROUP        1 X    GLC  0     **** GLC X 6
     5 ALP1       57 GROUP        1 Y    ALP  0     ROOT ALP Y 8
     6 SEP2       25 GROUP        1 Y    SEP  0     **** SEP Y 9
     7 ZIP7       28 GROUP        1 Y    ZIP  0     **** ZIP Y 12
     8 GLP5        3 GROUP        1 Y    GLP  0     **** GLP Y 13
     9 ALL1       56 GROUP        1 Z    ALL  0     ROOT ALL Z 15
    10 SEL2       24 GROUP        1 Z    SEL  0     **** SEL Z 16
    11 ZIL7       27 GROUP        1 Z    ZIL  0     **** ZIL Z 19
    12 GLL5        2 GROUP        1 Z    GLL  0     **** GLL Z 20
@<TRIPOS>SET

