#    Name: 2q5o_TPW_1_ligand
#    Modification time : Mon Mar 24 20:47:41 2014

@<TRIPOS>MOLECULE
2q5o_TPW_1_ligand
   42    43     1     0     0
SMALL
NO_CHARGES


@<TRIPOS>ATOM
      1 C2A       -14.6610   -2.9720   29.0960 C.3       1 TPW2002     0.0000 
      2 C35        -9.4090   -5.4180   29.9040 C.3       1 TPW2002     0.0000 
      3 C2         -9.3590   -7.5780   31.1200 C.2       1 TPW2002     0.0000 
      4 S1         -9.1580   -8.1400   32.7430 S.3       1 TPW2002     0.0000 
      5 C5         -8.9940   -6.5780   33.5830 C.2       1 TPW2002     0.0000 
      6 C4         -9.1000   -5.6830   32.5100 C.2       1 TPW2002     0.0000 
      7 C4A        -9.0160   -4.1720   32.7290 C.3       1 TPW2002     0.0000 
      8 C5A        -8.7470   -6.3670   35.0550 C.3       1 TPW2002     0.0000 
      9 C5B       -10.0160   -6.5870   35.8800 C.3       1 TPW2002     0.0000 
     10 O5G        -9.7250   -6.2720   37.2580 O.3       1 TPW2002     0.0000 
     11 P1        -10.9090   -6.8150   38.1920 P.3       1 TPW2002     0.0000 
     12 O11       -10.8560   -8.4520   38.4600 O.3       1 TPW2002     0.0000 
     13 O12       -12.2380   -6.4890   37.5910 O.co2     1 TPW2002     0.0000 
     14 O13       -10.7850   -6.0560   39.6080 O.co2     1 TPW2002     0.0000 
     15 P2         -9.3370   -9.0470   38.6250 P.3       1 TPW2002     0.0000 
     16 O21        -8.5630   -8.9920   37.3000 O.co2     1 TPW2002     0.0000 
     17 O22        -8.5660   -8.2620   39.7110 O.co2     1 TPW2002     0.0000 
     18 O23        -9.4610  -10.5710   39.0510 O.co2     1 TPW2002     0.0000 
     19 N1'       -12.2340   -2.8710   29.4620 N.ar      1 TPW2002     0.0000 
     20 C2'       -13.3220   -3.6360   29.2920 C.ar      1 TPW2002     0.0000 
     21 N3'       -13.2390   -4.9840   29.2870 N.ar      1 TPW2002     0.0000 
     22 C4'       -12.0420   -5.6220   29.4460 C.ar      1 TPW2002     0.0000 
     23 N4'       -11.9940   -7.0020   29.3920 N.pl3     1 TPW2002     0.0000 
     24 C5'       -10.8360   -4.8160   29.6670 C.ar      1 TPW2002     0.0000 
     25 C6'       -11.0040   -3.4140   29.6520 C.ar      1 TPW2002     0.0000 
     26 C3         -9.2940   -6.2620   31.2250 C.2       1 TPW2002     0.0000 
     27 H          -8.6863   -4.6010   29.9495 H         1 TPW2002     0.0000 
     28 H          -9.1536   -6.0595   29.0583 H         1 TPW2002     0.0000 
     29 H          -9.4661   -8.2231   30.5197 H         1 TPW2002     0.0000 
     30 H          -8.3874   -5.3472   35.2260 H         1 TPW2002     0.0000 
     31 H          -7.9754   -7.0615   35.4026 H         1 TPW2002     0.0000 
     32 H         -10.3198   -7.6258   35.7623 H         1 TPW2002     0.0000 
     33 H         -10.7963   -5.9428   35.4782 H         1 TPW2002     0.0000 
     34 H         -11.0956   -7.4170   29.5359 H         1 TPW2002     0.0000 
     35 H         -12.8618   -7.4658   29.2137 H         1 TPW2002     0.0000 
     36 H         -10.1708   -2.8182   29.7886 H         1 TPW2002     0.0000 
     37 H         -14.9104   -2.4009   29.8781 H         1 TPW2002     0.0000 
     38 H         -14.6685   -2.3824   28.2883 H         1 TPW2002     0.0000 
     39 H         -15.3938   -3.6419   28.9767 H         1 TPW2002     0.0000 
     40 H          -8.1420   -3.9034   33.1340 H         1 TPW2002     0.0000 
     41 H          -9.1092   -3.6666   31.8711 H         1 TPW2002     0.0000 
     42 H          -9.7356   -3.8449   33.3415 H         1 TPW2002     0.0000 
@<TRIPOS>BOND
     1   20    1 1    
     2   37    1 1    
     3   38    1 1    
     4   39    1 1    
     5   24    2 1    
     6   26    2 1    
     7   27    2 1    
     8   28    2 1    
     9    4    3 1    
    10   26    3 2    
    11   29    3 1    
    12    5    4 1    
    13    6    5 2    
    14    8    5 1    
    15    7    6 1    
    16   26    6 1    
    17   40    7 1    
    18   41    7 1    
    19   42    7 1    
    20    9    8 1    
    21   30    8 1    
    22   31    8 1    
    23   10    9 1    
    24   32    9 1    
    25   33    9 1    
    26   11   10 1    
    27   12   11 1    
    28   13   11 ar   
    29   14   11 ar   
    30   15   12 1    
    31   16   15 ar   
    32   17   15 ar   
    33   18   15 ar   
    34   20   19 ar   
    35   25   19 ar   
    36   21   20 ar   
    37   22   21 ar   
    38   23   22 1    
    39   24   22 ar   
    40   34   23 1    
    41   35   23 1    
    42   25   24 ar   
    43   36   25 1    
@<TRIPOS>SUBSTRUCTURE
     1 TPW2002     1 GROUP   
@<TRIPOS>SET

