#    Name: 3e37_ED5_1_INTS_M
#    Modification time : Tue Mar 25 00:52:35 2014

@<TRIPOS>MOLECULE
3e37_ED5_1_INTS_M
   62     0     6     0     0
SMALL
NO_CHARGES


@<TRIPOS>ATOM
      1 CA         16.7135  -81.5070    8.6005 C.3       2 GLC5        0.0000 
      2 CA         15.6230  -80.0750    8.5430 C.3       6 GLL5        0.0000 
      3 CA         17.8040  -82.9390    8.6580 C.3       4 GLP5        0.0000 
      4 CA         15.4925  -80.1770   10.3305 C.3       2 GLC5        0.0000 
      5 CA         15.3620  -80.2790   12.1180 C.3       4 GLP5        0.0000 
      6 CA         13.3905  -76.6575    9.4295 C.3       2 GLC5        0.0000 
      7 CA         14.2790  -78.0370    8.7600 C.3       6 GLL5        0.0000 
      8 CA         12.5020  -75.2780   10.0990 C.3       4 GLP5        0.0000 
      9 CA         14.8205  -79.1580   10.4390 C.3       2 GLC5        0.0000 
     10 CA         13.3205  -81.3390    7.4525 C.3       2 GLC5        0.0000 
     11 CA         13.8700  -79.6580    6.8510 C.3       6 GLL5        0.0000 
     12 CA         12.7710  -83.0200    8.0540 C.3       4 GLP5        0.0000 
     13 CA         13.4810  -79.8290    5.0900 C.3       2 GLC5        0.0000 
     14 CA         13.0920  -80.0000    3.3290 C.3       4 GLP5        0.0000 
     15 CA         18.9750  -77.4605    7.4935 C.3       2 GLC5        0.0000 
     16 CA         18.4950  -75.7700    6.8760 C.3       6 GLL5        0.0000 
     17 CA         19.4550  -79.1510    8.1110 C.3       4 GLP5        0.0000 
     18 CA         18.0440  -78.3935    6.1720 C.3       2 GLC5        0.0000 
     19 CA         17.0520  -76.6730    5.1200 C.3       6 GLL5        0.0000 
     20 CA         19.0360  -80.1140    7.2240 C.3       4 GLP5        0.0000 
     21 Zn         16.2520  -72.3235    0.4920 Zn        1 ZIC7        0.0000 
     22 Zn         16.3410  -72.0010    4.2810 Zn        5 ZIL7        0.0000 
     23 Zn         16.1630  -72.6460   -3.2970 Zn        3 ZIP7        0.0000 
     24 CA         12.3175  -75.0790    7.9730 C.3       2 GLC5        0.0000 
     25 CA         12.1330  -74.8800    5.8470 C.3       6 GLL5        0.0000 
     26 CA         13.8010  -76.1355    2.0205 C.3       2 GLC5        0.0000 
     27 CA         13.8310  -74.2130    2.5450 C.3       6 GLL5        0.0000 
     28 CA         13.7710  -78.0580    1.4960 C.3       4 GLP5        0.0000 
     29 CA         15.6420  -74.8070    1.4420 C.3       2 GLC5        0.0000 
     30 CA         17.4530  -75.4010    0.3390 C.3       4 GLP5        0.0000 
     31 CA         17.3095  -73.8130    1.6955 C.3       2 GLC5        0.0000 
     32 CA         17.1660  -72.2250    3.0520 C.3       6 GLL5        0.0000 
     33 CA         23.5065  -74.9330    2.0685 C.3       2 GLC5        0.0000 
     34 CA         23.6390  -73.4400    0.6460 C.3       6 GLL5        0.0000 
     35 CA         23.3740  -76.4260    3.4910 C.3       4 GLP5        0.0000 
     36 CA         24.3170  -73.5610   -1.3000 C.3       2 GLC5        0.0000 
     37 CA         24.9950  -73.6820   -3.2460 C.3       4 GLP5        0.0000 
     38 CA         16.1545  -72.8900   -1.6040 C.3       2 GLC5        0.0000 
     39 CA         17.4070  -71.4150   -0.7860 C.3       6 GLL5        0.0000 
     40 CA         14.9020  -74.3650   -2.4220 C.3       4 GLP5        0.0000 
     41 Zn         16.4700  -71.9350   -2.6340 Zn        1 ZIC7        0.0000 
     42 Zn         16.7770  -71.2240   -1.9710 Zn        5 ZIL7        0.0000 
     43 CA         17.1465  -79.8243    7.6885 C.3       2 GLC5        0.0000 
     44 CA         14.8910  -78.9940    7.7630 C.3       6 GLL5        0.0000 
     45 CA         13.7015  -80.8663    8.5770 C.3       2 GLC5        0.0000 
     46 CA         12.1460  -82.1980    9.0010 C.3       4 GLP5        0.0000 
     47 CA         12.4198  -78.8454    7.7991 C.3       2 GLC5        0.0000 
     48 CA         10.6120  -78.6040    8.0420 C.3       4 GLP5        0.0000 
     49 CA         15.7462  -77.2610    3.6803 C.3       2 GLC5        0.0000 
     50 CA         14.7630  -78.5370    2.3470 C.3       4 GLP5        0.0000 
     51 CA         17.4157  -76.0745    3.1502 C.3       2 GLC5        0.0000 
     52 CA         18.1020  -76.1640    1.2870 C.3       4 GLP5        0.0000 
     53 CA         13.3167  -73.8040    8.1852 C.3       2 GLC5        0.0000 
     54 CA         13.3070  -72.7860    6.0050 C.3       6 GLL5        0.0000 
     55 CA         13.7310  -74.3350   10.0780 C.3       4 GLP5        0.0000 
     56 CA         11.2241  -75.0918    4.0292 C.3       2 GLC5        0.0000 
     57 CA          9.5800  -75.6960    3.4810 C.3       4 GLP5        0.0000 
     58 CA         21.4150  -74.5340    1.0282 C.3       2 GLC5        0.0000 
     59 CA         21.7930  -73.1800    2.0090 C.3       6 GLL5        0.0000 
     60 CA         21.6510  -76.1870   -0.0800 C.3       4 GLP5        0.0000 
     61 CA         22.2985  -74.5506    0.2249 C.3       2 GLC5        0.0000 
     62 CA         22.5110  -72.8530    0.8660 C.3       6 GLL5        0.0000 
@<TRIPOS>BOND
@<TRIPOS>SUBSTRUCTURE
     1 ZIC7       21 GROUP        1 X    ZIC  0     ROOT ZIC X 5
     2 GLC5        1 GROUP        1 X    GLC  0     **** GLC X 6
     3 ZIP7       23 GROUP        1 Y    ZIP  0     ROOT ZIP Y 12
     4 GLP5        3 GROUP        1 Y    GLP  0     **** GLP Y 13
     5 ZIL7       22 GROUP        1 Z    ZIL  0     ROOT ZIL Z 19
     6 GLL5        2 GROUP        1 Z    GLL  0     **** GLL Z 20
@<TRIPOS>SET

