#    Name: 3e37_ED5_1_ligand
#    Modification time : Tue Mar 25 00:52:35 2014

@<TRIPOS>MOLECULE
3e37_ED5_1_ligand
   85    88     1     0     0
SMALL
NO_CHARGES


@<TRIPOS>ATOM
      1 OAG        17.0440  -77.3730    8.6050 O.2       1 ED51        0.0000 
      2 CBE        16.7930  -77.3680    7.4020 C.2       1 ED51        0.0000 
      3 OBD        15.7560  -78.2360    6.9230 O.3       1 ED51        0.0000 
      4 CBP        14.8910  -78.9940    7.7630 C.3       1 ED51        0.0000 
      5 CAC        15.6230  -80.0750    8.5430 C.3       1 ED51        0.0000 
      6 CAD        14.2790  -78.0370    8.7600 C.3       1 ED51        0.0000 
      7 CAE        13.8700  -79.6580    6.8510 C.3       1 ED51        0.0000 
      8 NBL        17.4020  -76.6650    6.5400 N.am      1 ED51        0.0000 
      9 CAX        18.4950  -75.7700    6.8760 C.3       1 ED51        0.0000 
     10 CAV        17.9820  -74.3610    6.6500 C.3       1 ED51        0.0000 
     11 CAW        17.0520  -76.6730    5.1200 C.3       1 ED51        0.0000 
     12 CAU        16.4070  -75.2970    4.9070 C.3       1 ED51        0.0000 
     13 CBK        17.3590  -74.1500    5.2770 C.3       1 ED51        0.0000 
     14 CBB        16.6010  -72.8410    5.4660 C.3       1 ED51        0.0000 
     15 NBN        16.3410  -72.0010    4.2810 N.pl3     1 ED51        0.0000 
     16 SBQ        14.7260  -71.7450    4.0960 S.o2      1 ED51        0.0000 
     17 OAI        14.3880  -71.4650    2.6720 O.2       1 ED51        0.0000 
     18 OAH        14.4850  -70.5320    4.9220 O.2       1 ED51        0.0000 
     19 CBJ        13.7710  -72.9140    4.6940 C.ar      1 ED51        0.0000 
     20 CAN        13.3070  -72.7860    6.0050 C.ar      1 ED51        0.0000 
     21 CAL        12.4980  -73.7600    6.5800 C.ar      1 ED51        0.0000 
     22 CAK        12.1330  -74.8800    5.8470 C.ar      1 ED51        0.0000 
     23 CAM        12.5820  -75.0100    4.5390 C.ar      1 ED51        0.0000 
     24 CBF        13.3790  -74.0300    3.9620 C.ar      1 ED51        0.0000 
     25 CAA        13.8310  -74.2130    2.5450 C.3       1 ED51        0.0000 
     26 CAZ        17.1660  -72.2250    3.0520 C.3       1 ED51        0.0000 
     27 CAY        18.2370  -71.1160    2.9750 C.3       1 ED51        0.0000 
     28 NBM        18.7890  -71.0490    1.6040 N.pl3     1 ED51        0.0000 
     29 CBH        20.0570  -71.6280    1.3800 C.ar      1 ED51        0.0000 
     30 CAQ        20.7670  -71.3190    0.2180 C.ar      1 ED51        0.0000 
     31 CAO        21.9950  -71.9240   -0.0390 C.ar      1 ED51        0.0000 
     32 CAR        20.5650  -72.5820    2.2640 C.ar      1 ED51        0.0000 
     33 CAP        21.7930  -73.1800    2.0090 C.ar      1 ED51        0.0000 
     34 CBG        22.5110  -72.8530    0.8660 C.ar      1 ED51        0.0000 
     35 CAJ        23.6390  -73.4400    0.6460 C.1       1 ED51        0.0000 
     36 NAF        24.6380  -74.0110    0.4590 N.1       1 ED51        0.0000 
     37 CBA        18.5240  -69.8630    0.8450 C.3       1 ED51        0.0000 
     38 CBI        17.7780  -70.1310   -0.4260 C.2       1 ED51        0.0000 
     39 CAS        17.4070  -71.4150   -0.7860 C.2       1 ED51        0.0000 
     40 NBC        16.7770  -71.2240   -1.9710 N.2       1 ED51        0.0000 
     41 CAT        16.7670  -69.8960   -2.2880 C.2       1 ED51        0.0000 
     42 NBO        17.3980  -69.2110   -1.3190 N.pl3     1 ED51        0.0000 
     43 CAB        17.6120  -67.7410   -1.2710 C.3       1 ED51        0.0000 
     44 H          19.3499  -75.9350    6.2353 H         1 ED51        0.0000 
     45 H          18.7828  -75.8723    7.9129 H         1 ED51        0.0000 
     46 H          18.8141  -73.6485    6.7779 H         1 ED51        0.0000 
     47 H          17.2327  -74.1208    7.4229 H         1 ED51        0.0000 
     48 H          16.3310  -77.4255    4.8977 H         1 ED51        0.0000 
     49 H          17.9178  -76.7428    4.5027 H         1 ED51        0.0000 
     50 H          15.5065  -75.2253    5.5213 H         1 ED51        0.0000 
     51 H          16.1178  -75.1961    3.8584 H         1 ED51        0.0000 
     52 H          18.1117  -74.0197    4.5639 H         1 ED51        0.0000 
     53 H          17.1557  -72.2355    6.2408 H         1 ED51        0.0000 
     54 H          15.6232  -73.0846    5.9752 H         1 ED51        0.0000 
     55 H          13.5714  -71.9504    6.5563 H         1 ED51        0.0000 
     56 H          12.1709  -73.6488    7.5490 H         1 ED51        0.0000 
     57 H          11.5400  -75.6023    6.2644 H         1 ED51        0.0000 
     58 H          12.3200  -75.8454    3.9892 H         1 ED51        0.0000 
     59 H          16.5487  -72.1702    2.1669 H         1 ED51        0.0000 
     60 H          17.6641  -73.1826    3.1002 H         1 ED51        0.0000 
     61 H          19.0189  -71.3478    3.6952 H         1 ED51        0.0000 
     62 H          17.7699  -70.1725    3.2498 H         1 ED51        0.0000 
     63 H          20.3793  -70.6399   -0.4517 H         1 ED51        0.0000 
     64 H          22.5183  -71.6890   -0.8883 H         1 ED51        0.0000 
     65 H          20.0289  -72.8395    3.1015 H         1 ED51        0.0000 
     66 H          22.1738  -73.8716    2.6734 H         1 ED51        0.0000 
     67 H          19.4719  -69.3399    0.5871 H         1 ED51        0.0000 
     68 H          17.9354  -69.1339    1.4455 H         1 ED51        0.0000 
     69 H          17.5596  -72.1965   -0.3211 H         1 ED51        0.0000 
     70 H          16.3670  -69.5208   -3.0846 H         1 ED51        0.0000 
     71 H          16.0732  -80.7303    7.9364 H         1 ED51        0.0000 
     72 H          16.3305  -79.6905    9.1360 H         1 ED51        0.0000 
     73 H          15.0016  -80.5961    9.1281 H         1 ED51        0.0000 
     74 H          14.9754  -77.5895    9.3210 H         1 ED51        0.0000 
     75 H          13.7572  -77.3134    8.3082 H         1 ED51        0.0000 
     76 H          13.6532  -78.5026    9.3858 H         1 ED51        0.0000 
     77 H          14.3058  -80.2593    6.1813 H         1 ED51        0.0000 
     78 H          13.2192  -80.2158    7.3661 H         1 ED51        0.0000 
     79 H          13.3373  -78.9851    6.3378 H         1 ED51        0.0000 
     80 H          14.8276  -74.2586    2.4760 H         1 ED51        0.0000 
     81 H          13.4707  -75.0563    2.1462 H         1 ED51        0.0000 
     82 H          13.5308  -73.4602    1.9592 H         1 ED51        0.0000 
     83 H          18.5841  -67.5079   -1.2441 H         1 ED51        0.0000 
     84 H          17.2227  -67.2827   -2.0700 H         1 ED51        0.0000 
     85 H          17.1896  -67.3304   -0.4629 H         1 ED51        0.0000 
@<TRIPOS>BOND
     1    2    1 2    
     2    3    2 1    
     3    8    2 am   
     4    4    3 1    
     5    5    4 1    
     6    6    4 1    
     7    7    4 1    
     8   71    5 1    
     9   72    5 1    
    10   73    5 1    
    11   74    6 1    
    12   75    6 1    
    13   76    6 1    
    14   77    7 1    
    15   78    7 1    
    16   79    7 1    
    17    9    8 1    
    18   11    8 1    
    19   10    9 1    
    20   44    9 1    
    21   45    9 1    
    22   13   10 1    
    23   46   10 1    
    24   47   10 1    
    25   12   11 1    
    26   48   11 1    
    27   49   11 1    
    28   13   12 1    
    29   50   12 1    
    30   51   12 1    
    31   14   13 1    
    32   52   13 1    
    33   15   14 1    
    34   53   14 1    
    35   54   14 1    
    36   16   15 1    
    37   26   15 1    
    38   17   16 2    
    39   18   16 2    
    40   19   16 1    
    41   20   19 ar   
    42   24   19 ar   
    43   21   20 ar   
    44   55   20 1    
    45   22   21 ar   
    46   56   21 1    
    47   23   22 ar   
    48   57   22 1    
    49   24   23 ar   
    50   58   23 1    
    51   25   24 1    
    52   80   25 1    
    53   81   25 1    
    54   82   25 1    
    55   27   26 1    
    56   59   26 1    
    57   60   26 1    
    58   28   27 1    
    59   61   27 1    
    60   62   27 1    
    61   29   28 1    
    62   37   28 1    
    63   30   29 ar   
    64   32   29 ar   
    65   31   30 ar   
    66   63   30 1    
    67   34   31 ar   
    68   64   31 1    
    69   33   32 ar   
    70   65   32 1    
    71   34   33 ar   
    72   66   33 1    
    73   35   34 1    
    74   36   35 3    
    75   38   37 1    
    76   67   37 1    
    77   68   37 1    
    78   39   38 2    
    79   42   38 1    
    80   40   39 1    
    81   69   39 1    
    82   41   40 2    
    83   42   41 1    
    84   70   41 1    
    85   43   42 1    
    86   83   43 1    
    87   84   43 1    
    88   85   43 1    
@<TRIPOS>SUBSTRUCTURE
     1 ED51        1 GROUP   
@<TRIPOS>SET

