#    Name: 3zqt_TES_1_INTS_M
#    Modification time : Tue Mar 25 03:50:17 2014

@<TRIPOS>MOLECULE
3zqt_TES_1_INTS_M
   73     0     9     0     0
SMALL
NO_CHARGES


@<TRIPOS>ATOM
      1 CA         29.0940    5.5550    5.8890 C.3       3 GLC5        0.0000 
      2 CA         27.0900    5.1670    5.0090 C.3       9 GLL5        0.0000 
      3 CA         31.0980    5.9430    6.7690 C.3       6 GLP5        0.0000 
      4 CA         27.2960    8.1120    6.0105 C.3       3 GLC5        0.0000 
      5 CA         26.3510    6.4490    5.3510 C.3       9 GLL5        0.0000 
      6 CA         28.2410    9.7750    6.6700 C.3       6 GLP5        0.0000 
      7 CA         26.7350    6.4420    7.3685 C.3       3 GLC5        0.0000 
      8 CA         27.1190    6.4350    9.3860 C.3       6 GLP5        0.0000 
      9 N          23.7610    8.5120    4.2285 N.am      2 SEC2        0.0000 
     10 N          24.2350    7.2160    4.6160 N.am      8 SEL2        0.0000 
     11 N          23.2870    9.8080    3.8410 N.am      5 SEP2        0.0000 
     12 CA         24.3835    5.6820    7.1135 C.3       3 GLC5        0.0000 
     13 CA         24.2800    4.9160    5.0640 C.3       9 GLL5        0.0000 
     14 CA         24.4870    6.4480    9.1630 C.3       6 GLP5        0.0000 
     15 CA         22.5635    6.1670    4.7590 C.3       3 GLC5        0.0000 
     16 CA         20.8470    7.4180    4.4540 C.3       6 GLP5        0.0000 
     17 CA         24.1700    5.0150    3.1945 C.3       3 GLC5        0.0000 
     18 CA         24.0600    5.1140    1.3250 C.3       6 GLP5        0.0000 
     19 CA         24.7660    1.3985    7.0640 C.3       3 GLC5        0.0000 
     20 CA         24.2830    2.4540    5.2000 C.3       9 GLL5        0.0000 
     21 CA         25.2490    0.3430    8.9280 C.3       6 GLP5        0.0000 
     22 CA         22.8395    2.3665    6.3740 C.3       3 GLC5        0.0000 
     23 CA         21.3960    2.2790    7.5480 C.3       6 GLP5        0.0000 
     24 CA         22.3705    1.8180    4.3785 C.3       3 GLC5        0.0000 
     25 CA         20.4580    1.1820    3.5570 C.3       6 GLP5        0.0000 
     26 CA         25.8890    0.8415    6.9885 C.3       3 GLC5        0.0000 
     27 CA         26.5290    1.3400    5.0490 C.3       9 GLL5        0.0000 
     28 CA         29.8840    4.2780    6.1960 C.3       3 GLC5        0.0000 
     29 CA         28.6700    2.6130    5.6230 C.3       9 GLL5        0.0000 
     30 CA         29.4315    2.0390    2.8465 C.3       3 GLC5        0.0000 
     31 CA         29.4670    1.5900    4.7680 C.3       9 GLL5        0.0000 
     32 CA         29.3960    2.4880    0.9250 C.3       6 GLP5        0.0000 
     33 CA         31.3050    2.2195    4.0970 C.3       3 GLC5        0.0000 
     34 CA         33.1430    2.8490    3.4260 C.3       6 GLP5        0.0000 
     35 CA         27.4050    0.8445    2.1195 C.3       3 GLC5        0.0000 
     36 CA         27.3990    0.3440    4.2810 C.3       9 GLL5        0.0000 
     37 CA         27.4110    1.3450   -0.0420 C.3       6 GLP5        0.0000 
     38 CA         24.8785   -1.7810    4.6115 C.3       3 GLC5        0.0000 
     39 CA         26.8970   -1.1060    4.1740 C.3       9 GLL5        0.0000 
     40 CA         22.8600   -2.4560    5.0490 C.3       6 GLP5        0.0000 
     41 CA         27.8120   -3.9365    3.3450 C.3       3 GLC5        0.0000 
     42 CA         28.1750   -1.9180    3.8970 C.3       9 GLL5        0.0000 
     43 CA         27.4490   -5.9550    2.7930 C.3       6 GLP5        0.0000 
     44 N          30.6445   -2.3615    5.6615 N.am      2 SEC2        0.0000 
     45 N          30.4890   -1.6490    4.5300 N.am      8 SEL2        0.0000 
     46 N          30.8000   -3.0740    6.7930 N.am      5 SEP2        0.0000 
     47 O          31.5485   -0.7505    4.2490 O.2       1 ALC1        0.0000 
     48 O          30.4890   -1.6490    4.5300 O.2       7 ALL1        0.0000 
     49 O          32.6080    0.1480    3.9680 O.2       4 ALP1        0.0000 
     50 CA         27.6790   -0.5710    7.8170 C.3       3 GLC5        0.0000 
     51 CA         28.8130   -0.2710    6.2920 C.3       9 GLL5        0.0000 
     52 CA         26.5450   -0.8710    9.3420 C.3       6 GLP5        0.0000 
     53 CA         29.2020   -2.0520    6.6280 C.3       3 GLC5        0.0000 
     54 CA         29.5910   -3.8330    6.9640 C.3       6 GLP5        0.0000 
     55 CA         30.3650    1.0810    6.9370 C.3       3 GLC5        0.0000 
     56 CA         31.9170    2.4330    7.5820 C.3       6 GLP5        0.0000 
     57 CA         27.6410    2.9110    8.7720 C.3       3 GLC5        0.0000 
     58 CA         26.5540    3.9330    7.1550 C.3       9 GLL5        0.0000 
     59 CA         28.7280    1.8890   10.3890 C.3       6 GLP5        0.0000 
     60 CA         25.9015    2.1380    8.0415 C.3       3 GLC5        0.0000 
     61 CA         26.8365    5.1840    8.2705 C.3       3 GLC5        0.0000 
     62 CA         27.2462    6.9120    3.6480 C.3       3 GLC5        0.0000 
     63 CA         27.7720    8.0160    2.1160 C.3       6 GLP5        0.0000 
     64 CA         24.2058    3.0796    3.1688 C.3       3 GLC5        0.0000 
     65 CA         25.0010    3.7990    5.2880 C.3       9 GLL5        0.0000 
     66 CA         23.5180    3.8650    1.5030 C.3       6 GLP5        0.0000 
     67 CA         30.4928    2.2672    6.3887 C.3       3 GLC5        0.0000 
     68 CA         26.4205   -2.2455    2.4527 C.3       3 GLC5        0.0000 
     69 CA         25.3050   -2.9790    0.8700 C.3       6 GLP5        0.0000 
     70 CA         29.2795   -1.7553    2.1852 C.3       3 GLC5        0.0000 
     71 CA         29.7940   -2.0800    0.4290 C.3       6 GLP5        0.0000 
     72 CA         29.1780   -2.6318    5.4527 C.3       3 GLC5        0.0000 
     73 CA         29.3550   -0.9430    3.9860 C.3       9 GLL5        0.0000 
@<TRIPOS>BOND
@<TRIPOS>SUBSTRUCTURE
     1 ALC1       47 GROUP        1 X    ALC  0     ROOT ALC X 1
     2 SEC2        9 GROUP        1 X    SEC  0     **** SEC X 2
     3 GLC5        1 GROUP        1 X    GLC  0     **** GLC X 6
     4 ALP1       49 GROUP        1 Y    ALP  0     ROOT ALP Y 8
     5 SEP2       11 GROUP        1 Y    SEP  0     **** SEP Y 9
     6 GLP5        3 GROUP        1 Y    GLP  0     **** GLP Y 13
     7 ALL1       48 GROUP        1 Z    ALL  0     ROOT ALL Z 15
     8 SEL2       10 GROUP        1 Z    SEL  0     **** SEL Z 16
     9 GLL5        2 GROUP        1 Z    GLL  0     **** GLL Z 20
@<TRIPOS>SET

