#    Name: 3zqt_TES_1_ligand
#    Modification time : Tue Mar 25 03:50:17 2014

@<TRIPOS>MOLECULE
3zqt_TES_1_ligand
   49    52     1     0     0
SMALL
NO_CHARGES


@<TRIPOS>ATOM
      1 C1         27.0900    5.1670    5.0090 C.3       1 TES1000     0.0000 
      2 C2         26.3510    6.4490    5.3510 C.3       1 TES1000     0.0000 
      3 C3         24.8970    6.2620    4.9940 C.2       1 TES1000     0.0000 
      4 O3         24.2350    7.2160    4.6160 O.2       1 TES1000     0.0000 
      5 C4         24.2800    4.9160    5.0640 C.2       1 TES1000     0.0000 
      6 C5         25.0010    3.7990    5.2880 C.2       1 TES1000     0.0000 
      7 C6         24.2830    2.4540    5.2000 C.3       1 TES1000     0.0000 
      8 C7         25.1450    1.4620    4.4250 C.3       1 TES1000     0.0000 
      9 C8         26.5290    1.3400    5.0490 C.3       1 TES1000     0.0000 
     10 C9         27.2600    2.7050    5.0460 C.3       1 TES1000     0.0000 
     11 C10        26.4670    3.8920    5.6250 C.3       1 TES1000     0.0000 
     12 C11        28.6700    2.6130    5.6230 C.3       1 TES1000     0.0000 
     13 C12        29.4670    1.5900    4.7680 C.3       1 TES1000     0.0000 
     14 C13        28.8130    0.2090    4.8400 C.3       1 TES1000     0.0000 
     15 C14        27.3990    0.3440    4.2810 C.3       1 TES1000     0.0000 
     16 C15        26.8970   -1.1060    4.1740 C.3       1 TES1000     0.0000 
     17 C16        28.1750   -1.9180    3.8970 C.3       1 TES1000     0.0000 
     18 C17        29.3550   -0.9430    3.9860 C.3       1 TES1000     0.0000 
     19 O17        30.4890   -1.6490    4.5300 O.3       1 TES1000     0.0000 
     20 C18        28.8130   -0.2710    6.2920 C.3       1 TES1000     0.0000 
     21 C19        26.5540    3.9330    7.1550 C.3       1 TES1000     0.0000 
     22 H          28.1344    5.2431    5.3536 H         1 TES1000     0.0000 
     23 H          27.1208    5.0428    3.9140 H         1 TES1000     0.0000 
     24 H          26.7665    7.2668    4.7798 H         1 TES1000     0.0000 
     25 H          26.4462    6.6475    6.4089 H         1 TES1000     0.0000 
     26 H          23.2494    4.8915    4.9281 H         1 TES1000     0.0000 
     27 H          23.3361    2.5849    4.6887 H         1 TES1000     0.0000 
     28 H          24.1074    2.0743    6.2001 H         1 TES1000     0.0000 
     29 H          25.2428    1.8007    3.3936 H         1 TES1000     0.0000 
     30 H          24.6602    0.4858    4.4287 H         1 TES1000     0.0000 
     31 H          26.4431    1.0104    6.0669 H         1 TES1000     0.0000 
     32 H          27.4141    2.9579    3.9372 H         1 TES1000     0.0000 
     33 H          28.6293    2.2617    6.6366 H         1 TES1000     0.0000 
     34 H          29.1544    3.5691    5.5618 H         1 TES1000     0.0000 
     35 H          30.4808    1.5338    5.1482 H         1 TES1000     0.0000 
     36 H          29.4824    1.9331    3.7397 H         1 TES1000     0.0000 
     37 H          27.5266    0.7045    3.2367 H         1 TES1000     0.0000 
     38 H          26.2340   -1.1947    3.3544 H         1 TES1000     0.0000 
     39 H          26.4766   -1.4073    5.0968 H         1 TES1000     0.0000 
     40 H          28.1254   -2.3342    2.9112 H         1 TES1000     0.0000 
     41 H          28.2808   -2.6802    4.6422 H         1 TES1000     0.0000 
     42 H          29.5265   -0.5785    2.9927 H         1 TES1000     0.0000 
     43 H          29.7404   -0.3442    6.6590 H         1 TES1000     0.0000 
     44 H          28.3098    0.3533    6.8895 H         1 TES1000     0.0000 
     45 H          28.3889   -1.1718    6.3854 H         1 TES1000     0.0000 
     46 H          27.5009    3.9872    7.4718 H         1 TES1000     0.0000 
     47 H          26.0727    4.7237    7.5333 H         1 TES1000     0.0000 
     48 H          26.1516    3.1179    7.5718 H         1 TES1000     0.0000 
     49 H          31.2737   -1.0558    4.3500 H         1 TES1000     0.0000 
@<TRIPOS>BOND
     1    2    1 1    
     2   11    1 1    
     3   22    1 1    
     4   23    1 1    
     5    3    2 1    
     6   24    2 1    
     7   25    2 1    
     8    4    3 2    
     9    5    3 1    
    10    6    5 2    
    11   26    5 1    
    12    7    6 1    
    13   11    6 1    
    14    8    7 1    
    15   27    7 1    
    16   28    7 1    
    17    9    8 1    
    18   29    8 1    
    19   30    8 1    
    20   10    9 1    
    21   15    9 1    
    22   31    9 1    
    23   11   10 1    
    24   12   10 1    
    25   32   10 1    
    26   21   11 1    
    27   13   12 1    
    28   33   12 1    
    29   34   12 1    
    30   14   13 1    
    31   35   13 1    
    32   36   13 1    
    33   15   14 1    
    34   18   14 1    
    35   20   14 1    
    36   16   15 1    
    37   37   15 1    
    38   17   16 1    
    39   38   16 1    
    40   39   16 1    
    41   18   17 1    
    42   40   17 1    
    43   41   17 1    
    44   19   18 1    
    45   42   18 1    
    46   49   19 1    
    47   43   20 1    
    48   44   20 1    
    49   45   20 1    
    50   46   21 1    
    51   47   21 1    
    52   48   21 1    
@<TRIPOS>SUBSTRUCTURE
     1 TES1000     1 GROUP   
@<TRIPOS>SET

