#    Name: 3av6_SAM_1_INTS_M
#    Modification time : Mon Mar 24 18:15:23 2014

@<TRIPOS>MOLECULE
3av6_SAM_1_INTS_M
   64     0     9     0     0
SMALL
NO_CHARGES


@<TRIPOS>ATOM
      1 CA         80.4495   12.1435   34.0505 C.3       3 GLC5        0.0000 
      2 CA         81.2360   14.0650   34.6220 C.3       9 GLL5        0.0000 
      3 CA         79.6630   10.2220   33.4790 C.3       6 GLP5        0.0000 
      4 N          84.9555   14.3265   34.1435 N.am      2 SEC2        0.0000 
      5 N          83.4390   14.5570   33.7560 N.am      8 SEL2        0.0000 
      6 N          86.4720   14.0960   34.5310 N.am      5 SEP2        0.0000 
      7 N          83.6720   15.6665   32.8605 N.am      2 SEC2        0.0000 
      8 N          83.9050   16.7760   31.9650 N.am      5 SEP2        0.0000 
      9 N          83.9145   12.5435   32.6405 N.am      2 SEC2        0.0000 
     10 N          82.2700   13.0390   32.7530 N.am      8 SEL2        0.0000 
     11 N          85.5590   12.0480   32.5280 N.am      5 SEP2        0.0000 
     12 CA         81.2510   15.2520   32.2205 C.3       3 GLC5        0.0000 
     13 CA         80.1470   14.9160   33.9750 C.3       9 GLL5        0.0000 
     14 CA         82.3550   15.5880   30.4660 C.3       6 GLP5        0.0000 
     15 CA         79.1625   16.1860   36.8505 C.3       3 GLC5        0.0000 
     16 CA         78.9600   15.1360   34.9240 C.3       9 GLL5        0.0000 
     17 CA         79.3650   17.2360   38.7770 C.3       6 GLP5        0.0000 
     18 CA         74.7020   15.2375   36.2485 C.3       3 GLC5        0.0000 
     19 CA         75.9880   14.5520   34.8570 C.3       9 GLL5        0.0000 
     20 CA         73.4160   15.9230   37.6400 C.3       6 GLP5        0.0000 
     21 O          76.4625   10.5770   34.1705 O.2       1 ALC1        0.0000 
     22 O          75.9700   11.5450   33.4300 O.2       7 ALL1        0.0000 
     23 O          76.9550    9.6090   34.9110 O.2       4 ALP1        0.0000 
     24 O          74.1270    9.6355   33.9915 O.2       1 ALC1        0.0000 
     25 O          73.1380   10.5780   33.8450 O.2       7 ALL1        0.0000 
     26 O          75.1160    8.6930   34.1380 O.2       4 ALP1        0.0000 
     27 CA         75.6000   12.2910   37.3220 C.3       3 GLC5        0.0000 
     28 CA         74.1730   11.5330   35.8290 C.3       9 GLL5        0.0000 
     29 CA         77.0270   13.0490   38.8150 C.3       6 GLP5        0.0000 
     30 CA         71.3730   13.0930   39.3465 C.3       3 GLC5        0.0000 
     31 CA         71.7800   11.1270   38.5780 C.3       9 GLL5        0.0000 
     32 CA         70.9660   15.0590   40.1150 C.3       6 GLP5        0.0000 
     33 CA         71.0815    8.6170   40.4810 C.3       3 GLC5        0.0000 
     34 CA         71.4900   10.5100   39.8480 C.3       9 GLL5        0.0000 
     35 CA         70.6730    6.7240   41.1140 C.3       6 GLP5        0.0000 
     36 CA         72.1150   10.7545   41.7405 C.3       3 GLC5        0.0000 
     37 CA         72.7400   10.9990   43.6330 C.3       6 GLP5        0.0000 
     38 CA         71.0535   12.0900   40.9850 C.3       3 GLC5        0.0000 
     39 CA         70.6170   13.6700   42.1220 C.3       6 GLP5        0.0000 
     40 O          69.7500    9.7240   41.5740 O.2       1 ALC1        0.0000 
     41 O          70.3120   10.7390   40.5400 O.2       7 ALL1        0.0000 
     42 O          69.1880    8.7090   42.6080 O.2       4 ALP1        0.0000 
     43 N          72.3185    8.7995   41.4905 N.am      2 SEC2        0.0000 
     44 N          72.4040    9.6620   40.3610 N.am      8 SEL2        0.0000 
     45 N          72.2330    7.9370   42.6200 N.am      5 SEP2        0.0000 
     46 CA         74.6375    7.9470   40.7285 C.3       3 GLC5        0.0000 
     47 CA         73.5600    9.3930   39.7060 C.3       9 GLL5        0.0000 
     48 CA         75.7150    6.5010   41.7510 C.3       6 GLP5        0.0000 
     49 CA         72.5655    8.5065   38.3590 C.3       3 GLC5        0.0000 
     50 CA         71.5710    7.6200   37.0120 C.3       6 GLP5        0.0000 
     51 CA         72.1165    8.0585   40.4100 C.3       3 GLC5        0.0000 
     52 CA         73.6715    9.4565   41.7110 C.3       3 GLC5        0.0000 
     53 CA         73.7830    9.5200   43.7160 C.3       6 GLP5        0.0000 
     54 N          73.8900    8.4850   37.6670 N.am      2 SEC2        0.0000 
     55 N          73.8710    9.9660   38.5300 N.am      8 SEL2        0.0000 
     56 N          73.9090    7.0040   36.8040 N.am      5 SEP2        0.0000 
     57 CA         72.2990    9.2255   37.4850 C.3       3 GLC5        0.0000 
     58 CA         73.0270   10.8310   37.9580 C.3       9 GLL5        0.0000 
     59 CA         77.6488   15.4398   31.7900 C.3       3 GLC5        0.0000 
     60 CA         77.5000   14.9030   33.8880 C.3       9 GLL5        0.0000 
     61 CA         77.9420   15.1250   29.9510 C.3       6 GLP5        0.0000 
     62 CA         76.4407   13.4207   36.8620 C.3       3 GLC5        0.0000 
     63 CA         70.4080    9.6713   38.5010 C.3       3 GLC5        0.0000 
     64 CA         69.1810    8.5240   37.7890 C.3       6 GLP5        0.0000 
@<TRIPOS>BOND
@<TRIPOS>SUBSTRUCTURE
     1 ALC1       21 GROUP        1 X    ALC  0     ROOT ALC X 1
     2 SEC2        4 GROUP        1 X    SEC  0     **** SEC X 2
     3 GLC5        1 GROUP        1 X    GLC  0     **** GLC X 6
     4 ALP1       23 GROUP        1 Y    ALP  0     ROOT ALP Y 8
     5 SEP2        6 GROUP        1 Y    SEP  0     **** SEP Y 9
     6 GLP5        3 GROUP        1 Y    GLP  0     **** GLP Y 13
     7 ALL1       22 GROUP        1 Z    ALL  0     ROOT ALL Z 15
     8 SEL2        5 GROUP        1 Z    SEL  0     **** SEL Z 16
     9 GLL5        2 GROUP        1 Z    GLL  0     **** GLL Z 20
@<TRIPOS>SET

