#    Name: 3av6_SAM_1_ligand
#    Modification time : Mon Mar 24 18:15:23 2014

@<TRIPOS>MOLECULE
3av6_SAM_1_ligand
   50    52     1     0     0
SMALL
NO_CHARGES


@<TRIPOS>ATOM
      1 N          81.6720   14.7080   35.8950 N.4       1 SAM1        0.0000 
      2 CA         81.2360   14.0650   34.6220 C.3       1 SAM1        0.0000 
      3 C          82.3920   13.8790   33.6540 C.2       1 SAM1        0.0000 
      4 O          83.4390   14.5570   33.7560 O.co2     1 SAM1        0.0000 
      5 OXT        82.2700   13.0390   32.7530 O.co2     1 SAM1        0.0000 
      6 CB         80.1470   14.9160   33.9750 C.3       1 SAM1        0.0000 
      7 CG         78.9600   15.1360   34.9240 C.3       1 SAM1        0.0000 
      8 SD         77.5000   14.9030   33.8880 S.3       1 SAM1        0.0000 
      9 CE         77.2110   16.6060   33.3700 C.3       1 SAM1        0.0000 
     10 C5'        75.9880   14.5520   34.8570 C.3       1 SAM1        0.0000 
     11 C4'        75.7210   13.0330   34.9610 C.3       1 SAM1        0.0000 
     12 O4'        74.9580   12.6770   36.1000 O.3       1 SAM1        0.0000 
     13 C3'        74.9920   12.4440   33.8030 C.3       1 SAM1        0.0000 
     14 O3'        75.9700   11.5450   33.4300 O.3       1 SAM1        0.0000 
     15 C2'        73.7120   11.7820   34.4170 C.3       1 SAM1        0.0000 
     16 O2'        73.1380   10.5780   33.8450 O.3       1 SAM1        0.0000 
     17 C1'        74.1730   11.5330   35.8290 C.3       1 SAM1        0.0000 
     18 N9         73.0610   11.5610   36.7910 N.pl3     1 SAM1        0.0000 
     19 C8         71.8970   12.2830   36.7140 C.2       1 SAM1        0.0000 
     20 N7         71.1360   12.0120   37.7420 N.2       1 SAM1        0.0000 
     21 C5         71.7800   11.1270   38.5780 C.ar      1 SAM1        0.0000 
     22 C6         71.4900   10.5100   39.8480 C.ar      1 SAM1        0.0000 
     23 N6         70.3120   10.7390   40.5400 N.pl3     1 SAM1        0.0000 
     24 N1         72.4040    9.6620   40.3610 N.ar      1 SAM1        0.0000 
     25 C2         73.5600    9.3930   39.7060 C.ar      1 SAM1        0.0000 
     26 N3         73.8710    9.9660   38.5300 N.ar      1 SAM1        0.0000 
     27 C4         73.0270   10.8310   37.9580 C.ar      1 SAM1        0.0000 
     28 H          80.8070   13.0913   34.8405 H         1 SAM1        0.0000 
     29 H          79.7905   14.4202   33.0700 H         1 SAM1        0.0000 
     30 H          80.5635   15.8862   33.6971 H         1 SAM1        0.0000 
     31 H          78.8605   16.1186   35.2453 H         1 SAM1        0.0000 
     32 H          78.8560   14.3911   35.6402 H         1 SAM1        0.0000 
     33 H          75.2413   15.0763   34.3094 H         1 SAM1        0.0000 
     34 H          76.2080   15.0079   35.7929 H         1 SAM1        0.0000 
     35 H          76.7041   12.5269   35.0177 H         1 SAM1        0.0000 
     36 H          74.7601   13.1700   33.1338 H         1 SAM1        0.0000 
     37 H          72.9697   12.5952   34.5032 H         1 SAM1        0.0000 
     38 H          74.7295   10.6574   35.8811 H         1 SAM1        0.0000 
     39 H          71.6993   12.9018   35.9809 H         1 SAM1        0.0000 
     40 H          69.6678   11.3742   40.1139 H         1 SAM1        0.0000 
     41 H          70.2079   10.2493   41.4057 H         1 SAM1        0.0000 
     42 H          74.2387    8.7070   40.1395 H         1 SAM1        0.0000 
     43 H          82.3661   14.1644   36.3670 H         1 SAM1        0.0000 
     44 H          82.0659   15.6136   35.7377 H         1 SAM1        0.0000 
     45 H          80.9097   14.8264   36.5313 H         1 SAM1        0.0000 
     46 H          78.0460   17.0369   33.0279 H         1 SAM1        0.0000 
     47 H          76.5316   16.6614   32.6383 H         1 SAM1        0.0000 
     48 H          76.8768   17.1718   34.1238 H         1 SAM1        0.0000 
     49 H          76.1136   10.9700   34.2354 H         1 SAM1        0.0000 
     50 H          73.8424    9.8771   33.9571 H         1 SAM1        0.0000 
@<TRIPOS>BOND
     1    2    1 1    
     2   43    1 1    
     3   44    1 1    
     4   45    1 1    
     5    3    2 1    
     6    6    2 1    
     7   28    2 1    
     8    4    3 ar   
     9    5    3 ar   
    10    7    6 1    
    11   29    6 1    
    12   30    6 1    
    13    8    7 1    
    14   31    7 1    
    15   32    7 1    
    16    9    8 1    
    17   10    8 1    
    18   46    9 1    
    19   47    9 1    
    20   48    9 1    
    21   11   10 1    
    22   33   10 1    
    23   34   10 1    
    24   12   11 1    
    25   13   11 1    
    26   35   11 1    
    27   17   12 1    
    28   14   13 1    
    29   15   13 1    
    30   36   13 1    
    31   49   14 1    
    32   16   15 1    
    33   17   15 1    
    34   37   15 1    
    35   50   16 1    
    36   18   17 1    
    37   38   17 1    
    38   19   18 1    
    39   27   18 1    
    40   20   19 2    
    41   39   19 1    
    42   21   20 1    
    43   22   21 ar   
    44   27   21 ar   
    45   23   22 1    
    46   24   22 ar   
    47   40   23 1    
    48   41   23 1    
    49   25   24 ar   
    50   26   25 ar   
    51   42   25 1    
    52   27   26 ar   
@<TRIPOS>SUBSTRUCTURE
     1 SAM1        1 GROUP   
@<TRIPOS>SET

