#    Name: 2f8l_SAM_1_INTS_M
#    Modification time : Mon Apr  7 18:16:39 2014

@<TRIPOS>MOLECULE
2f8l_SAM_1_INTS_M
   85     0     9     0     0
SMALL
NO_CHARGES


@<TRIPOS>ATOM
      1 O          41.7990   17.0905   45.3565 O.2       1 ALC1        0.0000 
      2 O          41.8180   18.5170   45.3490 O.2       7 ALL1        0.0000 
      3 O          41.7800   15.6640   45.3640 O.2       4 ALP1        0.0000 
      4 O          42.8775   19.6765   44.7225 O.2       1 ALC1        0.0000 
      5 O          43.9370   20.8360   44.0960 O.2       4 ALP1        0.0000 
      6 O          41.0055   19.2335   44.5150 O.2       1 ALC1        0.0000 
      7 O          40.1930   19.9500   43.6810 O.2       4 ALP1        0.0000 
      8 CA         42.3825   16.9365   46.0580 C.3       3 GLC5        0.0000 
      9 CA         41.7690   18.9830   46.7120 C.3       9 GLL5        0.0000 
     10 CA         42.9960   14.8900   45.4040 C.3       6 GLP5        0.0000 
     11 CA         41.5580   20.7905   47.7240 C.3       3 GLC5        0.0000 
     12 CA         41.3470   22.5980   48.7360 C.3       6 GLP5        0.0000 
     13 N          43.5395   16.7450   47.3800 N.am      2 SEC2        0.0000 
     14 N          44.0320   18.2050   46.8780 N.am      8 SEL2        0.0000 
     15 N          43.0470   15.2850   47.8820 N.am      5 SEP2        0.0000 
     16 N          45.2215   18.1585   45.8780 N.am      2 SEC2        0.0000 
     17 N          46.4110   18.1120   44.8780 N.am      5 SEP2        0.0000 
     18 N          43.3955   20.4805   49.1245 N.am      2 SEC2        0.0000 
     19 N          43.3100   19.0620   48.6220 N.am      8 SEL2        0.0000 
     20 N          43.4810   21.8990   49.6270 N.am      5 SEP2        0.0000 
     21 N          44.3545   19.3560   49.2430 N.am      2 SEC2        0.0000 
     22 N          45.3990   19.6500   49.8640 N.am      5 SEP2        0.0000 
     23 CA         41.5155   17.2355   48.7555 C.3       3 GLC5        0.0000 
     24 CA         40.5590   18.3640   47.3920 C.3       9 GLL5        0.0000 
     25 CA         42.4720   16.1070   50.1190 C.3       6 GLP5        0.0000 
     26 CA         40.3185   20.8635   47.8915 C.3       3 GLC5        0.0000 
     27 CA         39.2900   19.1290   47.0470 C.3       9 GLL5        0.0000 
     28 CA         37.4415   18.7240   50.2805 C.3       3 GLC5        0.0000 
     29 CA         37.9300   18.8070   48.2010 C.3       9 GLL5        0.0000 
     30 CA         36.9530   18.6410   52.3600 C.3       6 GLP5        0.0000 
     31 CA         35.6800   17.2490   49.0440 C.3       3 GLC5        0.0000 
     32 CA         37.4250   17.1300   47.7250 C.3       9 GLL5        0.0000 
     33 CA         33.9350   17.3680   50.3630 C.3       6 GLP5        0.0000 
     34 CA         38.2650   16.8145   45.7425 C.3       3 GLC5        0.0000 
     35 CA         39.1050   16.4990   43.7600 C.3       6 GLP5        0.0000 
     36 CA         35.1755   20.3070   45.8935 C.3       3 GLC5        0.0000 
     37 CA         36.7040   19.9240   47.3650 C.3       9 GLL5        0.0000 
     38 CA         33.6470   20.6900   44.4220 C.3       6 GLP5        0.0000 
     39 CA         36.7090   22.3295   45.8385 C.3       3 GLC5        0.0000 
     40 CA         36.8080   21.4390   47.6840 C.3       9 GLL5        0.0000 
     41 CA         36.6100   23.2200   43.9930 C.3       6 GLP5        0.0000 
     42 CA         37.9920   22.1050   50.9160 C.3       3 GLC5        0.0000 
     43 CA         36.8430   21.8010   49.1790 C.3       9 GLL5        0.0000 
     44 CA         39.1410   22.4090   52.6530 C.3       6 GLP5        0.0000 
     45 O          38.4785   23.2975   48.8530 O.2       1 ALC1        0.0000 
     46 O          38.1420   22.1310   49.4810 O.2       7 ALL1        0.0000 
     47 O          38.8150   24.4640   48.2250 O.2       4 ALP1        0.0000 
     48 O          37.1815   24.8560   50.0660 O.2       1 ALC1        0.0000 
     49 O          36.2860   23.9670   50.3400 O.2       7 ALL1        0.0000 
     50 O          38.0770   25.7450   49.7920 O.2       4 ALP1        0.0000 
     51 O          37.5505   24.2155   49.2825 O.2       1 ALC1        0.0000 
     52 CA         36.1540   23.3255   45.9950 C.3       3 GLC5        0.0000 
     53 CA         35.6980   23.4310   47.9970 C.3       9 GLL5        0.0000 
     54 CA         34.2480   22.4535   46.6685 C.3       3 GLC5        0.0000 
     55 CA         32.7980   21.4760   45.3400 C.3       6 GLP5        0.0000 
     56 CA         33.8805   27.9675   47.7860 C.3       3 GLC5        0.0000 
     57 CA         33.0850   27.0780   46.2530 C.3       9 GLL5        0.0000 
     58 CA         34.6760   28.8570   49.3190 C.3       6 GLP5        0.0000 
     59 CA         33.4735   29.2645   46.0650 C.3       3 GLC5        0.0000 
     60 CA         33.8620   31.4510   45.8770 C.3       6 GLP5        0.0000 
     61 O          31.8135   28.8595   45.4200 O.2       1 ALC1        0.0000 
     62 O          31.8680   27.5850   46.1080 O.2       7 ALL1        0.0000 
     63 O          31.7590   30.1340   44.7320 O.2       4 ALP1        0.0000 
     64 N          34.4635   28.8840   44.9285 N.am      2 SEC2        0.0000 
     65 N          34.1950   27.7500   45.7580 N.am      8 SEL2        0.0000 
     66 N          34.7320   30.0180   44.0990 N.am      5 SEP2        0.0000 
     67 CA         36.6660   25.6910   45.0200 C.3       3 GLC5        0.0000 
     68 CA         35.4760   27.2710   45.9010 C.3       9 GLL5        0.0000 
     69 CA         37.8560   24.1110   44.1390 C.3       6 GLP5        0.0000 
     70 CA         37.2230   27.4780   46.6690 C.3       3 GLC5        0.0000 
     71 CA         38.9700   27.6850   47.4370 C.3       6 GLP5        0.0000 
     72 CA         35.0760   28.0640   47.6100 C.3       3 GLC5        0.0000 
     73 CA         34.6690   29.3610   45.8890 C.3       3 GLC5        0.0000 
     74 CA         35.3040   28.4180   44.3320 C.3       3 GLC5        0.0000 
     75 CA         35.1320   29.5650   42.7630 C.3       6 GLP5        0.0000 
     76 N          36.3490   27.2520   47.6245 N.am      2 SEC2        0.0000 
     77 N          35.6730   26.1000   46.5620 N.am      8 SEL2        0.0000 
     78 N          37.0250   28.4040   48.6870 N.am      5 SEP2        0.0000 
     79 CA         35.6035   24.3225   45.5155 C.3       3 GLC5        0.0000 
     80 CA         34.5970   25.4250   47.0380 C.3       9 GLL5        0.0000 
     81 CA         39.5147   17.6227   45.4898 C.3       3 GLC5        0.0000 
     82 CA         35.9220   21.8582   51.0187 C.3       3 GLC5        0.0000 
     83 CA         35.4980   21.3360   52.7310 C.3       6 GLP5        0.0000 
     84 CA         34.1493   26.6035   48.5200 C.3       3 GLC5        0.0000 
     85 CA         34.3570   27.5580   50.0770 C.3       6 GLP5        0.0000 
@<TRIPOS>BOND
@<TRIPOS>SUBSTRUCTURE
     1 ALC1        1 GROUP        1 X    ALC  0     ROOT ALC X 1
     2 SEC2       13 GROUP        1 X    SEC  0     **** SEC X 2
     3 GLC5        8 GROUP        1 X    GLC  0     **** GLC X 6
     4 ALP1        3 GROUP        1 Y    ALP  0     ROOT ALP Y 8
     5 SEP2       15 GROUP        1 Y    SEP  0     **** SEP Y 9
     6 GLP5       10 GROUP        1 Y    GLP  0     **** GLP Y 13
     7 ALL1        2 GROUP        1 Z    ALL  0     ROOT ALL Z 15
     8 SEL2       14 GROUP        1 Z    SEL  0     **** SEL Z 16
     9 GLL5        9 GROUP        1 Z    GLL  0     **** GLL Z 20
@<TRIPOS>SET

