#    Name: 2f8l_SAM_1_ligand
#    Modification time : Mon Apr  7 18:16:39 2014

@<TRIPOS>MOLECULE
2f8l_SAM_1_ligand
   50    52     1     0     0
SMALL
NO_CHARGES


@<TRIPOS>ATOM
      1 N          41.8180   18.5170   45.3490 N.4       1 SAM400      0.0000 
      2 CA         41.7690   18.9830   46.7120 C.3       1 SAM400      0.0000 
      3 C          43.1030   18.7370   47.4540 C.2       1 SAM400      0.0000 
      4 O          44.0320   18.2050   46.8780 O.co2     1 SAM400      0.0000 
      5 OXT        43.3100   19.0620   48.6220 O.co2     1 SAM400      0.0000 
      6 CB         40.5590   18.3640   47.3920 C.3       1 SAM400      0.0000 
      7 CG         39.2900   19.1290   47.0470 C.3       1 SAM400      0.0000 
      8 SD         37.9300   18.8070   48.2010 S.3       1 SAM400      0.0000 
      9 CE         37.4250   17.1300   47.7250 C.3       1 SAM400      0.0000 
     10 C5'        36.7040   19.9240   47.3650 C.3       1 SAM400      0.0000 
     11 C4'        36.8080   21.4390   47.6840 C.3       1 SAM400      0.0000 
     12 O4'        35.7210   22.2250   47.1980 O.3       1 SAM400      0.0000 
     13 C3'        36.8430   21.8010   49.1790 C.3       1 SAM400      0.0000 
     14 O3'        38.1420   22.1310   49.4810 O.3       1 SAM400      0.0000 
     15 C2'        35.8490   22.9600   49.4340 C.3       1 SAM400      0.0000 
     16 O2'        36.2860   23.9670   50.3400 O.3       1 SAM400      0.0000 
     17 C1'        35.6980   23.4310   47.9970 C.3       1 SAM400      0.0000 
     18 N9         34.5170   24.2530   47.7190 N.pl3     1 SAM400      0.0000 
     19 C8         33.1810   23.9920   47.9910 C.2       1 SAM400      0.0000 
     20 N7         32.4450   24.9840   47.4910 N.2       1 SAM400      0.0000 
     21 C5         33.2860   25.8730   46.8880 C.ar      1 SAM400      0.0000 
     22 C6         33.0850   27.0780   46.2530 C.ar      1 SAM400      0.0000 
     23 N6         31.8680   27.5850   46.1080 N.pl3     1 SAM400      0.0000 
     24 N1         34.1950   27.7500   45.7580 N.ar      1 SAM400      0.0000 
     25 C2         35.4760   27.2710   45.9010 C.ar      1 SAM400      0.0000 
     26 N3         35.6730   26.1000   46.5620 N.ar      1 SAM400      0.0000 
     27 C4         34.5970   25.4250   47.0380 C.ar      1 SAM400      0.0000 
     28 H          41.6041   20.0814   46.7029 H         1 SAM400      0.0000 
     29 H          40.7054   18.3783   48.4730 H         1 SAM400      0.0000 
     30 H          40.4537   17.3275   47.0686 H         1 SAM400      0.0000 
     31 H          38.8597   18.8461   46.1027 H         1 SAM400      0.0000 
     32 H          39.3988   20.1969   47.1150 H         1 SAM400      0.0000 
     33 H          35.7623   19.4842   47.6780 H         1 SAM400      0.0000 
     34 H          36.8798   19.6937   46.3189 H         1 SAM400      0.0000 
     35 H          37.7461   21.8246   47.2577 H         1 SAM400      0.0000 
     36 H          36.4881   20.9348   49.7164 H         1 SAM400      0.0000 
     37 H          34.9124   22.4910   49.6977 H         1 SAM400      0.0000 
     38 H          36.6155   24.0036   47.7607 H         1 SAM400      0.0000 
     39 H          32.8703   23.2138   48.4648 H         1 SAM400      0.0000 
     40 H          31.2184   27.3868   46.8420 H         1 SAM400      0.0000 
     41 H          31.7101   28.1197   45.2778 H         1 SAM400      0.0000 
     42 H          36.2699   27.7976   45.5101 H         1 SAM400      0.0000 
     43 H          42.7424   18.5705   44.9712 H         1 SAM400      0.0000 
     44 H          41.5243   17.5642   45.2715 H         1 SAM400      0.0000 
     45 H          41.2252   19.0561   44.7506 H         1 SAM400      0.0000 
     46 H          38.1171   16.4505   47.9686 H         1 SAM400      0.0000 
     47 H          36.5747   16.8565   48.1747 H         1 SAM400      0.0000 
     48 H          37.2732   17.0535   46.7396 H         1 SAM400      0.0000 
     49 H          38.3062   22.9958   49.0065 H         1 SAM400      0.0000 
     50 H          36.9864   24.4775   49.8412 H         1 SAM400      0.0000 
@<TRIPOS>BOND
     1    2    1 1    
     2   43    1 1    
     3   44    1 1    
     4   45    1 1    
     5    3    2 1    
     6    6    2 1    
     7   28    2 1    
     8    4    3 ar   
     9    5    3 ar   
    10    7    6 1    
    11   29    6 1    
    12   30    6 1    
    13    8    7 1    
    14   31    7 1    
    15   32    7 1    
    16    9    8 1    
    17   10    8 1    
    18   46    9 1    
    19   47    9 1    
    20   48    9 1    
    21   11   10 1    
    22   33   10 1    
    23   34   10 1    
    24   12   11 1    
    25   13   11 1    
    26   35   11 1    
    27   17   12 1    
    28   14   13 1    
    29   15   13 1    
    30   36   13 1    
    31   49   14 1    
    32   16   15 1    
    33   17   15 1    
    34   37   15 1    
    35   50   16 1    
    36   18   17 1    
    37   38   17 1    
    38   19   18 1    
    39   27   18 1    
    40   20   19 2    
    41   39   19 1    
    42   21   20 1    
    43   22   21 ar   
    44   27   21 ar   
    45   23   22 1    
    46   24   22 ar   
    47   40   23 1    
    48   41   23 1    
    49   25   24 ar   
    50   26   25 ar   
    51   42   25 1    
    52   27   26 ar   
@<TRIPOS>SUBSTRUCTURE
     1 SAM400      1 GROUP   
@<TRIPOS>SET

