#    Name: 4nhe_NAP_2_INTS_M
#    Modification time : Tue Mar 25 13:09:44 2014

@<TRIPOS>MOLECULE
4nhe_NAP_2_INTS_M
   94     0    12     0     0
SMALL
NO_CHARGES


@<TRIPOS>ATOM
      1 N          -3.8830   51.0950   18.2945 N.am      2 SEC2        0.0000 
      2 N          -2.6830   50.5390   18.6440 N.am     10 SEL2        0.0000 
      3 N          -5.0830   51.6510   17.9450 N.am      6 SEP2        0.0000 
      4 CA         -1.5825   44.8680   15.0345 C.3       4 GLC5        0.0000 
      5 CA         -1.9860   46.8090   15.5300 C.3      12 GLL5        0.0000 
      6 CA         -1.1790   42.9270   14.5390 C.3       8 GLP5        0.0000 
      7 N          -0.2785   45.9785   13.4155 N.am      2 SEC2        0.0000 
      8 N          -0.6950   47.6180   13.7440 N.am     10 SEL2        0.0000 
      9 N           0.1380   44.3390   13.0870 N.am      6 SEP2        0.0000 
     10 O          -0.4435   46.7725   12.2835 O.2       1 ALC1        0.0000 
     11 O          -0.6950   47.6180   13.7440 O.2       9 ALL1        0.0000 
     12 O          -0.1920   45.9270   10.8230 O.2       5 ALP1        0.0000 
     13 CA         -4.7910   46.8505   16.2155 C.3       4 GLC5        0.0000 
     14 CA         -4.0580   47.0530   14.4940 C.3      12 GLL5        0.0000 
     15 CA         -5.5240   46.6480   17.9370 C.3       8 GLP5        0.0000 
     16 N          -5.4970   50.8630   16.5805 N.am      2 SEC2        0.0000 
     17 N          -5.9110   50.0750   15.2160 N.am     10 SEL2        0.0000 
     18 CA         -8.3610   46.9850   13.0550 C.3       4 GLC5        0.0000 
     19 CA         -8.5160   46.9830   14.8210 C.3      12 GLL5        0.0000 
     20 CA         -8.2060   46.9870   11.2890 C.3       8 GLP5        0.0000 
     21 CA         -7.0200   46.8155   16.3790 C.3       4 GLC5        0.0000 
     22 CA         -9.1580   45.7940   15.8480 C.3       4 GLC5        0.0000 
     23 CA         -9.8000   44.6050   16.8750 C.3       8 GLP5        0.0000 
     24 CA         -7.2875   47.4600   13.0675 C.3       4 GLC5        0.0000 
     25 CA         -6.3690   47.9330   14.8460 C.3      12 GLL5        0.0000 
     26 CA         -5.9465   47.2905   16.3915 C.3       4 GLC5        0.0000 
     27 CA          1.5940   45.6425   19.8985 C.3       4 GLC5        0.0000 
     28 CA         -0.2830   46.4240   20.5270 C.3      12 GLL5        0.0000 
     29 CA          3.4710   44.8610   19.2700 C.3       8 GLP5        0.0000 
     30 CA         -0.6405   43.7235   20.4575 C.3       4 GLC5        0.0000 
     31 CA         -0.3840   45.4290   21.6300 C.3      12 GLL5        0.0000 
     32 CA         -0.8970   42.0180   19.2850 C.3       8 GLP5        0.0000 
     33 CA         -0.1285   43.4365   22.4785 C.3       4 GLC5        0.0000 
     34 CA          0.1270   41.4440   23.3270 C.3       8 GLP5        0.0000 
     35 CA         -2.3310   44.5295   23.3825 C.3       4 GLC5        0.0000 
     36 CA         -0.9330   46.1120   22.8270 C.3      12 GLL5        0.0000 
     37 CA         -3.7290   42.9470   23.9380 C.3       8 GLP5        0.0000 
     38 O          -2.7360   45.8805   24.1420 O.2       1 ALC1        0.0000 
     39 O          -1.8370   45.2210   23.4630 O.2       9 ALL1        0.0000 
     40 O          -3.6350   46.5400   24.8210 O.2       5 ALP1        0.0000 
     41 N           0.8350   46.4150   26.3065 N.am      2 SEC2        0.0000 
     42 N          -0.0830   46.4100   25.0250 N.am     10 SEL2        0.0000 
     43 N           1.7530   46.4200   27.5880 N.am      6 SEP2        0.0000 
     44 N          -0.8500   47.5490   25.5385 N.am      2 SEC2        0.0000 
     45 N          -1.6170   48.6880   26.0520 N.am      6 SEP2        0.0000 
     46 O          -0.3825   45.2750   25.6085 O.2       1 ALC1        0.0000 
     47 O          -0.0830   46.4100   25.0250 O.2       9 ALL1        0.0000 
     48 O          -0.6820   44.1400   26.1920 O.2       5 ALP1        0.0000 
     49 CA          0.6285   43.3790   23.3295 C.3       4 GLC5        0.0000 
     50 CA          1.1300   45.3140   23.3320 C.3      12 GLL5        0.0000 
     51 CA          4.3055   44.4065   22.7665 C.3       4 GLC5        0.0000 
     52 CA          3.4400   44.8290   24.5870 C.3      12 GLL5        0.0000 
     53 CA          5.1710   43.9840   20.9460 C.3       8 GLP5        0.0000 
     54 CA          2.4810   43.0775   23.6635 C.3       4 GLC5        0.0000 
     55 CA          1.5220   41.3260   22.7400 C.3       8 GLP5        0.0000 
     56 N           7.7065   44.1900   26.6535 N.am      2 SEC2        0.0000 
     57 N           6.9190   44.6010   25.5030 N.am     10 SEL2        0.0000 
     58 N           8.4940   43.7790   27.8040 N.am      6 SEP2        0.0000 
     59 O           4.5175   41.8955   24.5105 O.2       1 ALC1        0.0000 
     60 O           5.2780   42.9430   25.5850 O.2       9 ALL1        0.0000 
     61 O           3.7570   40.8480   23.4360 O.2       5 ALP1        0.0000 
     62 O           3.8895   42.4355   25.2415 O.2       1 ALC1        0.0000 
     63 O           2.5010   41.9280   24.8980 O.2       5 ALP1        0.0000 
     64 NZ         -4.4350   48.5605   11.1670 N.4       3 LYC4        0.0000 
     65 NZ         -3.4040   47.7180   10.6030 N.4      11 LYL4        0.0000 
     66 NZ         -6.7020   48.9280   11.6270 N.4       7 LYP4        0.0000 
     67 N          -4.4350   48.5605   11.1670 N.am      2 SEC2        0.0000 
     68 N          -3.4040   47.7180   10.6030 N.am     10 SEL2        0.0000 
     69 N          -5.4660   49.4030   11.7310 N.am      6 SEP2        0.0000 
     70 N          -1.4255   45.6300   10.6565 N.am      2 SEC2        0.0000 
     71 N          -2.6590   45.3330   10.4900 N.am     10 SEL2        0.0000 
     72 N          -0.1920   45.9270   10.8230 N.am      6 SEP2        0.0000 
     73 N          -3.0780   44.9520    9.3260 N.am      2 SEC2        0.0000 
     74 N          -3.4970   44.5710    8.1620 N.am      6 SEP2        0.0000 
     75 NZ         -5.8885   46.7730   11.4085 N.4       3 LYC4        0.0000 
     76 NZ         -4.8810   45.9210   11.3910 N.4      11 LYL4        0.0000 
     77 N          -5.5315   44.9515   10.0915 N.am      2 SEC2        0.0000 
     78 N          -4.8810   45.9210   11.3910 N.am     10 SEL2        0.0000 
     79 N          -6.1820   43.9820    8.7920 N.am      6 SEP2        0.0000 
     80 N          -5.8885   46.7730   11.4085 N.am      2 SEC2        0.0000 
     81 N          -6.8960   47.6250   11.4260 N.am      6 SEP2        0.0000 
     82 CA         -2.8675   45.5742   17.1977 C.3       4 GLC5        0.0000 
     83 CA         -3.9820   44.0280   18.2410 C.3       8 GLP5        0.0000 
     84 CA         -3.6385   46.8843   17.0457 C.3       4 GLC5        0.0000 
     85 CA         -6.7790   48.6312   16.7565 C.3       4 GLC5        0.0000 
     86 CA         -6.9280   49.1860   15.1170 C.3      12 GLL5        0.0000 
     87 CA         -5.9320   48.0310   18.3390 C.3       8 GLP5        0.0000 
     88 CA          3.1418   44.4632   26.0177 C.3       4 GLC5        0.0000 
     89 CA          2.1200   43.9610   27.5410 C.3       8 GLP5        0.0000 
     90 CA          5.8327   44.9468   22.8480 C.3       4 GLC5        0.0000 
     91 CA          4.8870   45.1020   24.4020 C.3      12 GLL5        0.0000 
     92 CA          6.5610   44.1310   21.5730 C.3       8 GLP5        0.0000 
     93 CA          4.3930   45.4715   21.9943 C.3       4 GLC5        0.0000 
     94 CA          4.3190   47.1820   23.0480 C.3      12 GLL5        0.0000 
@<TRIPOS>BOND
@<TRIPOS>SUBSTRUCTURE
     1 ALC1       10 GROUP        1 X    ALC  0     ROOT ALC X 1
     2 SEC2        1 GROUP        1 X    SEC  0     **** SEC X 2
     3 LYC4       64 GROUP        1 X    LYC  0     **** LYC X 4
     4 GLC5        4 GROUP        1 X    GLC  0     **** GLC X 6
     5 ALP1       12 GROUP        1 Y    ALP  0     ROOT ALP Y 8
     6 SEP2        3 GROUP        1 Y    SEP  0     **** SEP Y 9
     7 LYP4       66 GROUP        1 Y    LYP  0     **** LYP Y 11
     8 GLP5        6 GROUP        1 Y    GLP  0     **** GLP Y 13
     9 ALL1       11 GROUP        1 Z    ALL  0     ROOT ALL Z 15
    10 SEL2        2 GROUP        1 Z    SEL  0     **** SEL Z 16
    11 LYL4       65 GROUP        1 Z    LYL  0     **** LYL Z 18
    12 GLL5        5 GROUP        1 Z    GLL  0     **** GLL Z 20
@<TRIPOS>SET

