#    Name: 4nhe_NAP_2_ligand
#    Modification time : Tue Mar 25 13:09:44 2014

@<TRIPOS>MOLECULE
4nhe_NAP_2_ligand
   73    77     1     0     0
SMALL
NO_CHARGES


@<TRIPOS>ATOM
      1 PA         -1.6390   49.6120   18.1660 P.3       1 NAP401      0.0000 
      2 O1A        -0.5850   50.3350   17.4100 O.co2     1 NAP401      0.0000 
      3 O2A        -2.6830   50.5390   18.6440 O.co2     1 NAP401      0.0000 
      4 O5B        -2.2930   48.5270   17.2730 O.3       1 NAP401      0.0000 
      5 C5B        -1.5200   47.4320   16.7790 C.3       1 NAP401      0.0000 
      6 C4B        -1.9860   46.8090   15.5300 C.3       1 NAP401      0.0000 
      7 O4B        -3.3420   46.5240   15.6730 O.3       1 NAP401      0.0000 
      8 C3B        -1.8710   47.7740   14.4110 C.3       1 NAP401      0.0000 
      9 O3B        -0.6950   47.6180   13.7440 O.3       1 NAP401      0.0000 
     10 C2B        -3.0430   47.4710   13.5510 C.3       1 NAP401      0.0000 
     11 O2B        -2.7720   46.4630   12.6660 O.3       1 NAP401      0.0000 
     12 C1B        -4.0580   47.0530   14.4940 C.3       1 NAP401      0.0000 
     13 N9A        -5.0260   48.1050   14.7840 N.pl3     1 NAP401      0.0000 
     14 C8A        -4.7630   49.4100   15.0080 C.2       1 NAP401      0.0000 
     15 N7A        -5.9110   50.0750   15.2160 N.2       1 NAP401      0.0000 
     16 C5A        -6.9280   49.1860   15.1170 C.ar      1 NAP401      0.0000 
     17 C6A        -8.3240   49.2770   15.2310 C.ar      1 NAP401      0.0000 
     18 N6A        -8.9290   50.5510   15.5110 N.pl3     1 NAP401      0.0000 
     19 N1A        -9.0880   48.1740   15.0880 N.ar      1 NAP401      0.0000 
     20 C2A        -8.5160   46.9830   14.8210 C.ar      1 NAP401      0.0000 
     21 N3A        -7.1830   46.8520   14.7060 N.ar      1 NAP401      0.0000 
     22 C4A        -6.3690   47.9330   14.8460 C.ar      1 NAP401      0.0000 
     23 O3         -1.0340   48.8950   19.4070 O.3       1 NAP401      0.0000 
     24 PN          0.5010   48.6500   19.6480 P.3       1 NAP401      0.0000 
     25 O1N         1.1900   49.9110   20.1620 O.co2     1 NAP401      0.0000 
     26 O2N         1.2270   48.1670   18.4010 O.co2     1 NAP401      0.0000 
     27 O5D         0.5340   47.5270   20.7360 O.3       1 NAP401      0.0000 
     28 C5D        -0.2830   46.4240   20.5270 C.3       1 NAP401      0.0000 
     29 C4D        -0.3840   45.4290   21.6300 C.3       1 NAP401      0.0000 
     30 O4D         0.9020   44.9930   21.9370 O.3       1 NAP401      0.0000 
     31 C3D        -0.9330   46.1120   22.8270 C.3       1 NAP401      0.0000 
     32 O3D        -1.8370   45.2210   23.4630 O.3       1 NAP401      0.0000 
     33 C2D         0.2170   46.4160   23.6590 C.3       1 NAP401      0.0000 
     34 O2D        -0.0830   46.4100   25.0250 O.3       1 NAP401      0.0000 
     35 C1D         1.1300   45.3140   23.3320 C.3       1 NAP401      0.0000 
     36 N1N         2.5240   45.5470   23.7110 N.pl3     1 NAP401      0.0000 
     37 C2N         3.4400   44.8290   24.5870 C.ar      1 NAP401      0.0000 
     38 C3N         4.8870   45.1020   24.4020 C.ar      1 NAP401      0.0000 
     39 C7N         5.7850   44.2230   25.1950 C.2       1 NAP401      0.0000 
     40 O7N         6.9190   44.6010   25.5030 O.2       1 NAP401      0.0000 
     41 N7N         5.2780   42.9430   25.5850 N.am      1 NAP401      0.0000 
     42 C4N         5.3220   46.4230   23.8440 C.ar      1 NAP401      0.0000 
     43 C5N         4.3190   47.1820   23.0480 C.ar      1 NAP401      0.0000 
     44 C6N         2.9110   46.7360   23.0370 C.ar      1 NAP401      0.0000 
     45 P2B        -3.4480   46.3580   11.2760 P.3       1 NAP401      0.0000 
     46 O1X        -3.4040   47.7180   10.6030 O.co2     1 NAP401      0.0000 
     47 O2X        -2.6590   45.3330   10.4900 O.co2     1 NAP401      0.0000 
     48 O3X        -4.8810   45.9210   11.3910 O.co2     1 NAP401      0.0000 
     49 H          -1.4441   46.6266   17.5692 H         1 NAP401      0.0000 
     50 H          -0.4454   47.7532   16.6346 H         1 NAP401      0.0000 
     51 H          -1.4144   45.9408   15.3139 H         1 NAP401      0.0000 
     52 H          -2.0128   48.7662   14.8204 H         1 NAP401      0.0000 
     53 H          -3.3577   48.3859   13.0843 H         1 NAP401      0.0000 
     54 H          -4.5949   46.1880   14.0321 H         1 NAP401      0.0000 
     55 H          -3.8719   49.8063   15.0166 H         1 NAP401      0.0000 
     56 H          -9.9282   50.5648   15.5486 H         1 NAP401      0.0000 
     57 H          -8.3001   51.3169   15.6448 H         1 NAP401      0.0000 
     58 H          -9.1299   46.1350   14.6997 H         1 NAP401      0.0000 
     59 H           0.0313   45.8558   19.5930 H         1 NAP401      0.0000 
     60 H          -1.3434   46.7457   20.2700 H         1 NAP401      0.0000 
     61 H          -1.0285   44.6394   21.3399 H         1 NAP401      0.0000 
     62 H          -1.4107   47.0132   22.5083 H         1 NAP401      0.0000 
     63 H           0.6640   47.3298   23.3241 H         1 NAP401      0.0000 
     64 H           0.7524   44.4235   23.9271 H         1 NAP401      0.0000 
     65 H           3.1307   44.1979   25.2651 H         1 NAP401      0.0000 
     66 H           5.8857   42.3816   26.1467 H         1 NAP401      0.0000 
     67 H           4.3585   42.7172   25.2631 H         1 NAP401      0.0000 
     68 H           6.2182   46.7642   23.9973 H         1 NAP401      0.0000 
     69 H           4.5997   47.9821   22.5296 H         1 NAP401      0.0000 
     70 H           2.2335   47.3003   22.5372 H         1 NAP401      0.0000 
     71 H          -0.9169   47.0372   12.9608 H         1 NAP401      0.0000 
     72 H          -2.6909   45.7347   23.5462 H         1 NAP401      0.0000 
     73 H          -0.3104   45.4593   25.2357 H         1 NAP401      0.0000 
@<TRIPOS>BOND
     1    2    1 ar   
     2    3    1 ar   
     3    4    1 1    
     4   23    1 1    
     5    5    4 1    
     6    6    5 1    
     7   49    5 1    
     8   50    5 1    
     9    7    6 1    
    10    8    6 1    
    11   51    6 1    
    12   12    7 1    
    13    9    8 1    
    14   10    8 1    
    15   52    8 1    
    16   71    9 1    
    17   11   10 1    
    18   12   10 1    
    19   53   10 1    
    20   45   11 1    
    21   13   12 1    
    22   54   12 1    
    23   14   13 1    
    24   22   13 1    
    25   15   14 2    
    26   55   14 1    
    27   16   15 1    
    28   17   16 ar   
    29   22   16 ar   
    30   18   17 1    
    31   19   17 ar   
    32   56   18 1    
    33   57   18 1    
    34   20   19 ar   
    35   21   20 ar   
    36   58   20 1    
    37   22   21 ar   
    38   24   23 1    
    39   25   24 ar   
    40   26   24 ar   
    41   27   24 1    
    42   28   27 1    
    43   29   28 1    
    44   59   28 1    
    45   60   28 1    
    46   30   29 1    
    47   31   29 1    
    48   61   29 1    
    49   35   30 1    
    50   32   31 1    
    51   33   31 1    
    52   62   31 1    
    53   72   32 1    
    54   34   33 1    
    55   35   33 1    
    56   63   33 1    
    57   73   34 1    
    58   36   35 1    
    59   64   35 1    
    60   37   36 ar   
    61   44   36 ar   
    62   38   37 ar   
    63   65   37 1    
    64   39   38 1    
    65   42   38 ar   
    66   40   39 2    
    67   41   39 am   
    68   66   41 1    
    69   67   41 1    
    70   43   42 ar   
    71   68   42 1    
    72   44   43 ar   
    73   69   43 1    
    74   70   44 1    
    75   46   45 ar   
    76   47   45 ar   
    77   48   45 ar   
@<TRIPOS>SUBSTRUCTURE
     1 NAP401      1 GROUP   
@<TRIPOS>SET

