#    Name: 4eev_L1X_1_INTS_M
#    Modification time : Tue Mar 25 10:57:01 2014

@<TRIPOS>MOLECULE
4eev_L1X_1_INTS_M
   81     0     6     0     0
SMALL
NO_CHARGES


@<TRIPOS>ATOM
      1 CA         13.1600    1.0435   45.6955 C.3       2 GLC5        0.0000 
      2 CA         12.3690   -0.8040   44.9960 C.3       6 GLL5        0.0000 
      3 CA         13.9510    2.8910   46.3950 C.3       4 GLP5        0.0000 
      4 CA         12.5995   -4.7645   44.8125 C.3       2 GLC5        0.0000 
      5 CA         14.3930   -4.4460   43.6520 C.3       6 GLL5        0.0000 
      6 CA         10.8060   -5.0830   45.9730 C.3       4 GLP5        0.0000 
      7 CA         17.2245   -3.7020   46.8275 C.3       2 GLC5        0.0000 
      8 CA         17.8260   -2.4380   45.3380 C.3       6 GLL5        0.0000 
      9 CA         16.6230   -4.9660   48.3170 C.3       4 GLP5        0.0000 
     10 CA         17.7215   -5.8600   42.7000 C.3       2 GLC5        0.0000 
     11 CA         15.9440   -5.2600   41.9870 C.3       6 GLL5        0.0000 
     12 CA         19.4990   -6.4600   43.4130 C.3       4 GLP5        0.0000 
     13 CA          3.0740    2.3965   48.3660 C.3       2 GLC5        0.0000 
     14 CA          4.7750    2.2530   47.8070 C.3       6 GLL5        0.0000 
     15 CA          1.3730    2.5400   48.9250 C.3       4 GLP5        0.0000 
     16 CA          3.3535    2.1970   46.2895 C.3       2 GLC5        0.0000 
     17 CA          1.9320    2.1410   44.7720 C.3       4 GLP5        0.0000 
     18 CA         18.2315   -6.4690   41.7300 C.3       2 GLC5        0.0000 
     19 CA         16.9640   -6.4780   40.0470 C.3       6 GLL5        0.0000 
     20 CA         16.9490   -8.2145   39.7245 C.3       2 GLC5        0.0000 
     21 CA         16.9340   -9.9510   39.4020 C.3       4 GLP5        0.0000 
     22 CA         15.1730   -5.8100   38.9240 C.3       2 GLC5        0.0000 
     23 CA         13.3820   -5.1420   37.8010 C.3       4 GLP5        0.0000 
     24 N          14.0235   -7.0945   39.5250 N.am      1 SEC2        0.0000 
     25 N          14.6340   -6.6370   40.7550 N.am      5 SEL2        0.0000 
     26 N          13.4130   -7.5520   38.2950 N.am      3 SEP2        0.0000 
     27 N           9.2910    2.1225   44.8040 N.am      1 SEC2        0.0000 
     28 N           8.6710    0.9420   45.3600 N.am      5 SEL2        0.0000 
     29 N           9.9110    3.3030   44.2480 N.am      3 SEP2        0.0000 
     30 CA          3.3950    3.0645   43.4500 C.3       2 GLC5        0.0000 
     31 CA          4.8580    3.9880   42.1280 C.3       6 GLL5        0.0000 
     32 CA          5.2395    0.3067   45.7752 C.3       2 GLC5        0.0000 
     33 CA          6.3070    2.2870   45.4770 C.3       6 GLL5        0.0000 
     34 CA          4.4050   -1.2720   46.5710 C.3       4 GLP5        0.0000 
     35 CA          6.3842    0.2025   42.6770 C.3       2 GLC5        0.0000 
     36 CA          5.8410    1.4840   44.4820 C.3       6 GLL5        0.0000 
     37 CA          7.1730   -1.3770   41.4450 C.3       4 GLP5        0.0000 
     38 CA         10.5073   -1.4948   44.2978 C.3       2 GLC5        0.0000 
     39 CA          8.9870   -2.0150   43.0220 C.3       4 GLP5        0.0000 
     40 CA         12.5757   -1.5248   42.9783 C.3       2 GLC5        0.0000 
     41 CA         12.1750   -1.9470   41.1200 C.3       4 GLP5        0.0000 
     42 CA         11.3812   -3.3475   46.2732 C.3       2 GLC5        0.0000 
     43 CA         12.2270   -2.0790   46.9960 C.3       6 GLL5        0.0000 
     44 CA         16.0877   -5.4047   45.1966 C.3       2 GLC5        0.0000 
     45 CA         16.3400   -6.8710   46.6710 C.3       4 GLP5        0.0000 
     46 CA         18.4281   -5.0330   43.4830 C.3       2 GLC5        0.0000 
     47 CA         16.7360   -3.7880   43.5540 C.3       6 GLL5        0.0000 
     48 CA         14.5965   -6.8409   43.2919 C.3       2 GLC5        0.0000 
     49 CA         13.9540   -8.6310   44.0430 C.3       4 GLP5        0.0000 
     50 CA          7.9115    4.0456   45.5682 C.3       2 GLC5        0.0000 
     51 CA          5.8290    4.2570   44.2460 C.3       6 GLL5        0.0000 
     52 CA          9.6330    4.9660   45.9850 C.3       4 GLP5        0.0000 
     53 CA          3.8457    4.8315   41.8113 C.3       2 GLC5        0.0000 
     54 CA          5.3530    3.4480   43.2590 C.3       6 GLL5        0.0000 
     55 CA          2.5860    5.9450   40.9290 C.3       4 GLP5        0.0000 
     56 CA          5.9108    4.5805   41.1247 C.3       2 GLC5        0.0000 
     57 CA          6.7160    5.4430   39.5560 C.3       4 GLP5        0.0000 
     58 CA          6.9987    3.1925   42.4113 C.3       2 GLC5        0.0000 
     59 CA          8.8920    2.6670   42.1290 C.3       4 GLP5        0.0000 
     60 CA         15.1618   -4.0457   47.7140 C.3       2 GLC5        0.0000 
     61 CA         13.4470   -2.6640   46.6850 C.3       6 GLL5        0.0000 
     62 CA          6.9740    0.5363   50.8413 C.3       2 GLC5        0.0000 
     63 CA          7.8580    0.2660   48.7430 C.3       6 GLL5        0.0000 
     64 CA          6.7250    0.4810   52.8820 C.3       4 GLP5        0.0000 
     65 CA          7.1692   -1.1309   47.9371 C.3       2 GLC5        0.0000 
     66 CA          6.5880    0.9170   48.8580 C.3       6 GLL5        0.0000 
     67 CA          6.4420   -2.6920   47.6760 C.3       4 GLP5        0.0000 
     68 CA          4.9195    0.3158   47.1827 C.3       2 GLC5        0.0000 
     69 CA          6.0930    1.5540   47.7820 C.3       6 GLL5        0.0000 
     70 CA          3.8379    2.3425   41.6744 C.3       2 GLC5        0.0000 
     71 CA          2.5710    1.3090   40.6360 C.3       4 GLP5        0.0000 
     72 CA          5.9387    5.7581   42.6996 C.3       2 GLC5        0.0000 
     73 CA          6.6530    7.5960   42.4590 C.3       4 GLP5        0.0000 
     74 CA         13.0158   -3.3361   48.9999 C.3       2 GLC5        0.0000 
     75 CA         12.6360   -3.6930   50.8110 C.3       4 GLP5        0.0000 
     76 CA         12.3374   -4.0635   46.3979 C.3       2 GLC5        0.0000 
     77 CA         13.9540   -3.5870   47.5370 C.3       6 GLL5        0.0000 
     78 CA          7.3924    2.5603   43.3296 C.3       2 GLC5        0.0000 
     79 CA         14.7974   -3.2444   41.8491 C.3       2 GLC5        0.0000 
     80 CA         15.4770   -3.7320   44.1290 C.3       6 GLL5        0.0000 
     81 CA         13.8870   -1.9890   40.6450 C.3       4 GLP5        0.0000 
@<TRIPOS>BOND
@<TRIPOS>SUBSTRUCTURE
     1 SEC2       24 GROUP        1 X    SEC  0     ROOT SEC X 2
     2 GLC5        1 GROUP        1 X    GLC  0     **** GLC X 6
     3 SEP2       26 GROUP        1 Y    SEP  0     ROOT SEP Y 9
     4 GLP5        3 GROUP        1 Y    GLP  0     **** GLP Y 13
     5 SEL2       25 GROUP        1 Z    SEL  0     ROOT SEL Z 16
     6 GLL5        2 GROUP        1 Z    GLL  0     **** GLL Z 20
@<TRIPOS>SET

