#    Name: 4eev_L1X_1_ligand
#    Modification time : Tue Mar 25 10:57:01 2014

@<TRIPOS>MOLECULE
4eev_L1X_1_ligand
   63    68     1     0     0
SMALL
NO_CHARGES


@<TRIPOS>ATOM
      1 C1          6.3170    3.6700   45.4060 C.ar      1 L1X1401     0.0000 
      2 C2          5.8410    1.4840   44.4820 C.ar      1 L1X1401     0.0000 
      3 C3         12.3690   -0.8040   44.9960 C.ar      1 L1X1401     0.0000 
      4 C4         13.5840   -1.4010   44.6770 C.ar      1 L1X1401     0.0000 
      5 C5          5.8290    4.2570   44.2460 C.ar      1 L1X1401     0.0000 
      6 C6          5.3500    2.0800   43.3360 C.ar      1 L1X1401     0.0000 
      7 C7         14.3930   -4.4460   43.6520 C.ar      1 L1X1401     0.0000 
      8 C8         17.0170   -4.5440   42.4500 C.ar      1 L1X1401     0.0000 
      9 C9         12.2270   -2.0790   46.9960 C.ar      1 L1X1401     0.0000 
     10 C10        13.9150   -6.0950   41.7310 C.2       1 L1X1401     0.0000 
     11 C11        19.1150   -2.7640   43.5560 C.2       1 L1X1401     0.0000 
     12 C12        17.8260   -2.4380   45.3380 C.2       1 L1X1401     0.0000 
     13 C13        14.6750   -5.2370   42.5370 C.ar      1 L1X1401     0.0000 
     14 C14        16.7360   -3.7880   43.5540 C.ar      1 L1X1401     0.0000 
     15 C15        17.8380   -3.0460   44.1040 C.2       1 L1X1401     0.0000 
     16 C16        15.9440   -5.2600   41.9870 C.ar      1 L1X1401     0.0000 
     17 C17         6.3070    2.2870   45.4770 C.ar      1 L1X1401     0.0000 
     18 C18        11.6860   -1.1450   46.1510 C.ar      1 L1X1401     0.0000 
     19 C19        14.1200   -2.3380   45.5320 C.ar      1 L1X1401     0.0000 
     20 C20        15.4770   -3.7320   44.1290 C.ar      1 L1X1401     0.0000 
     21 C21         5.3530    3.4480   43.2590 C.ar      1 L1X1401     0.0000 
     22 C22        13.4470   -2.6640   46.6850 C.ar      1 L1X1401     0.0000 
     23 C23         7.8580    0.2660   48.7430 C.2       1 L1X1401     0.0000 
     24 C24         6.5880    0.9170   48.8580 C.2       1 L1X1401     0.0000 
     25 C25         8.5700    0.2690   47.5960 C.2       1 L1X1401     0.0000 
     26 C26         6.0930    1.5540   47.7820 C.2       1 L1X1401     0.0000 
     27 C27         8.0320    0.9810   46.4080 C.2       1 L1X1401     0.0000 
     28 C28         9.8280   -0.4750   47.6250 C.2       1 L1X1401     0.0000 
     29 C29         4.7750    2.2530   47.8070 C.3       1 L1X1401     0.0000 
     30 C30        16.9640   -6.4780   40.0470 C.3       1 L1X1401     0.0000 
     31 N31        14.6340   -6.6370   40.7550 N.2       1 L1X1401     0.0000 
     32 N32        19.8340   -2.0300   44.4000 N.2       1 L1X1401     0.0000 
     33 N33        19.0560   -1.8510   45.4630 N.pl3     1 L1X1401     0.0000 
     34 N34        15.8620   -6.1190   40.9340 N.pl3     1 L1X1401     0.0000 
     35 N35         6.8210    1.6050   46.5940 N.am      1 L1X1401     0.0000 
     36 N36        10.4390   -0.5360   46.4070 N.am      1 L1X1401     0.0000 
     37 O37         8.6710    0.9420   45.3600 O.2       1 L1X1401     0.0000 
     38 O38        10.1540   -1.0780   48.6300 O.2       1 L1X1401     0.0000 
     39 O39        15.3590   -2.9220   45.2440 O.3       1 L1X1401     0.0000 
     40 F40         4.8580    3.9880   42.1280 F         1 L1X1401     0.0000 
     41 F41        13.9540   -3.5870   47.5370 F         1 L1X1401     0.0000 
     42 H           6.6668    4.2339   46.1707 H         1 L1X1401     0.0000 
     43 H           5.8497    0.4651   44.5706 H         1 L1X1401     0.0000 
     44 H          11.9703   -0.0919   44.3563 H         1 L1X1401     0.0000 
     45 H          14.0710   -1.1417   43.8122 H         1 L1X1401     0.0000 
     46 H           5.8323    5.2752   44.1469 H         1 L1X1401     0.0000 
     47 H           4.9940    1.5087   42.5664 H         1 L1X1401     0.0000 
     48 H          13.4937   -4.4043   44.0606 H         1 L1X1401     0.0000 
     49 H          17.9123   -4.5727   42.0232 H         1 L1X1401     0.0000 
     50 H          11.7366   -2.3510   47.8600 H         1 L1X1401     0.0000 
     51 H          12.9572   -6.2525   41.9016 H         1 L1X1401     0.0000 
     52 H          19.3818   -3.0855   42.6793 H         1 L1X1401     0.0000 
     53 H          17.1234   -2.4300   45.9575 H         1 L1X1401     0.0000 
     54 H           8.2169   -0.2191   49.5966 H         1 L1X1401     0.0000 
     55 H           6.1013    0.8755   49.7529 H         1 L1X1401     0.0000 
     56 H          19.3226   -1.3435   46.2792 H         1 L1X1401     0.0000 
     57 H           9.9498   -0.0932   45.5690 H         1 L1X1401     0.0000 
     58 H           4.7530    2.9798   48.4935 H         1 L1X1401     0.0000 
     59 H           4.5619    2.6754   46.9260 H         1 L1X1401     0.0000 
     60 H           4.0259    1.6257   48.0202 H         1 L1X1401     0.0000 
     61 H          17.3354   -5.6791   39.5740 H         1 L1X1401     0.0000 
     62 H          17.7202   -6.9007   40.5465 H         1 L1X1401     0.0000 
     63 H          16.6777   -7.1283   39.3434 H         1 L1X1401     0.0000 
@<TRIPOS>BOND
     1    5    1 ar   
     2   17    1 ar   
     3   42    1 1    
     4    6    2 ar   
     5   17    2 ar   
     6   43    2 1    
     7    4    3 ar   
     8   18    3 ar   
     9   44    3 1    
    10   19    4 ar   
    11   45    4 1    
    12   21    5 ar   
    13   46    5 1    
    14   21    6 ar   
    15   47    6 1    
    16   13    7 ar   
    17   20    7 ar   
    18   48    7 1    
    19   14    8 ar   
    20   16    8 ar   
    21   49    8 1    
    22   18    9 ar   
    23   22    9 ar   
    24   50    9 1    
    25   13   10 1    
    26   31   10 2    
    27   51   10 1    
    28   15   11 1    
    29   32   11 2    
    30   52   11 1    
    31   15   12 2    
    32   33   12 1    
    33   53   12 1    
    34   16   13 ar   
    35   15   14 1    
    36   20   14 ar   
    37   34   16 1    
    38   35   17 1    
    39   36   18 1    
    40   22   19 ar   
    41   39   19 1    
    42   39   20 1    
    43   40   21 1    
    44   41   22 1    
    45   24   23 1    
    46   25   23 2    
    47   54   23 1    
    48   26   24 2    
    49   55   24 1    
    50   27   25 1    
    51   28   25 1    
    52   29   26 1    
    53   35   26 1    
    54   35   27 am   
    55   37   27 2    
    56   36   28 am   
    57   38   28 2    
    58   58   29 1    
    59   59   29 1    
    60   60   29 1    
    61   34   30 1    
    62   61   30 1    
    63   62   30 1    
    64   63   30 1    
    65   34   31 1    
    66   33   32 1    
    67   56   33 1    
    68   57   36 1    
@<TRIPOS>SUBSTRUCTURE
     1 L1X1401     1 GROUP   
@<TRIPOS>SET

