#    Name: 1ro6_ROL_2_INTS_M
#    Modification time : Tue Mar 25 00:59:06 2014

@<TRIPOS>MOLECULE
1ro6_ROL_2_INTS_M
   56     0     9     0     0
SMALL
NO_CHARGES


@<TRIPOS>ATOM
      1 CA         17.7470  111.3335   29.0010 C.3       3 GLC5        0.0000 
      2 CA         19.4250  111.8900   30.2460 C.3       9 GLL5        0.0000 
      3 CA         16.0690  110.7770   27.7560 C.3       6 GLP5        0.0000 
      4 CA         18.8720  108.1820   28.8430 C.3       3 GLC5        0.0000 
      5 CA         20.0750  109.1070   29.9820 C.3       9 GLL5        0.0000 
      6 CA         17.6690  107.2570   27.7040 C.3       6 GLP5        0.0000 
      7 CA         16.2315  112.5200   31.1730 C.3       3 GLC5        0.0000 
      8 CA         17.5240  113.6600   30.4130 C.3       9 GLL5        0.0000 
      9 CA         14.9390  111.3800   31.9330 C.3       6 GLP5        0.0000 
     10 CA         15.3725  114.2395   30.6555 C.3       3 GLC5        0.0000 
     11 CA         13.2210  114.8190   30.8980 C.3       6 GLP5        0.0000 
     12 CA         16.7965  112.2185   29.0845 C.3       3 GLC5        0.0000 
     13 N          15.3970  114.9435   31.0795 N.am      2 SEC2        0.0000 
     14 N          16.4100  115.1840   31.9850 N.am      8 SEL2        0.0000 
     15 N          14.3840  114.7030   30.1740 N.am      5 SEP2        0.0000 
     16 O          18.5665  115.8425   33.1480 O.2       1 ALC1        0.0000 
     17 O          18.6980  115.1660   31.7910 O.2       7 ALL1        0.0000 
     18 O          18.4350  116.5190   34.5050 O.2       4 ALP1        0.0000 
     19 N          21.7170  107.8285   27.9265 N.am      2 SEC2        0.0000 
     20 N          21.3570  109.4960   28.0470 N.am      8 SEL2        0.0000 
     21 N          22.0770  106.1610   27.8060 N.am      5 SEP2        0.0000 
     22 CA         23.3325  110.0270   28.1465 C.3       3 GLC5        0.0000 
     23 CA         21.6480  110.2220   26.8630 C.3       9 GLL5        0.0000 
     24 CA         25.0170  109.8320   29.4300 C.3       6 GLP5        0.0000 
     25 CA         18.8430  109.7295   26.6035 C.3       3 GLC5        0.0000 
     26 CA         20.6580  109.8110   25.7790 C.3       9 GLL5        0.0000 
     27 CA         17.0280  109.6480   27.4280 C.3       6 GLP5        0.0000 
     28 CA         19.6205  111.1485   25.0215 C.3       3 GLC5        0.0000 
     29 CA         18.5830  112.4860   24.2640 C.3       6 GLP5        0.0000 
     30 CA         20.1675  107.2805   24.4220 C.3       3 GLC5        0.0000 
     31 CA         21.2650  108.5400   25.1870 C.3       9 GLL5        0.0000 
     32 CA         19.0700  106.0210   23.6570 C.3       6 GLP5        0.0000 
     33 N          21.2545  106.9595   28.7915 N.am      2 SEC2        0.0000 
     34 N          20.4320  107.7580   29.7770 N.am      8 SEL2        0.0000 
     35 CA         19.7815  106.9280   32.8685 C.3       3 GLC5        0.0000 
     36 CA         19.9190  106.7510   30.6420 C.3       9 GLL5        0.0000 
     37 CA         19.6440  107.1050   35.0950 C.3       6 GLP5        0.0000 
     38 CA         21.0915  105.4025   31.5605 C.3       3 GLC5        0.0000 
     39 CA         22.2640  104.0540   32.4790 C.3       6 GLP5        0.0000 
     40 CA         18.9480  105.2800   29.9970 C.3       3 GLC5        0.0000 
     41 CA         17.9770  103.8090   29.3520 C.3       6 GLP5        0.0000 
     42 CA         18.7940  107.0040   29.1730 C.3       3 GLC5        0.0000 
     43 CA         18.7060  110.1887   28.2715 C.3       3 GLC5        0.0000 
     44 CA         20.5530  110.0420   29.0450 C.3       9 GLL5        0.0000 
     45 CA         18.0930  109.9603   29.2810 C.3       3 GLC5        0.0000 
     46 CA         19.2960  109.5890   31.0540 C.3       9 GLL5        0.0000 
     47 CA         20.7485  113.9315   32.1107 C.3       3 GLC5        0.0000 
     48 CA         19.0230  113.3630   30.2760 C.3       9 GLL5        0.0000 
     49 CA         22.1490  114.0970   33.3900 C.3       6 GLP5        0.0000 
     50 CA         22.9235  109.3918   23.5625 C.3       3 GLC5        0.0000 
     51 CA         23.8240  110.1450   21.8840 C.3       6 GLP5        0.0000 
     52 CA         23.1995  107.6178   24.2500 C.3       3 GLC5        0.0000 
     53 CA         22.7810  108.7370   25.2950 C.3       9 GLL5        0.0000 
     54 CA         24.3760  106.5970   23.2590 C.3       6 GLP5        0.0000 
     55 CA         24.3857  109.1523   27.1528 C.3       3 GLC5        0.0000 
     56 CA         25.8730  109.0610   28.4570 C.3       6 GLP5        0.0000 
@<TRIPOS>BOND
@<TRIPOS>SUBSTRUCTURE
     1 ALC1       16 GROUP        1 X    ALC  0     ROOT ALC X 1
     2 SEC2       13 GROUP        1 X    SEC  0     **** SEC X 2
     3 GLC5        1 GROUP        1 X    GLC  0     **** GLC X 6
     4 ALP1       18 GROUP        1 Y    ALP  0     ROOT ALP Y 8
     5 SEP2       15 GROUP        1 Y    SEP  0     **** SEP Y 9
     6 GLP5        3 GROUP        1 Y    GLP  0     **** GLP Y 13
     7 ALL1       17 GROUP        1 Z    ALL  0     ROOT ALL Z 15
     8 SEL2       14 GROUP        1 Z    SEL  0     **** SEL Z 16
     9 GLL5        2 GROUP        1 Z    GLL  0     **** GLL Z 20
@<TRIPOS>SET

