#    Name: 1ro6_ROL_2_ligand
#    Modification time : Tue Mar 25 00:59:06 2014

@<TRIPOS>MOLECULE
1ro6_ROL_2_ligand
   41    43     1     0     0
SMALL
NO_CHARGES


@<TRIPOS>ATOM
      1 C5         19.4250  111.8900   30.2460 C.ar      1 ROL602      0.0000 
      2 C6         20.2150  111.4170   29.1850 C.ar      1 ROL602      0.0000 
      3 C7         20.5530  110.0420   29.0450 C.ar      1 ROL602      0.0000 
      4 C8         20.0750  109.1070   29.9820 C.ar      1 ROL602      0.0000 
      5 C9         19.2960  109.5890   31.0540 C.ar      1 ROL602      0.0000 
      6 C10        19.0200  110.9560   31.2140 C.ar      1 ROL602      0.0000 
      7 C3         19.0230  113.3630   30.2760 C.3       1 ROL602      0.0000 
      8 C2         17.5240  113.6600   30.4130 C.3       1 ROL602      0.0000 
      9 C1         17.4530  114.7630   31.4860 C.2       1 ROL602      0.0000 
     10 O1         16.4100  115.1840   31.9850 O.2       1 ROL602      0.0000 
     11 N1         18.6980  115.1660   31.7910 N.am      1 ROL602      0.0000 
     12 C4         19.6730  114.1690   31.3870 C.3       1 ROL602      0.0000 
     13 O3         21.3570  109.4960   28.0470 O.3       1 ROL602      0.0000 
     14 C11        21.6480  110.2220   26.8630 C.3       1 ROL602      0.0000 
     15 C15        20.6580  109.8110   25.7790 C.3       1 ROL602      0.0000 
     16 C14        21.2650  108.5400   25.1870 C.3       1 ROL602      0.0000 
     17 C13        22.7810  108.7370   25.2950 C.3       1 ROL602      0.0000 
     18 C12        23.0160  109.7500   26.4020 C.3       1 ROL602      0.0000 
     19 O2         20.4320  107.7580   29.7770 O.3       1 ROL602      0.0000 
     20 C16        19.9190  106.7510   30.6420 C.3       1 ROL602      0.0000 
     21 H          20.5673  112.0863   28.4763 H         1 ROL602      0.0000 
     22 H          18.9177  108.9126   31.7419 H         1 ROL602      0.0000 
     23 H          18.5146  111.2785   32.0509 H         1 ROL602      0.0000 
     24 H          19.3439  113.8429   29.3246 H         1 ROL602      0.0000 
     25 H          17.0166  112.7959   30.7581 H         1 ROL602      0.0000 
     26 H          17.1462  114.0325   29.4956 H         1 ROL602      0.0000 
     27 H          18.9671  115.9872   32.2164 H         1 ROL602      0.0000 
     28 H          20.5706  114.6292   31.0008 H         1 ROL602      0.0000 
     29 H          19.9158  113.5024   32.2014 H         1 ROL602      0.0000 
     30 H          21.6493  111.2505   26.9837 H         1 ROL602      0.0000 
     31 H          20.6057  110.5645   25.0333 H         1 ROL602      0.0000 
     32 H          19.7163  109.5891   26.2154 H         1 ROL602      0.0000 
     33 H          20.9882  108.4510   24.1631 H         1 ROL602      0.0000 
     34 H          20.9720  107.6965   25.7664 H         1 ROL602      0.0000 
     35 H          23.1571  109.1180   24.3653 H         1 ROL602      0.0000 
     36 H          23.2436  107.8032   25.5501 H         1 ROL602      0.0000 
     37 H          23.5313  109.2803   27.2191 H         1 ROL602      0.0000 
     38 H          23.5758  110.5824   26.0181 H         1 ROL602      0.0000 
     39 H          20.2452  105.8408   30.3868 H         1 ROL602      0.0000 
     40 H          20.1906  106.9040   31.5922 H         1 ROL602      0.0000 
     41 H          18.9196  106.7199   30.6242 H         1 ROL602      0.0000 
@<TRIPOS>BOND
     1    2    1 ar   
     2    6    1 ar   
     3    7    1 1    
     4    3    2 ar   
     5   21    2 1    
     6    4    3 ar   
     7   13    3 1    
     8    5    4 ar   
     9   19    4 1    
    10    6    5 ar   
    11   22    5 1    
    12   23    6 1    
    13    8    7 1    
    14   12    7 1    
    15   24    7 1    
    16    9    8 1    
    17   25    8 1    
    18   26    8 1    
    19   10    9 2    
    20   11    9 am   
    21   12   11 1    
    22   27   11 1    
    23   28   12 1    
    24   29   12 1    
    25   14   13 1    
    26   15   14 1    
    27   18   14 1    
    28   30   14 1    
    29   16   15 1    
    30   31   15 1    
    31   32   15 1    
    32   17   16 1    
    33   33   16 1    
    34   34   16 1    
    35   18   17 1    
    36   35   17 1    
    37   36   17 1    
    38   37   18 1    
    39   38   18 1    
    40   20   19 1    
    41   39   20 1    
    42   40   20 1    
    43   41   20 1    
@<TRIPOS>SUBSTRUCTURE
     1 ROL602      1 GROUP   
@<TRIPOS>SET

