#    Name: 4gv1_0XZ_1_INTS_M
#    Modification time : Mon Mar 24 23:49:50 2014

@<TRIPOS>MOLECULE
4gv1_0XZ_1_INTS_M
   85     0    12     0     0
SMALL
NO_CHARGES


@<TRIPOS>ATOM
      1 CA        -14.4515   -1.1410    9.0820 C.3       4 GLC5        0.0000 
      2 CA        -16.1850   -0.4780    9.5900 C.3      12 GLL5        0.0000 
      3 CA        -12.7180   -1.8040    8.5740 C.3       8 GLP5        0.0000 
      4 CA        -15.0160    0.4845    8.2920 C.3       4 GLC5        0.0000 
      5 CA        -13.8470    1.4470    6.9940 C.3       8 GLP5        0.0000 
      6 CA        -16.1915   -2.1945    8.9105 C.3       4 GLC5        0.0000 
      7 CA        -16.1980   -3.9110    8.2310 C.3       8 GLP5        0.0000 
      8 CA        -19.7065    2.9895   18.1450 C.3       4 GLC5        0.0000 
      9 CA        -18.7820    3.5840   16.2550 C.3      12 GLL5        0.0000 
     10 CA        -20.6310    2.3950   20.0350 C.3       8 GLP5        0.0000 
     11 CA        -19.5535    5.0245   17.0940 C.3       4 GLC5        0.0000 
     12 CA        -20.3250    6.4650   17.9330 C.3       8 GLP5        0.0000 
     13 O         -20.5690    3.8825   13.7580 O.2       1 ALC1        0.0000 
     14 O         -19.1830    4.1310   13.2710 O.2       9 ALL1        0.0000 
     15 O         -21.9550    3.6340   14.2450 O.2       5 ALP1        0.0000 
     16 CA        -20.6870    8.2865   12.5535 C.3       4 GLC5        0.0000 
     17 CA        -20.0940    6.9710   10.9410 C.3      12 GLL5        0.0000 
     18 CA        -21.2800    9.6020   14.1660 C.3       8 GLP5        0.0000 
     19 CA        -18.7375    7.4635    7.9270 C.3       4 GLC5        0.0000 
     20 CA        -19.5770    6.5580    9.5390 C.3      12 GLL5        0.0000 
     21 CA        -17.8980    8.3690    6.3150 C.3       8 GLP5        0.0000 
     22 CA        -17.4820    6.4980    9.5250 C.3       4 GLC5        0.0000 
     23 CA        -15.3870    6.4380    9.5110 C.3       8 GLP5        0.0000 
     24 CA        -18.7700    5.1185    8.1600 C.3       4 GLC5        0.0000 
     25 CA        -17.9630    3.6790    6.7810 C.3       8 GLP5        0.0000 
     26 OD1       -20.3750    7.1155   13.6385 O.co2     3 ASC3        0.0000 
     27 OD1       -21.1720    6.2410   13.0230 O.co2    11 ASL3        0.0000 
     28 OD1       -19.5780    7.9900   14.2540 O.co2     7 ASP3        0.0000 
     29 O         -20.3750    7.1155   13.6385 O.2       1 ALC1        0.0000 
     30 O         -21.1720    6.2410   13.0230 O.2       9 ALL1        0.0000 
     31 O         -19.5780    7.9900   14.2540 O.2       5 ALP1        0.0000 
     32 O         -21.5635    4.9375   13.6340 O.2       1 ALC1        0.0000 
     33 CA        -23.2400    4.0695   11.4990 C.3       4 GLC5        0.0000 
     34 CA        -21.1950    4.6930   11.0970 C.3      12 GLL5        0.0000 
     35 CA        -25.2850    3.4460   11.9010 C.3       8 GLP5        0.0000 
     36 CA        -19.3635    3.4220    8.7550 C.3       4 GLC5        0.0000 
     37 CA        -20.5100    4.3260    9.7760 C.3      12 GLL5        0.0000 
     38 CA        -18.2170    2.5180    7.7340 C.3       8 GLP5        0.0000 
     39 CA        -21.2100    8.0925    5.9525 C.3       4 GLC5        0.0000 
     40 CA        -22.6390    7.9730    7.2530 C.3      12 GLL5        0.0000 
     41 CA        -19.7810    8.2120    4.6520 C.3       8 GLP5        0.0000 
     42 CA        -22.5560    6.5890    5.6895 C.3       4 GLC5        0.0000 
     43 CA        -22.4730    5.2050    4.1260 C.3       8 GLP5        0.0000 
     44 CA        -24.5985    8.5765    7.7795 C.3       4 GLC5        0.0000 
     45 CA        -26.5580    9.1800    8.3060 C.3       8 GLP5        0.0000 
     46 CA        -22.9040    8.5930    8.9165 C.3       4 GLC5        0.0000 
     47 CA        -23.1690    9.2130   10.5800 C.3       8 GLP5        0.0000 
     48 N         -24.8850    8.0630    6.4060 N.am      2 SEC2        0.0000 
     49 N         -23.7110    7.2450    6.8310 N.am     10 SEL2        0.0000 
     50 N         -26.0590    8.8810    5.9810 N.am      6 SEP2        0.0000 
     51 CA        -26.2795    3.2405    7.3125 C.3       4 GLC5        0.0000 
     52 CA        -24.4320    3.8200    7.3100 C.3      12 GLL5        0.0000 
     53 CA        -28.1270    2.6610    7.3150 C.3       8 GLP5        0.0000 
     54 O         -25.7875    5.3190    5.9170 O.2       1 ALC1        0.0000 
     55 O         -24.7380    5.0480    6.8510 O.2       9 ALL1        0.0000 
     56 O         -26.8370    5.5900    4.9830 O.2       5 ALP1        0.0000 
     57 CA        -24.7445    6.8995    5.4685 C.3       4 GLC5        0.0000 
     58 CA        -23.7630    5.9140    7.1610 C.3      12 GLL5        0.0000 
     59 CA        -25.7260    7.8850    3.7760 C.3       8 GLP5        0.0000 
     60 CA        -25.1605    7.5470    7.7335 C.3       4 GLC5        0.0000 
     61 CA        -18.3137   -0.5323    9.5926 C.3       4 GLC5        0.0000 
     62 CA        -16.7230    0.6360   10.7890 C.3      12 GLL5        0.0000 
     63 CA        -19.3930   -1.3810    8.4480 C.3       8 GLP5        0.0000 
     64 CA        -14.3882    2.9620   11.0207 C.3       4 GLC5        0.0000 
     65 CA        -15.8340    1.6050   11.2380 C.3      12 GLL5        0.0000 
     66 CA        -12.7400    3.8660   10.3140 C.3       8 GLP5        0.0000 
     67 CA        -14.0568    1.6855   12.3833 C.3       4 GLC5        0.0000 
     68 CA        -12.0770    1.3130   13.0390 C.3       8 GLP5        0.0000 
     69 CA        -17.3756    1.7394    9.3608 C.3       4 GLC5        0.0000 
     70 CA        -20.1358    8.7447    9.4430 C.3       4 GLC5        0.0000 
     71 CA        -20.4360   10.7250    8.6460 C.3       8 GLP5        0.0000 
     72 CA        -22.2620    6.5741   11.1369 C.3       4 GLC5        0.0000 
     73 CA        -20.3800    5.7800   11.8600 C.3      12 GLL5        0.0000 
     74 CA        -23.8080    7.6140   11.0250 C.3       8 GLP5        0.0000 
     75 CA        -20.9898    4.4318    7.0376 C.3       4 GLC5        0.0000 
     76 CA        -21.6660    6.0240    8.2730 C.3      12 GLL5        0.0000 
     77 CA        -19.2510    4.0560    6.0450 C.3       8 GLP5        0.0000 
     78 CA        -23.1528    4.5482    5.8868 C.3       4 GLC5        0.0000 
     79 CA        -23.2330    3.9630    7.9850 C.3      12 GLL5        0.0000 
     80 CA        -23.4998    2.2332    6.9052 C.3       4 GLC5        0.0000 
     81 CA        -23.1670    0.5750    6.1630 C.3       8 GLP5        0.0000 
     82 CA        -24.8737    4.2137    9.3433 C.3       4 GLC5        0.0000 
     83 CA        -25.9150    4.5360   11.0390 C.3       8 GLP5        0.0000 
     84 CA        -22.7332    5.4940    5.8721 C.3       4 GLC5        0.0000 
     85 CA        -23.4008    6.6985    9.3216 C.3       4 GLC5        0.0000 
@<TRIPOS>BOND
@<TRIPOS>SUBSTRUCTURE
     1 ALC1       13 GROUP        1 X    ALC  0     ROOT ALC X 1
     2 SEC2       48 GROUP        1 X    SEC  0     **** SEC X 2
     3 ASC3       26 GROUP        1 X    ASC  0     **** ASC X 3
     4 GLC5        1 GROUP        1 X    GLC  0     **** GLC X 6
     5 ALP1       15 GROUP        1 Y    ALP  0     ROOT ALP Y 8
     6 SEP2       50 GROUP        1 Y    SEP  0     **** SEP Y 9
     7 ASP3       28 GROUP        1 Y    ASP  0     **** ASP Y 10
     8 GLP5        3 GROUP        1 Y    GLP  0     **** GLP Y 13
     9 ALL1       14 GROUP        1 Z    ALL  0     ROOT ALL Z 15
    10 SEL2       49 GROUP        1 Z    SEL  0     **** SEL Z 16
    11 ASL3       27 GROUP        1 Z    ASL  0     **** ASL Z 17
    12 GLL5        2 GROUP        1 Z    GLL  0     **** GLL Z 20
@<TRIPOS>SET

