#    Name: 4gv1_0XZ_1_ligand
#    Modification time : Mon Mar 24 23:49:50 2014

@<TRIPOS>MOLECULE
4gv1_0XZ_1_ligand
   56    59     1     0     0
SMALL
NO_CHARGES


@<TRIPOS>ATOM
      1 CL3       -16.1850   -0.4780    9.5900 Cl        1 0XZ501      0.0000 
      2 C27       -16.7230    0.6360   10.7890 C.ar      1 0XZ501      0.0000 
      3 C26       -18.0150    0.5540   11.2850 C.ar      1 0XZ501      0.0000 
      4 C25       -18.4180    1.4630   12.2500 C.ar      1 0XZ501      0.0000 
      5 C28       -15.8340    1.6050   11.2380 C.ar      1 0XZ501      0.0000 
      6 C29       -16.2390    2.5110   12.2170 C.ar      1 0XZ501      0.0000 
      7 C24       -17.5340    2.4390   12.7240 C.ar      1 0XZ501      0.0000 
      8 C20       -18.0120    3.4110   13.7970 C.3       1 0XZ501      0.0000 
      9 C21       -18.3850    2.6590   15.0960 C.3       1 0XZ501      0.0000 
     10 C22       -18.7820    3.5840   16.2550 C.3       1 0XZ501      0.0000 
     11 O23       -17.7080    4.4200   16.6410 O.3       1 0XZ501      0.0000 
     12 N19       -19.1830    4.1310   13.2710 N.am      1 0XZ501      0.0000 
     13 C17       -19.0740    5.1350   12.3450 C.2       1 0XZ501      0.0000 
     14 O18       -17.9650    5.4540   11.9130 O.2       1 0XZ501      0.0000 
     15 C13       -20.3800    5.7800   11.8600 C.3       1 0XZ501      0.0000 
     16 C12       -20.0940    6.9710   10.9410 C.3       1 0XZ501      0.0000 
     17 C11       -19.5770    6.5580    9.5390 C.3       1 0XZ501      0.0000 
     18 N16       -21.1720    6.2410   13.0230 N.4       1 0XZ501      0.0000 
     19 C14       -21.1950    4.6930   11.0970 C.3       1 0XZ501      0.0000 
     20 C15       -20.5100    4.3260    9.7760 C.3       1 0XZ501      0.0000 
     21 N10       -20.5900    5.5900    9.0610 N.3       1 0XZ501      0.0000 
     22 C3        -21.6660    6.0240    8.2730 C.ar      1 0XZ501      0.0000 
     23 N5        -21.6200    7.3640    7.9470 N.ar      1 0XZ501      0.0000 
     24 C6        -22.6390    7.9730    7.2530 C.ar      1 0XZ501      0.0000 
     25 N4        -23.7110    7.2450    6.8310 N.ar      1 0XZ501      0.0000 
     26 C1        -22.7820    5.2800    7.8780 C.ar      1 0XZ501      0.0000 
     27 C9        -23.2330    3.9630    7.9850 C.2       1 0XZ501      0.0000 
     28 C8        -24.4320    3.8200    7.3100 C.2       1 0XZ501      0.0000 
     29 N7        -24.7380    5.0480    6.8510 N.pl3     1 0XZ501      0.0000 
     30 C2        -23.7630    5.9140    7.1610 C.ar      1 0XZ501      0.0000 
     31 H         -18.6577   -0.1633   10.9452 H         1 0XZ501      0.0000 
     32 H         -19.3781    1.4250   12.6268 H         1 0XZ501      0.0000 
     33 H         -14.8852    1.6550   10.8528 H         1 0XZ501      0.0000 
     34 H         -15.5889    3.2236   12.5602 H         1 0XZ501      0.0000 
     35 H         -17.2195    4.1005   14.0153 H         1 0XZ501      0.0000 
     36 H         -17.5276    2.0448   15.4043 H         1 0XZ501      0.0000 
     37 H         -19.2187    1.9768   14.8794 H         1 0XZ501      0.0000 
     38 H         -19.1236    2.9398   17.0843 H         1 0XZ501      0.0000 
     39 H         -19.6600    4.1654   15.9224 H         1 0XZ501      0.0000 
     40 H         -20.1055    3.8362   13.6413 H         1 0XZ501      0.0000 
     41 H         -19.3443    7.6195   11.4116 H         1 0XZ501      0.0000 
     42 H         -21.0116    7.5592   10.8145 H         1 0XZ501      0.0000 
     43 H         -18.6249    6.0982    9.6523 H         1 0XZ501      0.0000 
     44 H         -19.5467    7.4236    8.9219 H         1 0XZ501      0.0000 
     45 H         -22.1880    5.0815   10.8971 H         1 0XZ501      0.0000 
     46 H         -21.2704    3.8120   11.7255 H         1 0XZ501      0.0000 
     47 H         -21.0737    3.5667    9.3010 H         1 0XZ501      0.0000 
     48 H         -19.5089    4.0490    9.9784 H         1 0XZ501      0.0000 
     49 H         -22.5865    8.9889    7.0530 H         1 0XZ501      0.0000 
     50 H         -22.7741    3.2656    8.4582 H         1 0XZ501      0.0000 
     51 H         -24.9164    3.0189    7.2059 H         1 0XZ501      0.0000 
     52 H         -25.5559    5.2729    6.3615 H         1 0XZ501      0.0000 
     53 H         -20.6745    6.9170   13.5666 H         1 0XZ501      0.0000 
     54 H         -22.0320    6.6667   12.7415 H         1 0XZ501      0.0000 
     55 H         -21.4055    5.4862   13.6360 H         1 0XZ501      0.0000 
     56 H         -17.6873    4.3701   17.6395 H         1 0XZ501      0.0000 
@<TRIPOS>BOND
     1    2    1 1    
     2    3    2 ar   
     3    5    2 ar   
     4    4    3 ar   
     5   31    3 1    
     6    7    4 ar   
     7   32    4 1    
     8    6    5 ar   
     9   33    5 1    
    10    7    6 ar   
    11   34    6 1    
    12    8    7 1    
    13    9    8 1    
    14   12    8 1    
    15   35    8 1    
    16   10    9 1    
    17   36    9 1    
    18   37    9 1    
    19   11   10 1    
    20   38   10 1    
    21   39   10 1    
    22   56   11 1    
    23   13   12 am   
    24   40   12 1    
    25   14   13 2    
    26   15   13 1    
    27   16   15 1    
    28   18   15 1    
    29   19   15 1    
    30   17   16 1    
    31   41   16 1    
    32   42   16 1    
    33   21   17 1    
    34   43   17 1    
    35   44   17 1    
    36   53   18 1    
    37   54   18 1    
    38   55   18 1    
    39   20   19 1    
    40   45   19 1    
    41   46   19 1    
    42   21   20 1    
    43   47   20 1    
    44   48   20 1    
    45   22   21 1    
    46   23   22 ar   
    47   26   22 ar   
    48   24   23 ar   
    49   25   24 ar   
    50   49   24 1    
    51   30   25 ar   
    52   27   26 1    
    53   30   26 ar   
    54   28   27 2    
    55   50   27 1    
    56   29   28 1    
    57   51   28 1    
    58   30   29 1    
    59   52   29 1    
@<TRIPOS>SUBSTRUCTURE
     1 0XZ501      1 GROUP   
@<TRIPOS>SET

