#    Name: 4n4t_2GV_1_INTS_M
#    Modification time : Tue Mar 25 12:43:38 2014

@<TRIPOS>MOLECULE
4n4t_2GV_1_INTS_M
   70     0     9     0     0
SMALL
NO_CHARGES


@<TRIPOS>ATOM
      1 CA         -6.1980   47.6915   32.5905 C.3       3 GLC5        0.0000 
      2 CA         -6.6190   46.7990   30.8230 C.3       9 GLL5        0.0000 
      3 CA         -5.7770   48.5840   34.3580 C.3       6 GLP5        0.0000 
      4 CA         -3.5695   45.6940   31.5810 C.3       3 GLC5        0.0000 
      5 CA         -5.5650   45.7910   30.6860 C.3       9 GLL5        0.0000 
      6 CA         -1.5740   45.5970   32.4760 C.3       6 GLP5        0.0000 
      7 CA         -2.8840   47.6650   25.6570 C.3       3 GLC5        0.0000 
      8 CA         -4.2930   46.8490   26.4120 C.3       9 GLL5        0.0000 
      9 CA         -1.4750   48.4810   24.9020 C.3       6 GLP5        0.0000 
     10 CA         -4.2615   47.2770   23.9675 C.3       3 GLC5        0.0000 
     11 CA         -5.2800   45.4350   24.6970 C.3       9 GLL5        0.0000 
     12 CA         -3.2430   49.1190   23.2380 C.3       6 GLP5        0.0000 
     13 N          -3.0445   41.9705   25.7255 N.am      2 SEC2        0.0000 
     14 N          -4.0010   42.1940   27.0070 N.am      8 SEL2        0.0000 
     15 N          -2.0880   41.7470   24.4440 N.am      5 SEP2        0.0000 
     16 CA         -9.0150   43.6215   24.7595 C.3       3 GLC5        0.0000 
     17 CA         -8.3450   43.0950   26.7280 C.3       9 GLL5        0.0000 
     18 CA         -9.6850   44.1480   22.7910 C.3       6 GLP5        0.0000 
     19 CA         -6.1605   41.7090   29.6755 C.3       3 GLC5        0.0000 
     20 CA         -6.5870   41.3870   27.5280 C.3       9 GLL5        0.0000 
     21 CA         -5.7340   42.0310   31.8230 C.3       6 GLP5        0.0000 
     22 CA         -7.4490   38.8350   28.8985 C.3       3 GLC5        0.0000 
     23 CA         -7.5430   40.3980   27.6550 C.3       9 GLL5        0.0000 
     24 CA         -7.3550   37.2720   30.1420 C.3       6 GLP5        0.0000 
     25 CA        -12.1010   37.0375   25.9895 C.3       3 GLC5        0.0000 
     26 CA        -11.5980   37.4560   27.7780 C.3       9 GLL5        0.0000 
     27 CA        -12.6040   36.6190   24.2010 C.3       6 GLP5        0.0000 
     28 N         -10.3475   36.7055   25.7650 N.am      2 SEC2        0.0000 
     29 N         -10.4590   37.3110   27.0120 N.am      8 SEL2        0.0000 
     30 N         -10.2360   36.1000   24.5180 N.am      5 SEP2        0.0000 
     31 CA         -9.1290   36.4350   26.1925 C.3       3 GLC5        0.0000 
     32 CA         -9.5630   38.3140   26.7890 C.3       9 GLL5        0.0000 
     33 CA         -8.6950   34.5560   25.5960 C.3       6 GLP5        0.0000 
     34 CA        -10.3960   37.4315   25.1615 C.3       3 GLC5        0.0000 
     35 CA        -11.2290   36.5490   23.5340 C.3       6 GLP5        0.0000 
     36 CA        -13.3485   37.8615   30.6635 C.3       3 GLC5        0.0000 
     37 CA        -13.1950   39.0690   29.1340 C.3       9 GLL5        0.0000 
     38 CA        -13.5020   36.6540   32.1930 C.3       6 GLP5        0.0000 
     39 O         -11.5755   35.0295   27.4990 O.2       1 ALC1        0.0000 
     40 O         -12.2590   36.3120   27.8890 O.2       7 ALL1        0.0000 
     41 O         -10.8920   33.7470   27.1090 O.2       4 ALP1        0.0000 
     42 CA         -6.7065   45.2710   32.2237 C.3       3 GLC5        0.0000 
     43 CA         -7.3210   44.2470   33.6930 C.3       6 GLP5        0.0000 
     44 CA         -6.0041   48.5837   29.7085 C.3       3 GLC5        0.0000 
     45 CA         -5.0040   50.3020   29.4690 C.3       6 GLP5        0.0000 
     46 CA         -5.6043   43.7635   30.9305 C.3       3 GLC5        0.0000 
     47 CA         -3.4460   45.1756   24.4345 C.3       3 GLC5        0.0000 
     48 CA         -1.9310   44.5350   23.3790 C.3       6 GLP5        0.0000 
     49 CA         -5.6950   39.9582   26.3483 C.3       3 GLC5        0.0000 
     50 CA         -4.3250   39.0240   25.1050 C.3       6 GLP5        0.0000 
     51 CA        -10.8890   41.5285   26.3668 C.3       3 GLC5        0.0000 
     52 CA         -8.9290   40.7310   27.3160 C.3       9 GLL5        0.0000 
     53 CA        -12.6500   41.6540   25.6460 C.3       6 GLP5        0.0000 
     54 CA        -10.3878   39.9818   29.8325 C.3       3 GLC5        0.0000 
     55 CA         -9.8530   39.6090   27.4280 C.3       9 GLL5        0.0000 
     56 CA        -10.3330   40.2730   31.8460 C.3       6 GLP5        0.0000 
     57 CA        -11.5463   40.6723   26.7325 C.3       3 GLC5        0.0000 
     58 CA        -11.4555   39.5838   30.3113 C.3       3 GLC5        0.0000 
     59 CA        -11.9610   38.7200   28.4190 C.3       9 GLL5        0.0000 
     60 CA        -10.2248   37.2895   29.1172 C.3       3 GLC5        0.0000 
     61 CA         -8.6700   36.4910   30.1360 C.3       6 GLP5        0.0000 
     62 CA        -13.2555   39.9498   27.4248 C.3       3 GLC5        0.0000 
     63 CA        -13.9330   41.0050   26.0730 C.3       6 GLP5        0.0000 
     64 CA         -9.3364   37.7466   28.7200 C.3       3 GLC5        0.0000 
     65 CA        -11.0320   39.7720   28.2100 C.3       9 GLL5        0.0000 
     66 CA        -14.4157   37.9600   31.1328 C.3       3 GLC5        0.0000 
     67 CA        -14.6240   40.6110   30.4240 C.3       9 GLL5        0.0000 
     68 CA        -15.1487   40.3725   28.4372 C.3       3 GLC5        0.0000 
     69 CA        -15.4830   38.3970   29.7250 C.3       9 GLL5        0.0000 
     70 CA        -14.9680   41.4790   26.8020 C.3       6 GLP5        0.0000 
@<TRIPOS>BOND
@<TRIPOS>SUBSTRUCTURE
     1 ALC1       39 GROUP        1 X    ALC  0     ROOT ALC X 1
     2 SEC2       13 GROUP        1 X    SEC  0     **** SEC X 2
     3 GLC5        1 GROUP        1 X    GLC  0     **** GLC X 6
     4 ALP1       41 GROUP        1 Y    ALP  0     ROOT ALP Y 8
     5 SEP2       15 GROUP        1 Y    SEP  0     **** SEP Y 9
     6 GLP5        3 GROUP        1 Y    GLP  0     **** GLP Y 13
     7 ALL1       40 GROUP        1 Z    ALL  0     ROOT ALL Z 15
     8 SEL2       14 GROUP        1 Z    SEL  0     **** SEL Z 16
     9 GLL5        2 GROUP        1 Z    GLL  0     **** GLL Z 20
@<TRIPOS>SET

