#    Name: 4n4t_2GV_1_ligand
#    Modification time : Tue Mar 25 12:43:38 2014

@<TRIPOS>MOLECULE
4n4t_2GV_1_ligand
   56    60     1     0     0
SMALL
NO_CHARGES


@<TRIPOS>ATOM
      1 C12        -7.2950   46.6320   28.4240 C.ar      1 2GV1402     0.0000 
      2 C13        -7.4840   47.2320   29.7220 C.ar      1 2GV1402     0.0000 
      3 C14        -6.6190   46.7990   30.8230 C.ar      1 2GV1402     0.0000 
      4 C15        -5.5650   45.7910   30.6860 C.ar      1 2GV1402     0.0000 
      5 C16        -5.3840   45.2010   29.3900 C.ar      1 2GV1402     0.0000 
      6 C17        -6.2560   45.6300   28.2730 C.ar      1 2GV1402     0.0000 
      7 C7         -6.1720   45.0680   26.9140 C.3       1 2GV1402     0.0000 
      8 C8         -4.9910   45.5460   26.1540 C.3       1 2GV1402     0.0000 
      9 C9         -4.2930   46.8490   26.4120 C.3       1 2GV1402     0.0000 
     10 C10        -5.2800   45.4350   24.6970 C.3       1 2GV1402     0.0000 
     11 O1         -3.9980   44.3890   26.6200 O.3       1 2GV1402     0.0000 
     12 C11        -4.6880   43.1960   26.8960 C.2       1 2GV1402     0.0000 
     13 O2         -4.0010   42.1940   27.0070 O.2       1 2GV1402     0.0000 
     14 N2         -6.0190   43.5770   26.9710 N.am      1 2GV1402     0.0000 
     15 C18        -8.3450   43.0950   26.7280 C.ar      1 2GV1402     0.0000 
     16 C19        -6.9900   42.7030   27.0710 C.ar      1 2GV1402     0.0000 
     17 C20        -6.5870   41.3870   27.5280 C.ar      1 2GV1402     0.0000 
     18 C21        -7.5430   40.3980   27.6550 C.ar      1 2GV1402     0.0000 
     19 C5         -8.9290   40.7310   27.3160 C.ar      1 2GV1402     0.0000 
     20 C22        -9.3270   42.0750   26.8590 C.ar      1 2GV1402     0.0000 
     21 C1         -9.8530   39.6090   27.4280 C.ar      1 2GV1402     0.0000 
     22 C23       -11.0320   39.7720   28.2100 C.ar      1 2GV1402     0.0000 
     23 C24       -11.9610   38.7200   28.4190 C.ar      1 2GV1402     0.0000 
     24 C25       -11.5980   37.4560   27.7780 C.ar      1 2GV1402     0.0000 
     25 N3        -10.4590   37.3110   27.0120 N.ar      1 2GV1402     0.0000 
     26 C26        -9.5630   38.3140   26.7890 C.ar      1 2GV1402     0.0000 
     27 N1        -13.4210   40.3200   29.8140 N.ar      1 2GV1402     0.0000 
     28 C2        -14.6240   40.6110   30.4240 C.ar      1 2GV1402     0.0000 
     29 C3        -15.7280   39.6590   30.4160 C.ar      1 2GV1402     0.0000 
     30 C4        -15.4830   38.3970   29.7250 C.ar      1 2GV1402     0.0000 
     31 N5        -14.2650   38.1390   29.1210 N.ar      1 2GV1402     0.0000 
     32 C6        -13.1950   39.0690   29.1340 C.ar      1 2GV1402     0.0000 
     33 N4        -12.2590   36.3120   27.8890 N.pl3     1 2GV1402     0.0000 
     34 H          -7.8620   46.8963   27.6471 H         1 2GV1402     0.0000 
     35 H          -8.1823   47.9245   29.8771 H         1 2GV1402     0.0000 
     36 H          -6.7612   47.2302   31.7502 H         1 2GV1402     0.0000 
     37 H          -5.0085   45.5369   31.4626 H         1 2GV1402     0.0000 
     38 H          -4.6833   44.5072   29.2230 H         1 2GV1402     0.0000 
     39 H          -7.0650   45.2866   26.3506 H         1 2GV1402     0.0000 
     40 H          -8.5539   44.0044   26.4280 H         1 2GV1402     0.0000 
     41 H          -5.6093   41.2263   27.7435 H         1 2GV1402     0.0000 
     42 H          -7.3336   39.4666   27.9671 H         1 2GV1402     0.0000 
     43 H         -10.2966   42.2468   26.6462 H         1 2GV1402     0.0000 
     44 H         -11.2167   40.6956   28.6423 H         1 2GV1402     0.0000 
     45 H          -8.7415   38.2287   26.2329 H         1 2GV1402     0.0000 
     46 H         -14.7782   41.5087   30.9029 H         1 2GV1402     0.0000 
     47 H         -16.5828   39.8537   30.8480 H         1 2GV1402     0.0000 
     48 H         -16.2463   37.7118   29.7049 H         1 2GV1402     0.0000 
     49 H         -11.8892   35.5385   27.3744 H         1 2GV1402     0.0000 
     50 H         -13.0675   36.3263   28.4774 H         1 2GV1402     0.0000 
     51 H          -3.9329   46.8993   27.3435 H         1 2GV1402     0.0000 
     52 H          -3.5209   46.9859   25.7915 H         1 2GV1402     0.0000 
     53 H          -4.9070   47.6292   26.2926 H         1 2GV1402     0.0000 
     54 H          -4.5099   45.7473   24.1408 H         1 2GV1402     0.0000 
     55 H          -5.4727   44.4915   24.4274 H         1 2GV1402     0.0000 
     56 H          -6.0736   45.9831   24.4330 H         1 2GV1402     0.0000 
@<TRIPOS>BOND
     1    2    1 ar   
     2    6    1 ar   
     3   34    1 1    
     4    3    2 ar   
     5   35    2 1    
     6    4    3 ar   
     7   36    3 1    
     8    5    4 ar   
     9   37    4 1    
    10    6    5 ar   
    11   38    5 1    
    12    7    6 1    
    13    8    7 1    
    14   14    7 1    
    15   39    7 1    
    16    9    8 1    
    17   10    8 1    
    18   11    8 1    
    19   51    9 1    
    20   52    9 1    
    21   53    9 1    
    22   54   10 1    
    23   55   10 1    
    24   56   10 1    
    25   12   11 1    
    26   13   12 2    
    27   14   12 am   
    28   16   14 1    
    29   16   15 ar   
    30   20   15 ar   
    31   40   15 1    
    32   17   16 ar   
    33   18   17 ar   
    34   41   17 1    
    35   19   18 ar   
    36   42   18 1    
    37   20   19 ar   
    38   21   19 1    
    39   43   20 1    
    40   22   21 ar   
    41   26   21 ar   
    42   23   22 ar   
    43   44   22 1    
    44   24   23 ar   
    45   32   23 1    
    46   25   24 ar   
    47   33   24 1    
    48   26   25 ar   
    49   45   26 1    
    50   28   27 ar   
    51   32   27 ar   
    52   29   28 ar   
    53   46   28 1    
    54   30   29 ar   
    55   47   29 1    
    56   31   30 ar   
    57   48   30 1    
    58   32   31 ar   
    59   49   33 1    
    60   50   33 1    
@<TRIPOS>SUBSTRUCTURE
     1 2GV1402     1 GROUP   
@<TRIPOS>SET

