#    Name: 3zxh_E41_1_INTS_M
#    Modification time : Tue Mar 25 04:04:11 2014

@<TRIPOS>MOLECULE
3zxh_E41_1_INTS_M
   56     0    12     0     0
SMALL
NO_CHARGES


@<TRIPOS>ATOM
      1 Zn         -2.1600   25.1130   53.9045 Zn        3 ZIC7        0.0000 
      2 Zn         -2.5380   24.5660   54.7530 Zn       11 ZIL7        0.0000 
      3 Zn         -1.7820   25.6600   53.0560 Zn        7 ZIP7        0.0000 
      4 O          -3.0355   23.0200   55.1500 O.2       1 ALC1        0.0000 
      5 O          -2.5380   24.5660   54.7530 O.2       9 ALL1        0.0000 
      6 O          -3.5330   21.4740   55.5470 O.2       5 ALP1        0.0000 
      7 O          -3.5765   23.8420   54.6920 O.2       1 ALC1        0.0000 
      8 O          -4.6150   23.1180   54.6310 O.2       5 ALP1        0.0000 
      9 O          -3.3165   24.9365   57.0315 O.2       1 ALC1        0.0000 
     10 O          -2.6630   25.3820   55.8810 O.2       9 ALL1        0.0000 
     11 O          -3.9700   24.4910   58.1820 O.2       5 ALP1        0.0000 
     12 Zn         -2.4045   27.2155   54.8905 Zn        3 ZIC7        0.0000 
     13 Zn         -3.0270   28.7710   56.7250 Zn       11 ZIL7        0.0000 
     14 Zn         -1.8435   26.3355   53.8060 Zn        3 ZIC7        0.0000 
     15 Zn         -1.9050   27.0110   54.5560 Zn       11 ZIL7        0.0000 
     16 CA         -1.6150   28.7630   60.1710 C.3       4 GLC5        0.0000 
     17 CA         -0.7500   28.4810   58.7200 C.3      12 GLL5        0.0000 
     18 CA         -2.4800   29.0450   61.6220 C.3       8 GLP5        0.0000 
     19 CA         -0.6345   24.6760   58.2735 C.3       4 GLC5        0.0000 
     20 CA          0.0630   26.5620   57.3490 C.3      12 GLL5        0.0000 
     21 CA         -1.3320   22.7900   59.1980 C.3       8 GLP5        0.0000 
     22 N          -5.8645   27.5790   59.1630 N.am      2 SEC2        0.0000 
     23 N          -4.8620   27.8000   58.1900 N.am     10 SEL2        0.0000 
     24 N          -6.8670   27.3580   60.1360 N.am      6 SEP2        0.0000 
     25 CA         -6.1785   24.6020   56.7800 C.3       4 GLC5        0.0000 
     26 CA         -5.6550   26.4900   55.7170 C.3      12 GLL5        0.0000 
     27 CA         -6.7020   22.7140   57.8430 C.3       8 GLP5        0.0000 
     28 CA         -8.7460   24.8060   51.7470 C.3       4 GLC5        0.0000 
     29 CA         -7.5470   26.6330   51.2340 C.3      12 GLL5        0.0000 
     30 CA         -9.9450   22.9790   52.2600 C.3       8 GLP5        0.0000 
     31 CA         -5.0700   29.4680   51.5515 C.3       4 GLC5        0.0000 
     32 CA         -6.7610   28.6910   52.2670 C.3      12 GLL5        0.0000 
     33 CA         -3.3790   30.2450   50.8360 C.3       8 GLP5        0.0000 
     34 CA         -2.3435   30.0330   53.6700 C.3       4 GLC5        0.0000 
     35 CA         -2.6110   29.7590   55.7110 C.3      12 GLL5        0.0000 
     36 CA         -2.0760   30.3070   51.6290 C.3       8 GLP5        0.0000 
     37 CA         -7.1965   26.4870   56.7733 C.3       4 GLC5        0.0000 
     38 CA         -8.4600   26.8160   58.3750 C.3       8 GLP5        0.0000 
     39 CA         -5.2820   25.2905   52.8510 C.3       4 GLC5        0.0000 
     40 CA         -6.2110   25.8260   54.6260 C.3      12 GLL5        0.0000 
     41 CA         -4.1660   24.3950   51.6480 C.3       8 GLP5        0.0000 
     42 CA         -7.6532   28.2824   55.4763 C.3       4 GLC5        0.0000 
     43 CA         -6.3970   27.9610   53.4420 C.3      12 GLL5        0.0000 
     44 CA         -9.2890   28.4610   56.6850 C.3       8 GLP5        0.0000 
     45 CA         -8.0040   24.7147   53.9177 C.3       4 GLC5        0.0000 
     46 CA         -9.2170   23.3820   54.6190 C.3       8 GLP5        0.0000 
     47 CA         -6.1176   25.7930   51.0011 C.3       4 GLC5        0.0000 
     48 CA         -7.1840   25.9090   52.3790 C.3      12 GLL5        0.0000 
     49 CA         -4.8730   24.4450   50.5020 C.3       8 GLP5        0.0000 
     50 CA         -6.8040   30.3710   51.3218 C.3       4 GLC5        0.0000 
     51 CA         -7.3590   28.0110   51.1940 C.3      12 GLL5        0.0000 
     52 CA         -6.5480   32.3910   50.9130 C.3       8 GLP5        0.0000 
     53 CA         -8.4770   29.4890   51.4323 C.3       4 GLC5        0.0000 
     54 CA         -9.8940   30.6270   51.1340 C.3       8 GLP5        0.0000 
     55 CA         -1.5965   31.0980   53.2993 C.3       4 GLC5        0.0000 
     56 CA         -1.8120   32.0820   55.2310 C.3      12 GLL5        0.0000 
@<TRIPOS>BOND
@<TRIPOS>SUBSTRUCTURE
     1 ALC1        4 GROUP        1 X    ALC  0     ROOT ALC X 1
     2 SEC2       22 GROUP        1 X    SEC  0     **** SEC X 2
     3 ZIC7        1 GROUP        1 X    ZIC  0     **** ZIC X 5
     4 GLC5       16 GROUP        1 X    GLC  0     **** GLC X 6
     5 ALP1        6 GROUP        1 Y    ALP  0     ROOT ALP Y 8
     6 SEP2       24 GROUP        1 Y    SEP  0     **** SEP Y 9
     7 ZIP7        3 GROUP        1 Y    ZIP  0     **** ZIP Y 12
     8 GLP5       18 GROUP        1 Y    GLP  0     **** GLP Y 13
     9 ALL1        5 GROUP        1 Z    ALL  0     ROOT ALL Z 15
    10 SEL2       23 GROUP        1 Z    SEL  0     **** SEL Z 16
    11 ZIL7        2 GROUP        1 Z    ZIL  0     **** ZIL Z 19
    12 GLL5       17 GROUP        1 Z    GLL  0     **** GLL Z 20
@<TRIPOS>SET

