#    Name: 3zxh_E41_1_ligand
#    Modification time : Tue Mar 25 04:04:11 2014

@<TRIPOS>MOLECULE
3zxh_E41_1_ligand
   55    56     1     0     0
SMALL
NO_CHARGES


@<TRIPOS>ATOM
      1 O1         -2.5380   24.5660   54.7530 O.3       1 E41401      0.0000 
      2 N1         -2.6630   25.3820   55.8810 N.am      1 E41401      0.0000 
      3 N          -3.0270   28.7710   56.7250 N.pl3     1 E41401      0.0000 
      4 CA         -2.2750   27.5360   56.9150 C.3       1 E41401      0.0000 
      5 C          -2.2940   26.6300   55.6900 C.2       1 E41401      0.0000 
      6 O          -1.9050   27.0110   54.5560 O.2       1 E41401      0.0000 
      7 CB         -0.8190   27.8130   57.3380 C.3       1 E41401      0.0000 
      8 CG1        -0.7500   28.4810   58.7200 C.3       1 E41401      0.0000 
      9 CG2         0.0630   26.5620   57.3490 C.3       1 E41401      0.0000 
     10 S1         -4.6790   28.6660   57.0250 S.o2      1 E41401      0.0000 
     11 O3         -4.8620   27.8000   58.1900 O.2       1 E41401      0.0000 
     12 O4         -5.1770   30.0400   57.0660 O.2       1 E41401      0.0000 
     13 C6         -5.4510   27.8640   55.6480 C.ar      1 E41401      0.0000 
     14 C7         -5.6550   26.4900   55.7170 C.ar      1 E41401      0.0000 
     15 C8         -6.2110   25.8260   54.6260 C.ar      1 E41401      0.0000 
     16 C9         -5.8250   28.6290   54.5380 C.ar      1 E41401      0.0000 
     17 C10        -6.3970   27.9610   53.4420 C.ar      1 E41401      0.0000 
     18 C11        -6.5850   26.5460   53.4820 C.ar      1 E41401      0.0000 
     19 C12        -7.1840   25.9090   52.3790 C.ar      1 E41401      0.0000 
     20 C13        -7.5470   26.6330   51.2340 C.ar      1 E41401      0.0000 
     21 C14        -7.3590   28.0110   51.1940 C.ar      1 E41401      0.0000 
     22 C15        -6.7610   28.6910   52.2670 C.ar      1 E41401      0.0000 
     23 C16        -2.2080   31.1040   56.3350 C.3       1 E41401      0.0000 
     24 C17        -1.8120   32.0820   55.2310 C.3       1 E41401      0.0000 
     25 C18        -2.6110   29.7590   55.7110 C.3       1 E41401      0.0000 
     26 C19        -1.8830   33.5310   55.7510 C.3       1 E41401      0.0000 
     27 C20        -0.4220   31.6960   54.7080 C.3       1 E41401      0.0000 
     28 H          -3.0091   25.0074   56.7435 H         1 E41401      0.0000 
     29 H          -2.7283   26.9567   57.7477 H         1 E41401      0.0000 
     30 H          -0.3839   28.5207   56.6185 H         1 E41401      0.0000 
     31 H          -5.3993   25.9707   56.5611 H         1 E41401      0.0000 
     32 H          -6.3488   24.8095   54.6551 H         1 E41401      0.0000 
     33 H          -5.6895   29.6293   54.5221 H         1 E41401      0.0000 
     34 H          -7.3579   24.8933   52.4155 H         1 E41401      0.0000 
     35 H          -7.9507   26.1420   50.4286 H         1 E41401      0.0000 
     36 H          -7.6622   28.5471   50.3646 H         1 E41401      0.0000 
     37 H          -6.5841   29.6887   52.2210 H         1 E41401      0.0000 
     38 H          -3.0474   31.5042   56.8893 H         1 E41401      0.0000 
     39 H          -1.3681   30.9496   57.0003 H         1 E41401      0.0000 
     40 H          -2.5255   31.9708   54.4186 H         1 E41401      0.0000 
     41 H          -3.4278   29.9454   54.9974 H         1 E41401      0.0000 
     42 H          -1.7538   29.3805   55.1338 H         1 E41401      0.0000 
     43 H           0.1931   28.6655   58.9967 H         1 E41401      0.0000 
     44 H          -1.2360   29.3548   58.7348 H         1 E41401      0.0000 
     45 H          -1.1570   27.9071   59.4306 H         1 E41401      0.0000 
     46 H           0.9999   26.7706   57.6297 H         1 E41401      0.0000 
     47 H          -0.2844   25.8682   57.9798 H         1 E41401      0.0000 
     48 H           0.1155   26.1367   56.4455 H         1 E41401      0.0000 
     49 H          -1.2679   33.6782   56.5256 H         1 E41401      0.0000 
     50 H          -1.6285   34.1919   55.0449 H         1 E41401      0.0000 
     51 H          -2.8039   33.7706   56.0584 H         1 E41401      0.0000 
     52 H           0.2687   31.7281   55.4304 H         1 E41401      0.0000 
     53 H          -0.4106   30.7692   54.3325 H         1 E41401      0.0000 
     54 H          -0.1148   32.3104   53.9813 H         1 E41401      0.0000 
     55 H          -3.0052   23.7159   54.9957 H         1 E41401      0.0000 
@<TRIPOS>BOND
     1    2    1 1    
     2   55    1 1    
     3    5    2 am   
     4   28    2 1    
     5    4    3 1    
     6   10    3 1    
     7   25    3 1    
     8    5    4 1    
     9    7    4 1    
    10   29    4 1    
    11    6    5 2    
    12    8    7 1    
    13    9    7 1    
    14   30    7 1    
    15   43    8 1    
    16   44    8 1    
    17   45    8 1    
    18   46    9 1    
    19   47    9 1    
    20   48    9 1    
    21   11   10 2    
    22   12   10 2    
    23   13   10 1    
    24   14   13 ar   
    25   16   13 ar   
    26   15   14 ar   
    27   31   14 1    
    28   18   15 ar   
    29   32   15 1    
    30   17   16 ar   
    31   33   16 1    
    32   18   17 ar   
    33   22   17 ar   
    34   19   18 ar   
    35   20   19 ar   
    36   34   19 1    
    37   21   20 ar   
    38   35   20 1    
    39   22   21 ar   
    40   36   21 1    
    41   37   22 1    
    42   24   23 1    
    43   25   23 1    
    44   38   23 1    
    45   39   23 1    
    46   26   24 1    
    47   27   24 1    
    48   40   24 1    
    49   41   25 1    
    50   42   25 1    
    51   49   26 1    
    52   50   26 1    
    53   51   26 1    
    54   52   27 1    
    55   53   27 1    
    56   54   27 1    
@<TRIPOS>SUBSTRUCTURE
     1 E41401      1 GROUP   
@<TRIPOS>SET

