#    Name: 2r97_FMN_1_INTS_M
#    Modification time : Mon Mar 24 23:28:13 2014

@<TRIPOS>MOLECULE
2r97_FMN_1_INTS_M
   65     0     9     0     0
SMALL
NO_CHARGES


@<TRIPOS>ATOM
      1 N         -10.3205   14.7340   -5.7455 N.am      2 SEC2        0.0000 
      2 N          -9.1640   14.9500   -4.7820 N.am      8 SEL2        0.0000 
      3 N         -11.4770   14.5180   -6.7090 N.am      5 SEP2        0.0000 
      4 N          -9.9840   14.2265   -6.7005 N.am      2 SEC2        0.0000 
      5 N          -8.4910   13.9350   -6.6920 N.am      8 SEL2        0.0000 
      6 N          -9.1745   14.5685   -7.7940 N.am      2 SEC2        0.0000 
      7 N          -9.8580   15.2020   -8.8960 N.am      5 SEP2        0.0000 
      8 N          -8.5420   13.3825   -8.1400 N.am      2 SEC2        0.0000 
      9 N          -8.5930   12.8300   -9.5880 N.am      5 SEP2        0.0000 
     10 O          -6.5330   12.6300   -5.4395 O.2       1 ALC1        0.0000 
     11 O          -7.1120   13.7720   -4.8910 O.2       7 ALL1        0.0000 
     12 O          -5.9540   11.4880   -5.9880 O.2       4 ALP1        0.0000 
     13 N          -6.8445   14.2285   -0.7130 N.am      2 SEC2        0.0000 
     14 N          -7.4780   15.2660   -1.5220 N.am      8 SEL2        0.0000 
     15 N          -6.2110   13.1910    0.0960 N.am      5 SEP2        0.0000 
     16 CA         -6.7130   17.6940    2.2005 C.3       3 GLC5        0.0000 
     17 CA         -8.6020   17.7980    2.5160 C.3       9 GLL5        0.0000 
     18 CA         -4.8240   17.5900    1.8850 C.3       6 GLP5        0.0000 
     19 CA         -8.2130   17.4765    4.2840 C.3       3 GLC5        0.0000 
     20 CA         -7.8240   17.1550    6.0520 C.3       6 GLP5        0.0000 
     21 CA         -7.6325   19.7605    2.0855 C.3       3 GLC5        0.0000 
     22 CA         -6.6630   21.7230    1.6550 C.3       6 GLP5        0.0000 
     23 CA        -11.4585   15.9830   -5.4155 C.3       3 GLC5        0.0000 
     24 CA        -11.2130   16.2010   -3.4040 C.3       9 GLL5        0.0000 
     25 CA        -11.7040   15.7650   -7.4270 C.3       6 GLP5        0.0000 
     26 O         -10.9645   13.3280   -2.1260 O.2       1 ALC1        0.0000 
     27 O         -11.7550   13.8650   -3.1430 O.2       7 ALL1        0.0000 
     28 O         -10.1740   12.7910   -1.1090 O.2       4 ALP1        0.0000 
     29 N         -15.0850   12.3760   -4.5860 N.am      2 SEC2        0.0000 
     30 N         -14.3360   13.2160   -3.7790 N.am      8 SEL2        0.0000 
     31 N         -15.8340   11.5360   -5.3930 N.am      5 SEP2        0.0000 
     32 CA        -17.5700   14.3920   -4.2415 C.3       3 GLC5        0.0000 
     33 CA        -15.9490   14.6410   -2.9030 C.3       9 GLL5        0.0000 
     34 CA        -19.1910   14.1430   -5.5800 C.3       6 GLP5        0.0000 
     35 CA        -15.8885   15.0775   -5.0280 C.3       3 GLC5        0.0000 
     36 CA        -15.8280   15.5140   -7.1530 C.3       6 GLP5        0.0000 
     37 N         -19.3505   15.5695   -1.0030 N.am      2 SEC2        0.0000 
     38 N         -18.8440   14.7340   -2.1790 N.am      8 SEL2        0.0000 
     39 N         -19.8570   16.4050    0.1730 N.am      5 SEP2        0.0000 
     40 N         -19.9110   13.9905   -2.7730 N.am      2 SEC2        0.0000 
     41 N         -20.9780   13.2470   -3.3670 N.am      5 SEP2        0.0000 
     42 N         -18.9535   14.9885   -3.4700 N.am      2 SEC2        0.0000 
     43 N         -19.0630   15.2430   -4.7610 N.am      5 SEP2        0.0000 
     44 N         -19.7065   12.5000   -0.6785 N.am      2 SEC2        0.0000 
     45 N         -18.6280   12.5220   -1.2230 N.am      8 SEL2        0.0000 
     46 N         -20.7850   12.4780   -0.1340 N.am      5 SEP2        0.0000 
     47 N         -19.2530   11.5755   -2.0465 N.am      2 SEC2        0.0000 
     48 N         -19.8780   10.6290   -2.8700 N.am      5 SEP2        0.0000 
     49 N         -18.1955   14.4760    0.9165 N.am      2 SEC2        0.0000 
     50 N         -17.3600   14.4450   -0.2700 N.am      8 SEL2        0.0000 
     51 N         -19.0310   14.5070    2.1030 N.am      5 SEP2        0.0000 
     52 N         -18.6085   15.4250   -0.0485 N.am      2 SEC2        0.0000 
     53 CA         -8.3377   14.5140    0.4677 C.3       3 GLC5        0.0000 
     54 CA         -8.3980   16.0290   -0.8160 C.3       9 GLL5        0.0000 
     55 CA         -8.4050   12.8260    1.0890 C.3       6 GLP5        0.0000 
     56 CA         -9.8505   15.9897    2.0072 C.3       3 GLC5        0.0000 
     57 CA         -9.0720   17.1530    1.2250 C.3       9 GLL5        0.0000 
     58 CA        -10.8640   14.5040    2.1440 C.3       6 GLP5        0.0000 
     59 CA        -10.8560   16.1825    1.5650 C.3       3 GLC5        0.0000 
     60 CA        -10.2700   17.5660    0.5970 C.3       9 GLL5        0.0000 
     61 CA        -10.4570   15.6610    0.5260 C.3       3 GLC5        0.0000 
     62 CA        -10.5140   17.2000   -0.7350 C.3       9 GLL5        0.0000 
     63 CA        -14.7477   13.1330   -1.5730 C.3       3 GLC5        0.0000 
     64 CA        -14.4940   14.2750   -2.8670 C.3       9 GLL5        0.0000 
     65 CA        -14.2740   11.8080   -0.2610 C.3       6 GLP5        0.0000 
@<TRIPOS>BOND
@<TRIPOS>SUBSTRUCTURE
     1 ALC1       10 GROUP        1 X    ALC  0     ROOT ALC X 1
     2 SEC2        1 GROUP        1 X    SEC  0     **** SEC X 2
     3 GLC5       16 GROUP        1 X    GLC  0     **** GLC X 6
     4 ALP1       12 GROUP        1 Y    ALP  0     ROOT ALP Y 8
     5 SEP2        3 GROUP        1 Y    SEP  0     **** SEP Y 9
     6 GLP5       18 GROUP        1 Y    GLP  0     **** GLP Y 13
     7 ALL1       11 GROUP        1 Z    ALL  0     ROOT ALL Z 15
     8 SEL2        2 GROUP        1 Z    SEL  0     **** SEL Z 16
     9 GLL5       17 GROUP        1 Z    GLL  0     **** GLL Z 20
@<TRIPOS>SET

