#    Name: 2r97_FMN_1_ligand
#    Modification time : Mon Mar 24 23:28:13 2014

@<TRIPOS>MOLECULE
2r97_FMN_1_ligand
   50    52     1     0     0
SMALL
NO_CHARGES


@<TRIPOS>ATOM
      1 N1         -9.1640   14.9500   -4.7820 N.2       1 FMN198      0.0000 
      2 C2         -8.2690   14.2000   -5.5010 C.2       1 FMN198      0.0000 
      3 O2         -8.4910   13.9350   -6.6920 O.2       1 FMN198      0.0000 
      4 N3         -7.1120   13.7720   -4.8910 N.am      1 FMN198      0.0000 
      5 C4         -6.8370   14.1090   -3.5630 C.2       1 FMN198      0.0000 
      6 O4         -6.1050   13.3470   -2.9270 O.2       1 FMN198      0.0000 
      7 C4A        -7.7410   14.8950   -2.8370 C.2       1 FMN198      0.0000 
      8 N5         -7.4780   15.2660   -1.5220 N.2       1 FMN198      0.0000 
      9 C5A        -8.3980   16.0290   -0.8160 C.ar      1 FMN198      0.0000 
     10 C6         -8.1430   16.3750    0.5090 C.ar      1 FMN198      0.0000 
     11 C7         -9.0720   17.1530    1.2250 C.ar      1 FMN198      0.0000 
     12 C7M        -8.6020   17.7980    2.5160 C.3       1 FMN198      0.0000 
     13 C8        -10.2700   17.5660    0.5970 C.ar      1 FMN198      0.0000 
     14 C8M       -11.4260   18.1560    1.3750 C.3       1 FMN198      0.0000 
     15 C9        -10.5140   17.2000   -0.7350 C.ar      1 FMN198      0.0000 
     16 C9A        -9.5860   16.4360   -1.4490 C.ar      1 FMN198      0.0000 
     17 N10        -9.8400   16.0590   -2.7860 N.pl3     1 FMN198      0.0000 
     18 C10        -8.9190   15.3070   -3.4630 C.2       1 FMN198      0.0000 
     19 C1'       -11.2130   16.2010   -3.4040 C.3       1 FMN198      0.0000 
     20 C2'       -12.1730   15.1850   -2.8080 C.3       1 FMN198      0.0000 
     21 O2'       -11.7550   13.8650   -3.1430 O.3       1 FMN198      0.0000 
     22 C3'       -13.6270   15.4840   -3.2040 C.3       1 FMN198      0.0000 
     23 O3'       -14.1080   16.5830   -2.4440 O.3       1 FMN198      0.0000 
     24 C4'       -14.4940   14.2750   -2.8670 C.3       1 FMN198      0.0000 
     25 O4'       -14.3360   13.2160   -3.7790 O.3       1 FMN198      0.0000 
     26 C5'       -15.9490   14.6410   -2.9030 C.3       1 FMN198      0.0000 
     27 O5'       -16.6640   13.5040   -2.4960 O.3       1 FMN198      0.0000 
     28 P         -17.8800   13.7720   -1.5100 P.3       1 FMN198      0.0000 
     29 O1P       -18.8440   14.7340   -2.1790 O.co2     1 FMN198      0.0000 
     30 O2P       -18.6280   12.5220   -1.2230 O.co2     1 FMN198      0.0000 
     31 O3P       -17.3600   14.4450   -0.2700 O.co2     1 FMN198      0.0000 
     32 H          -6.4317   13.1933   -5.4140 H         1 FMN198      0.0000 
     33 H          -7.2802   16.0660    0.9686 H         1 FMN198      0.0000 
     34 H         -11.3886   17.4989   -1.1911 H         1 FMN198      0.0000 
     35 H         -11.1462   16.0436   -4.4806 H         1 FMN198      0.0000 
     36 H         -11.5934   17.2058   -3.2199 H         1 FMN198      0.0000 
     37 H         -12.1150   15.3200   -1.7018 H         1 FMN198      0.0000 
     38 H         -13.6726   15.6598   -4.2483 H         1 FMN198      0.0000 
     39 H         -14.2624   13.9569   -1.8551 H         1 FMN198      0.0000 
     40 H         -16.2003   14.9453   -3.9193 H         1 FMN198      0.0000 
     41 H         -16.1054   15.4885   -2.2352 H         1 FMN198      0.0000 
     42 H          -8.2943   17.1172    3.1807 H         1 FMN198      0.0000 
     43 H          -7.8372   18.4235    2.3617 H         1 FMN198      0.0000 
     44 H          -9.3295   18.3268    2.9533 H         1 FMN198      0.0000 
     45 H         -11.1601   18.9884    1.8612 H         1 FMN198      0.0000 
     46 H         -12.1910   18.3971    0.7778 H         1 FMN198      0.0000 
     47 H         -11.7781   17.5169    2.0588 H         1 FMN198      0.0000 
     48 H         -11.3747   13.4915   -2.2969 H         1 FMN198      0.0000 
     49 H         -14.3612   16.1939   -1.5583 H         1 FMN198      0.0000 
     50 H         -13.3699   13.2379   -4.0359 H         1 FMN198      0.0000 
@<TRIPOS>BOND
     1    2    1 1    
     2   18    1 2    
     3    3    2 2    
     4    4    2 am   
     5    5    4 am   
     6   32    4 1    
     7    6    5 2    
     8    7    5 1    
     9    8    7 2    
    10   18    7 1    
    11    9    8 1    
    12   10    9 ar   
    13   16    9 ar   
    14   11   10 ar   
    15   33   10 1    
    16   12   11 1    
    17   13   11 ar   
    18   42   12 1    
    19   43   12 1    
    20   44   12 1    
    21   14   13 1    
    22   15   13 ar   
    23   45   14 1    
    24   46   14 1    
    25   47   14 1    
    26   16   15 ar   
    27   34   15 1    
    28   17   16 1    
    29   18   17 1    
    30   19   17 1    
    31   20   19 1    
    32   35   19 1    
    33   36   19 1    
    34   21   20 1    
    35   22   20 1    
    36   37   20 1    
    37   48   21 1    
    38   23   22 1    
    39   24   22 1    
    40   38   22 1    
    41   49   23 1    
    42   25   24 1    
    43   26   24 1    
    44   39   24 1    
    45   50   25 1    
    46   27   26 1    
    47   40   26 1    
    48   41   26 1    
    49   28   27 1    
    50   29   28 ar   
    51   30   28 ar   
    52   31   28 ar   
@<TRIPOS>SUBSTRUCTURE
     1 FMN198      1 GROUP   
@<TRIPOS>SET

