#    Name: 2ihv_TPP_2_INTS_M
#    Modification time : Tue Mar 25 18:10:32 2014

@<TRIPOS>MOLECULE
2ihv_TPP_2_INTS_M
   78     0     9     0     0
SMALL
NO_CHARGES


@<TRIPOS>ATOM
      1 N          15.3435   63.0555   33.5775 N.am      1 SEC2        0.0000 
      2 N          16.3980   61.9300   34.1260 N.am      7 SEL2        0.0000 
      3 N          14.2890   64.1810   33.0290 N.am      4 SEP2        0.0000 
      4 CA         16.4305   63.2805   35.3970 C.3       3 GLC5        0.0000 
      5 CA         17.6530   61.6220   34.6210 C.3       9 GLL5        0.0000 
      6 CA         15.2080   64.9390   36.1730 C.3       6 GLP5        0.0000 
      7 CA         20.2440   62.9980   34.9120 C.3       3 GLC5        0.0000 
      8 CA         18.9100   61.8270   33.8330 C.3       9 GLL5        0.0000 
      9 CA         21.5780   64.1690   35.9910 C.3       6 GLP5        0.0000 
     10 CA         20.0995   61.1200   35.5470 C.3       3 GLC5        0.0000 
     11 CA         21.2890   60.4130   37.2610 C.3       6 GLP5        0.0000 
     12 CA         18.3620   60.4090   33.0575 C.3       3 GLC5        0.0000 
     13 CA         17.8140   58.9910   32.2820 C.3       6 GLP5        0.0000 
     14 N          18.7495   59.9080   36.1470 N.am      1 SEC2        0.0000 
     15 N          17.7450   61.1000   35.8790 N.am      7 SEL2        0.0000 
     16 N          19.7540   58.7160   36.4150 N.am      4 SEP2        0.0000 
     17 CA         17.2920   58.9930   36.1485 C.3       3 GLC5        0.0000 
     18 CA         16.6150   60.8840   36.6500 C.3       9 GLL5        0.0000 
     19 CA         17.9690   57.1020   35.6470 C.3       6 GLP5        0.0000 
     20 CA         14.0000   61.2915   33.4735 C.3       3 GLC5        0.0000 
     21 CA         15.2480   61.7160   34.8850 C.3       9 GLL5        0.0000 
     22 CA         12.7520   60.8670   32.0620 C.3       6 GLP5        0.0000 
     23 CA         12.6600   62.2105   37.1770 C.3       3 GLC5        0.0000 
     24 CA         14.0450   60.9790   37.0250 C.3       9 GLL5        0.0000 
     25 CA         11.2750   63.4420   37.3290 C.3       6 GLP5        0.0000 
     26 CA         14.6265   62.9590   36.5990 C.3       3 GLC5        0.0000 
     27 CA         12.3295   60.5800   37.9580 C.3       3 GLC5        0.0000 
     28 CA         10.6140   60.1810   38.8910 C.3       6 GLP5        0.0000 
     29 CA         12.7230   59.6665   38.6855 C.3       3 GLC5        0.0000 
     30 CA         14.8320   59.1520   38.4800 C.3       9 GLL5        0.0000 
     31 CA         14.8760   56.0980   39.8565 C.3       3 GLC5        0.0000 
     32 CA         14.9140   57.5680   38.5730 C.3       9 GLL5        0.0000 
     33 CA         14.8380   54.6280   41.1400 C.3       6 GLP5        0.0000 
     34 CA         12.8800   59.7915   33.6670 C.3       3 GLC5        0.0000 
     35 CA         13.0080   58.7160   35.2720 C.3       9 GLL5        0.0000 
     36 CA         14.5860   58.0950   34.5950 C.3       3 GLC5        0.0000 
     37 CA         16.1640   57.4740   33.9180 C.3       6 GLP5        0.0000 
     38 CA         11.2685   57.5325   35.2450 C.3       3 GLC5        0.0000 
     39 CA          9.5290   56.3490   35.2180 C.3       6 GLP5        0.0000 
     40 CA         15.0185   56.7230   35.3290 C.3       3 GLC5        0.0000 
     41 CA         13.8730   55.9720   36.7400 C.3       9 GLL5        0.0000 
     42 CA         13.8985   54.9270   39.4175 C.3       3 GLC5        0.0000 
     43 CA         12.9590   55.2260   37.6950 C.3       9 GLL5        0.0000 
     44 CA         11.1880   55.0890   36.7825 C.3       3 GLC5        0.0000 
     45 CA          9.4170   54.9520   35.8700 C.3       6 GLP5        0.0000 
     46 Zn         11.6545   51.0255   36.6570 Zn        2 ZIC7        0.0000 
     47 Zn         12.6330   51.5910   36.4160 Zn        8 ZIL7        0.0000 
     48 Zn         10.6760   50.4600   36.8980 Zn        5 ZIP7        0.0000 
     49 N          13.0720   51.5415   35.0875 N.am      1 SEC2        0.0000 
     50 N          12.6330   51.5910   36.4160 N.am      7 SEL2        0.0000 
     51 N          13.5110   51.4920   33.7590 N.am      4 SEP2        0.0000 
     52 N          15.2440   53.0900   35.6055 N.am      1 SEC2        0.0000 
     53 N          14.7530   52.8080   36.8730 N.am      7 SEL2        0.0000 
     54 N          15.7350   53.3720   34.3380 N.am      4 SEP2        0.0000 
     55 N          16.0565   52.5500   37.0785 N.am      1 SEC2        0.0000 
     56 N          17.3600   52.2920   37.2840 N.am      4 SEP2        0.0000 
     57 N          12.7970   51.4050   42.2720 N.am      1 SEC2        0.0000 
     58 N          12.0020   51.3460   40.8070 N.am      7 SEL2        0.0000 
     59 N          13.5920   51.4640   43.7370 N.am      4 SEP2        0.0000 
     60 N          12.2430   53.7655   41.3555 N.am      1 SEC2        0.0000 
     61 N          11.4480   53.6200   40.1190 N.am      7 SEL2        0.0000 
     62 N          13.0380   53.9110   42.5920 N.am      4 SEP2        0.0000 
     63 N          10.4470   54.5060   40.3760 N.am      1 SEC2        0.0000 
     64 N           9.4460   55.3920   40.6330 N.am      4 SEP2        0.0000 
     65 Zn         10.7105   51.0695   37.8095 Zn        2 ZIC7        0.0000 
     66 Zn         10.7450   51.6790   38.7210 Zn        8 ZIL7        0.0000 
     67 N           9.8725   52.8430   38.4035 N.am      1 SEC2        0.0000 
     68 N          10.7450   51.6790   38.7210 N.am      7 SEL2        0.0000 
     69 N           9.0000   54.0070   38.0860 N.am      4 SEP2        0.0000 
     70 CA         18.0607   63.7408   33.8635 C.3       3 GLC5        0.0000 
     71 CA         17.8400   65.7570   33.5000 C.3       6 GLP5        0.0000 
     72 CA         15.4082   63.1591   35.9117 C.3       3 GLC5        0.0000 
     73 CA         16.4900   58.0035   39.6522 C.3       3 GLC5        0.0000 
     74 CA         18.1070   57.6470   40.7780 C.3       6 GLP5        0.0000 
     75 CA         16.2398   57.2907   36.7632 C.3       3 GLC5        0.0000 
     76 CA         11.6330   59.0600   36.8208 C.3       3 GLC5        0.0000 
     77 CA         13.7480   58.5800   36.5750 C.3       9 GLL5        0.0000 
     78 CA          9.8880   59.4720   37.7180 C.3       6 GLP5        0.0000 
@<TRIPOS>BOND
@<TRIPOS>SUBSTRUCTURE
     1 SEC2        1 GROUP        1 X    SEC  0     ROOT SEC X 2
     2 ZIC7       46 GROUP        1 X    ZIC  0     **** ZIC X 5
     3 GLC5        4 GROUP        1 X    GLC  0     **** GLC X 6
     4 SEP2        3 GROUP        1 Y    SEP  0     ROOT SEP Y 9
     5 ZIP7       48 GROUP        1 Y    ZIP  0     **** ZIP Y 12
     6 GLP5        6 GROUP        1 Y    GLP  0     **** GLP Y 13
     7 SEL2        2 GROUP        1 Z    SEL  0     ROOT SEL Z 16
     8 ZIL7       47 GROUP        1 Z    ZIL  0     **** ZIL Z 19
     9 GLL5        5 GROUP        1 Z    GLL  0     **** GLL Z 20
@<TRIPOS>SET

