#    Name: 2ihv_TPP_2_ligand
#    Modification time : Tue Mar 25 18:10:32 2014

@<TRIPOS>MOLECULE
2ihv_TPP_2_ligand
   42    43     1     0     0
SMALL
NO_CHARGES


@<TRIPOS>ATOM
      1 N1'        16.3980   61.9300   34.1260 N.ar      1 TPP600      0.0000 
      2 C2'        17.6530   61.6220   34.6210 C.ar      1 TPP600      0.0000 
      3 CM2        18.9100   61.8270   33.8330 C.3       1 TPP600      0.0000 
      4 N3'        17.7450   61.1000   35.8790 N.ar      1 TPP600      0.0000 
      5 C4'        16.6150   60.8840   36.6500 C.ar      1 TPP600      0.0000 
      6 N4'        16.8280   60.3740   37.8610 N.pl3     1 TPP600      0.0000 
      7 C5'        15.3230   61.2010   36.1820 C.ar      1 TPP600      0.0000 
      8 C6'        15.2480   61.7160   34.8850 C.ar      1 TPP600      0.0000 
      9 C7'        14.0450   60.9790   37.0250 C.3       1 TPP600      0.0000 
     10 N3         14.1670   59.5930   37.3530 N.pl3     1 TPP600      0.0000 
     11 C2         14.8320   59.1520   38.4800 C.2       1 TPP600      0.0000 
     12 S1         14.9140   57.5680   38.5730 S.3       1 TPP600      0.0000 
     13 C5         14.1070   57.3910   37.1860 C.2       1 TPP600      0.0000 
     14 C4         13.7480   58.5800   36.5750 C.2       1 TPP600      0.0000 
     15 CM4        13.0080   58.7160   35.2720 C.3       1 TPP600      0.0000 
     16 C6         13.8730   55.9720   36.7400 C.3       1 TPP600      0.0000 
     17 C7         12.9590   55.2260   37.6950 C.3       1 TPP600      0.0000 
     18 O7         12.5230   54.0360   37.0810 O.3       1 TPP600      0.0000 
     19 PA         13.3080   52.6560   37.2570 P.3       1 TPP600      0.0000 
     20 O1A        12.6330   51.5910   36.4160 O.co2     1 TPP600      0.0000 
     21 O2A        14.7530   52.8080   36.8730 O.co2     1 TPP600      0.0000 
     22 O3A        13.2050   52.2970   38.8260 O.3       1 TPP600      0.0000 
     23 PB         11.8090   52.2480   39.6350 P.3       1 TPP600      0.0000 
     24 O1B        12.0020   51.3460   40.8070 O.co2     1 TPP600      0.0000 
     25 O2B        11.4480   53.6200   40.1190 O.co2     1 TPP600      0.0000 
     26 O3B        10.7450   51.6790   38.7210 O.co2     1 TPP600      0.0000 
     27 H          16.9611   61.0349   38.5995 H         1 TPP600      0.0000 
     28 H          16.8357   59.3760   37.9230 H         1 TPP600      0.0000 
     29 H          14.3222   61.9420   34.4821 H         1 TPP600      0.0000 
     30 H          13.2070   61.1828   36.4075 H         1 TPP600      0.0000 
     31 H          14.1018   61.6092   37.8763 H         1 TPP600      0.0000 
     32 H          15.2325   59.6522   39.1818 H         1 TPP600      0.0000 
     33 H          14.8319   55.4447   36.6773 H         1 TPP600      0.0000 
     34 H          13.4231   55.9714   35.7404 H         1 TPP600      0.0000 
     35 H          12.1242   55.8917   37.9472 H         1 TPP600      0.0000 
     36 H          13.5231   55.0340   38.6161 H         1 TPP600      0.0000 
     37 H          19.7209   61.5502   34.3486 H         1 TPP600      0.0000 
     38 H          18.9071   61.2974   32.9848 H         1 TPP600      0.0000 
     39 H          19.0371   62.7859   33.5794 H         1 TPP600      0.0000 
     40 H          13.5383   59.2266   34.5952 H         1 TPP600      0.0000 
     41 H          12.7988   57.8251   34.8689 H         1 TPP600      0.0000 
     42 H          12.1389   59.1970   35.3869 H         1 TPP600      0.0000 
@<TRIPOS>BOND
     1    2    1 ar   
     2    8    1 ar   
     3    3    2 1    
     4    4    2 ar   
     5   37    3 1    
     6   38    3 1    
     7   39    3 1    
     8    5    4 ar   
     9    6    5 1    
    10    7    5 ar   
    11   27    6 1    
    12   28    6 1    
    13    8    7 ar   
    14    9    7 1    
    15   29    8 1    
    16   10    9 1    
    17   30    9 1    
    18   31    9 1    
    19   11   10 2    
    20   14   10 1    
    21   12   11 1    
    22   32   11 1    
    23   13   12 1    
    24   14   13 2    
    25   16   13 1    
    26   15   14 1    
    27   40   15 1    
    28   41   15 1    
    29   42   15 1    
    30   17   16 1    
    31   33   16 1    
    32   34   16 1    
    33   18   17 1    
    34   35   17 1    
    35   36   17 1    
    36   19   18 1    
    37   20   19 ar   
    38   21   19 ar   
    39   22   19 1    
    40   23   22 1    
    41   24   23 ar   
    42   25   23 ar   
    43   26   23 ar   
@<TRIPOS>SUBSTRUCTURE
     1 TPP600      1 GROUP   
@<TRIPOS>SET

