#    Name: 4h0u_UMP_1_INTS_M
#    Modification time : Tue Mar 25 00:02:23 2014

@<TRIPOS>MOLECULE
4h0u_UMP_1_INTS_M
   54     0    12     0     0
SMALL
NO_CHARGES


@<TRIPOS>ATOM
      1 O          -8.0530   14.5930   30.8950 O.2       1 ALC1        0.0000 
      2 O          -8.9810   15.7290   30.6500 O.2       9 ALL1        0.0000 
      3 O          -7.1250   13.4570   31.1400 O.2       5 ALP1        0.0000 
      4 N          -7.0585   18.0255   32.7595 N.am      2 SEC2        0.0000 
      5 N          -8.0180   17.1080   32.1520 N.am     10 SEL2        0.0000 
      6 N          -6.0990   18.9430   33.3670 N.am      6 SEP2        0.0000 
      7 N          -8.9965   13.3230   29.3115 N.am      2 SEC2        0.0000 
      8 N          -9.9670   14.4180   29.1490 N.am     10 SEL2        0.0000 
      9 N          -8.0260   12.2280   29.4740 N.am      6 SEP2        0.0000 
     10 CA         -8.4545   19.0245   29.1500 C.3       4 GLC5        0.0000 
     11 CA         -8.5050   20.2500   30.9920 C.3      12 GLL5        0.0000 
     12 CA         -8.4040   17.7990   27.3080 C.3       8 GLP5        0.0000 
     13 CA         -6.5685   19.5605   31.2180 C.3       4 GLC5        0.0000 
     14 CA         -4.6320   18.8710   31.4440 C.3       8 GLP5        0.0000 
     15 N          -9.3880   23.0780   33.3350 N.am      2 SEC2        0.0000 
     16 N          -8.9130   22.0160   32.6220 N.am     10 SEL2        0.0000 
     17 N          -9.8630   24.1400   34.0480 N.am      6 SEP2        0.0000 
     18 O          -7.6525   22.2775   32.9045 O.2       1 ALC1        0.0000 
     19 O          -8.9130   22.0160   32.6220 O.2       9 ALL1        0.0000 
     20 O          -6.3920   22.5390   33.1870 O.2       5 ALP1        0.0000 
     21 NZ        -10.7465   22.1055   26.1380 N.4       3 LYC4        0.0000 
     22 NZ        -11.0320   23.1840   27.0450 N.4      11 LYL4        0.0000 
     23 NZ         -9.2440   21.4600   24.8960 N.4       7 LYP4        0.0000 
     24 NZ        -11.8030   23.8735   26.5330 N.4       3 LYC4        0.0000 
     25 NZ        -12.5460   25.0830   24.8000 N.4       7 LYP4        0.0000 
     26 N         -10.7465   22.1055   26.1380 N.am      2 SEC2        0.0000 
     27 N         -11.0320   23.1840   27.0450 N.am     10 SEL2        0.0000 
     28 N         -10.4610   21.0270   25.2310 N.am      6 SEP2        0.0000 
     29 N          -9.8405   22.8135   26.3240 N.am      2 SEC2        0.0000 
     30 N          -8.6490   22.4430   25.6030 N.am      6 SEP2        0.0000 
     31 N         -11.8030   23.8735   26.5330 N.am      2 SEC2        0.0000 
     32 N         -12.5740   24.5630   26.0210 N.am      6 SEP2        0.0000 
     33 NZ        -10.2385   25.1785   29.9575 N.4       3 LYC4        0.0000 
     34 NZ        -11.0910   25.0430   28.7720 N.4      11 LYL4        0.0000 
     35 NZ         -8.1150   25.6960   31.0750 N.4       7 LYP4        0.0000 
     36 N         -10.2385   25.1785   29.9575 N.am      2 SEC2        0.0000 
     37 N         -11.0910   25.0430   28.7720 N.am     10 SEL2        0.0000 
     38 N          -9.3860   25.3140   31.1430 N.am      6 SEP2        0.0000 
     39 NZ         -8.2940   24.5035   29.3105 N.4       3 LYC4        0.0000 
     40 NZ         -9.1730   23.5480   28.6490 N.4      11 LYL4        0.0000 
     41 N          -8.9110   22.9955   27.1260 N.am      2 SEC2        0.0000 
     42 N          -9.1730   23.5480   28.6490 N.am     10 SEL2        0.0000 
     43 N          -8.0115   22.7295   28.9070 N.am      2 SEC2        0.0000 
     44 N          -6.8500   21.9110   29.1650 N.am      6 SEP2        0.0000 
     45 N          -8.2940   24.5035   29.3105 N.am      2 SEC2        0.0000 
     46 N          -7.4150   25.4590   29.9720 N.am      6 SEP2        0.0000 
     47 N          -9.2795   24.4310   29.8960 N.am      2 SEC2        0.0000 
     48 CA         -9.5252   17.5015   28.4270 C.3       4 GLC5        0.0000 
     49 CA        -10.5830   17.8280   29.8510 C.3      12 GLL5        0.0000 
     50 CA         -8.4262   19.2790   33.1570 C.3       4 GLC5        0.0000 
     51 CA         -9.5020   19.2700   31.5680 C.3      12 GLL5        0.0000 
     52 CA         -7.8490   18.7980   35.0340 C.3       8 GLP5        0.0000 
     53 CA         -7.5578   21.2183   29.5340 C.3       4 GLC5        0.0000 
     54 CA         -6.2770   21.5210   27.9290 C.3       8 GLP5        0.0000 
@<TRIPOS>BOND
@<TRIPOS>SUBSTRUCTURE
     1 ALC1        1 GROUP        1 X    ALC  0     ROOT ALC X 1
     2 SEC2        4 GROUP        1 X    SEC  0     **** SEC X 2
     3 LYC4       21 GROUP        1 X    LYC  0     **** LYC X 4
     4 GLC5       10 GROUP        1 X    GLC  0     **** GLC X 6
     5 ALP1        3 GROUP        1 Y    ALP  0     ROOT ALP Y 8
     6 SEP2        6 GROUP        1 Y    SEP  0     **** SEP Y 9
     7 LYP4       23 GROUP        1 Y    LYP  0     **** LYP Y 11
     8 GLP5       12 GROUP        1 Y    GLP  0     **** GLP Y 13
     9 ALL1        2 GROUP        1 Z    ALL  0     ROOT ALL Z 15
    10 SEL2        5 GROUP        1 Z    SEL  0     **** SEL Z 16
    11 LYL4       22 GROUP        1 Z    LYL  0     **** LYL Z 18
    12 GLL5       11 GROUP        1 Z    GLL  0     **** GLL Z 20
@<TRIPOS>SET

