#    Name: 4h0u_UMP_1_ligand
#    Modification time : Tue Mar 25 00:02:23 2014

@<TRIPOS>MOLECULE
4h0u_UMP_1_ligand
   31    32     1     0     0
SMALL
NO_CHARGES


@<TRIPOS>ATOM
      1 N1         -9.6390   18.0050   30.8360 N.am      1 UMP301      0.0000 
      2 C2         -8.8530   16.9520   31.2500 C.2       1 UMP301      0.0000 
      3 N3         -8.9810   15.7290   30.6500 N.am      1 UMP301      0.0000 
      4 C4         -9.8940   15.5340   29.6540 C.2       1 UMP301      0.0000 
      5 C5        -10.7100   16.5800   29.2410 C.2       1 UMP301      0.0000 
      6 C6        -10.5830   17.8280   29.8510 C.2       1 UMP301      0.0000 
      7 O2         -8.0180   17.1080   32.1520 O.2       1 UMP301      0.0000 
      8 O4         -9.9670   14.4180   29.1490 O.2       1 UMP301      0.0000 
      9 C1'        -9.5020   19.2700   31.5680 C.3       1 UMP301      0.0000 
     10 C2'        -8.5050   20.2500   30.9920 C.3       1 UMP301      0.0000 
     11 C3'        -9.1720   21.5810   31.2860 C.3       1 UMP301      0.0000 
     12 C4'       -10.6370   21.2390   31.1760 C.3       1 UMP301      0.0000 
     13 O3'        -8.9130   22.0160   32.6220 O.3       1 UMP301      0.0000 
     14 O4'       -10.7500   19.9020   31.5970 O.3       1 UMP301      0.0000 
     15 C5'       -11.0940   21.3760   29.7400 C.3       1 UMP301      0.0000 
     16 O5'       -11.3770   22.7250   29.5630 O.3       1 UMP301      0.0000 
     17 P         -10.6410   23.6270   28.4580 P.3       1 UMP301      0.0000 
     18 OP1       -11.0320   23.1840   27.0450 O.co2     1 UMP301      0.0000 
     19 OP2       -11.0910   25.0430   28.7720 O.co2     1 UMP301      0.0000 
     20 OP3        -9.1730   23.5480   28.6490 O.co2     1 UMP301      0.0000 
     21 H          -8.3754   14.9401   30.9571 H         1 UMP301      0.0000 
     22 H         -11.3980   16.4388   28.4970 H         1 UMP301      0.0000 
     23 H         -11.1920   18.6011   29.5617 H         1 UMP301      0.0000 
     24 H          -9.1876   19.0518   32.6010 H         1 UMP301      0.0000 
     25 H          -8.4204   20.1123   29.9487 H         1 UMP301      0.0000 
     26 H          -7.5882   20.1842   31.5114 H         1 UMP301      0.0000 
     27 H          -8.9245   22.2709   30.5458 H         1 UMP301      0.0000 
     28 H         -11.1908   21.9038   31.7950 H         1 UMP301      0.0000 
     29 H         -11.9642   20.7397   29.6051 H         1 UMP301      0.0000 
     30 H         -10.2899   21.0246   29.0994 H         1 UMP301      0.0000 
     31 H          -7.9248   22.1645   32.6587 H         1 UMP301      0.0000 
@<TRIPOS>BOND
     1    2    1 1    
     2    6    1 1    
     3    9    1 1    
     4    3    2 1    
     5    7    2 2    
     6    4    3 1    
     7   21    3 1    
     8    5    4 1    
     9    8    4 2    
    10    6    5 2    
    11   22    5 1    
    12   23    6 1    
    13   10    9 1    
    14   14    9 1    
    15   24    9 1    
    16   11   10 1    
    17   25   10 1    
    18   26   10 1    
    19   12   11 1    
    20   13   11 1    
    21   27   11 1    
    22   14   12 1    
    23   15   12 1    
    24   28   12 1    
    25   31   13 1    
    26   16   15 1    
    27   29   15 1    
    28   30   15 1    
    29   17   16 1    
    30   18   17 ar   
    31   19   17 ar   
    32   20   17 ar   
@<TRIPOS>SUBSTRUCTURE
     1 UMP301      1 GROUP   
@<TRIPOS>SET

