#    Name: 1E66_1_CAVITY_N1_6.mol2
#    Modification time : Mon Mar 10 19:50:44 2014

@<TRIPOS>MOLECULE
1E66_1_CAVITY_N1_6.mol2
   97     0     6     0     0
SMALL
NO_CHARGES


@<TRIPOS>ATOM
      1 CZ          4.7277   72.1251   69.0317 C.ar      4 PHE5        0.0000 
      2 CZ          5.4035   70.8913   69.5522 C.ar      4 PHE5        0.0000 
      3 CA          3.3931   71.4568   69.1805 C.3       5 GLY6        0.0000 
      4 OG          4.0689   70.2230   69.7010 O.2       1 SER1        0.0000 
      5 NZ          2.0584   70.7885   69.3293 N.2       3 LYS4        0.0000 
      6 OG          2.7343   69.5547   69.8498 O.2       1 SER1        0.0000 
      7 CZ          2.0755   67.6525   70.5191 C.ar      4 PHE5        0.0000 
      8 NZ          0.7409   66.9843   70.6678 N.2       3 LYS4        0.0000 
      9 CZ          1.4167   65.7504   71.1883 C.ar      4 PHE5        0.0000 
     10 CZ         -0.5938   66.3160   70.8166 C.ar      4 PHE5        0.0000 
     11 CZ          6.8477   71.0294   68.0045 C.ar      4 PHE5        0.0000 
     12 O           4.8372   71.5950   67.6328 O.2       2 ALA2        0.0000 
     13 CZ          5.5130   70.3611   68.1533 C.ar      4 PHE5        0.0000 
     14 CA          3.5026   70.9267   67.7816 C.3       5 GLY6        0.0000 
     15 CZ          4.1784   69.6928   68.3021 C.ar      4 PHE5        0.0000 
     16 CA          2.1679   70.2584   67.9304 C.3       5 GLY6        0.0000 
     17 CZ          2.8438   69.0245   68.4509 C.ar      4 PHE5        0.0000 
     18 CA          0.1574   70.8239   67.5587 C.3       5 GLY6        0.0000 
     19 NZ          0.8333   69.5901   68.0792 N.2       3 LYS4        0.0000 
     20 NZ          1.5091   68.3562   68.5997 N.2       3 LYS4        0.0000 
     21 CZ          2.1850   67.1224   69.1201 C.ar      4 PHE5        0.0000 
     22 CZ          3.5367   64.6547   70.1611 C.ar      4 PHE5        0.0000 
     23 N          -1.1772   70.1556   67.7075 N.2       2 ALA2        0.0000 
     24 CA         -0.5013   68.9218   68.2280 C.3       5 GLY6        0.0000 
     25 CA          0.1745   67.6880   68.7485 C.3       5 GLY6        0.0000 
     26 OG          0.8503   66.4541   69.2689 O.2       1 SER1        0.0000 
     27 OG          1.5262   65.2203   69.7894 O.2       1 SER1        0.0000 
     28 OG          2.2020   63.9865   70.3099 O.2       1 SER1        0.0000 
     29 CA         -1.1601   67.0197   68.8973 C.3       5 GLY6        0.0000 
     30 OG         -0.4843   65.7858   69.4177 O.2       1 SER1        0.0000 
     31 CZ          5.6225   69.8310   66.7544 C.ar      4 PHE5        0.0000 
     32 CA          3.6120   70.3965   66.3827 C.3       5 GLY6        0.0000 
     33 CZ          4.2879   69.1627   66.9032 C.ar      4 PHE5        0.0000 
     34 CA          2.2774   69.7282   66.5315 C.3       5 GLY6        0.0000 
     35 CZ          2.9533   68.4944   67.0520 C.ar      4 PHE5        0.0000 
     36 CA          0.9428   69.0599   66.6803 C.3       5 GLY6        0.0000 
     37 CZ          1.6186   67.8261   67.2007 C.ar      4 PHE5        0.0000 
     38 CZ          3.6462   64.1246   68.7622 C.ar      4 PHE5        0.0000 
     39 CZ          4.3220   62.8908   69.2826 C.ar      4 PHE5        0.0000 
     40 CA         -1.0677   69.6255   66.3086 C.3       5 GLY6        0.0000 
     41 DU         -0.3919   68.3917   66.8291 H         6 CUB7        0.0000 
     42 OG          0.2840   67.1578   67.3495 O.2       1 SER1        0.0000 
     43 OG          2.9874   62.2225   69.4314 O.2       1 SER1        0.0000 
     44 N          -2.4023   68.9572   66.4574 N.2       2 ALA2        0.0000 
     45 OG         -1.7265   67.7234   66.9779 O.2       1 SER1        0.0000 
     46 OG         -1.0506   66.4895   67.4983 O.2       1 SER1        0.0000 
     47 CZ          5.0562   70.5347   64.8350 C.ar      4 PHE5        0.0000 
     48 N           5.7320   69.3009   65.3554 N.2       2 ALA2        0.0000 
     49 CZ          3.7215   69.8664   64.9838 C.ar      4 PHE5        0.0000 
     50 CZ          4.3974   68.6326   65.5042 C.ar      4 PHE5        0.0000 
     51 CA          2.3869   69.1981   65.1326 C.3       5 GLY6        0.0000 
     52 CZ          3.0627   67.9643   65.6530 C.ar      4 PHE5        0.0000 
     53 CA          1.0523   68.5298   65.2814 C.3       5 GLY6        0.0000 
     54 OG          1.7281   67.2960   65.8018 O.2       1 SER1        0.0000 
     55 OG          2.4040   66.0622   66.3223 O.2       1 SER1        0.0000 
     56 N          -0.9582   69.0954   64.9097 N.2       2 ALA2        0.0000 
     57 OG         -0.2824   67.8615   65.4302 O.2       1 SER1        0.0000 
     58 OG          0.3935   66.6277   65.9506 O.2       1 SER1        0.0000 
     59 CZ          3.0969   61.6924   68.0325 C.ar      4 PHE5        0.0000 
     60 CZ          3.7727   60.4585   68.5530 C.ar      4 PHE5        0.0000 
     61 CZ          5.1657   70.0046   63.4361 C.ar      4 PHE5        0.0000 
     62 N           5.8415   68.7707   63.9565 N.2       2 ALA2        0.0000 
     63 CZ          3.8310   69.3363   63.5849 C.ar      4 PHE5        0.0000 
     64 CZ          4.5069   68.1024   64.1053 C.ar      4 PHE5        0.0000 
     65 CZ          5.1827   66.8686   64.6258 C.ar      4 PHE5        0.0000 
     66 CZ          1.8205   69.9018   63.2132 C.ar      4 PHE5        0.0000 
     67 CZ          2.4964   68.6680   63.7336 C.ar      4 PHE5        0.0000 
     68 CZ          3.1722   67.4341   64.2541 C.ar      4 PHE5        0.0000 
     69 CZ          3.8481   66.2003   64.7746 C.ar      4 PHE5        0.0000 
     70 CZ          4.5239   64.9665   65.2951 C.ar      4 PHE5        0.0000 
     71 N          -0.1899   70.4674   62.8415 N.2       2 ALA2        0.0000 
     72 CA          0.4859   69.2335   63.3620 C.3       5 GLY6        0.0000 
     73 OG          1.1618   67.9997   63.8824 O.2       1 SER1        0.0000 
     74 CA          1.8376   66.7659   64.4029 C.3       5 GLY6        0.0000 
     75 OG          2.5135   65.5320   64.9234 O.2       1 SER1        0.0000 
     76 OG          3.1893   64.2982   65.4438 O.2       1 SER1        0.0000 
     77 OG         -0.8487   68.5652   63.5108 O.2       1 SER1        0.0000 
     78 NZ          5.2751   69.4744   62.0371 N.2       3 LYS4        0.0000 
     79 NZ          5.9510   68.2406   62.5576 N.2       3 LYS4        0.0000 
     80 CZ          3.9405   68.8061   62.1859 C.ar      4 PHE5        0.0000 
     81 NZ          4.6164   67.5723   62.7064 N.2       3 LYS4        0.0000 
     82 CA          5.2922   66.3385   63.2269 C.3       5 GLY6        0.0000 
     83 OG          1.2542   70.6055   61.2938 O.2       1 SER1        0.0000 
     84 CZ          1.9300   69.3717   61.8143 C.ar      4 PHE5        0.0000 
     85 CA          2.6059   68.1379   62.3347 C.3       5 GLY6        0.0000 
     86 CA          3.2817   66.9040   62.8552 C.3       5 GLY6        0.0000 
     87 CA          3.9576   65.6702   63.3757 C.3       5 GLY6        0.0000 
     88 OG          4.6334   64.4363   63.8961 O.2       1 SER1        0.0000 
     89 CA         -0.0804   69.9372   61.4426 C.3       5 GLY6        0.0000 
     90 N           0.5954   68.7034   61.9631 N.2       2 ALA2        0.0000 
     91 CA          1.2713   67.4696   62.4835 C.3       5 GLY6        0.0000 
     92 O           3.2988   63.7681   64.0449 O.2       2 ALA2        0.0000 
     93 OG          3.3742   69.5098   60.2665 O.2       1 SER1        0.0000 
     94 NZ          4.0500   68.2760   60.7870 N.2       3 LYS4        0.0000 
     95 NZ          4.7259   67.0422   61.3075 N.2       3 LYS4        0.0000 
     96 N           2.0395   68.8416   60.4153 N.2       2 ALA2        0.0000 
     97 O           2.7154   67.6077   60.9358 O.2       2 ALA2        0.0000 
@<TRIPOS>BOND
@<TRIPOS>SUBSTRUCTURE
     1 SER1        4 GROUP   
     2 ALA2       12 GROUP   
     3 LYS4        5 GROUP   
     4 PHE5        1 GROUP   
     5 GLY6        3 GROUP   
     6 CUB7       41 GROUP   
@<TRIPOS>SET

