#    Name: 1e66_HUX_1_INTS_M
#    Modification time : Mon Mar 24 23:05:57 2014

@<TRIPOS>MOLECULE
1e66_HUX_1_INTS_M
   55     0     6     0     0
SMALL
NO_CHARGES


@<TRIPOS>ATOM
      1 CA          7.0095   69.1585   69.8360 C.3       2 GLC5        0.0000 
      2 CA          7.5600   70.9960   69.9590 C.3       6 GLL5        0.0000 
      3 CA          6.4590   67.3210   69.7130 C.3       4 GLP5        0.0000 
      4 CA          7.1460   72.5505   70.4895 C.3       2 GLC5        0.0000 
      5 CA          6.7320   74.1050   71.0200 C.3       4 GLP5        0.0000 
      6 CA          8.9130   70.6730   71.0175 C.3       2 GLC5        0.0000 
      7 CA         10.2660   70.3500   72.0760 C.3       4 GLP5        0.0000 
      8 O           1.0775   70.0035   67.5670 O.2       1 ALC1        0.0000 
      9 O           1.8860   69.4300   66.4690 O.2       5 ALL1        0.0000 
     10 O           0.2690   70.5770   68.6650 O.2       3 ALP1        0.0000 
     11 CA          8.5405   70.5370   67.3610 C.3       2 GLC5        0.0000 
     12 CA          6.6700   70.2770   67.4340 C.3       6 GLL5        0.0000 
     13 CA         10.4110   70.7970   67.2880 C.3       4 GLP5        0.0000 
     14 CA          5.2555   70.8065   62.6720 C.3       2 GLC5        0.0000 
     15 CA          5.5190   68.7840   62.9970 C.3       6 GLL5        0.0000 
     16 CA          4.9920   72.8290   62.3470 C.3       4 GLP5        0.0000 
     17 CA          7.0370   69.8275   62.4385 C.3       2 GLC5        0.0000 
     18 CA          8.5550   70.8710   61.8800 C.3       4 GLP5        0.0000 
     19 CA          6.2375   66.1660   63.2435 C.3       2 GLC5        0.0000 
     20 CA          4.2820   66.4050   62.9960 C.3       6 GLL5        0.0000 
     21 CA          8.1930   65.9270   63.4910 C.3       4 GLP5        0.0000 
     22 CA          4.3590   61.8030   64.6180 C.3       2 GLC5        0.0000 
     23 CA          4.3940   63.6190   64.1310 C.3       6 GLL5        0.0000 
     24 CA          4.3240   59.9870   65.1050 C.3       4 GLP5        0.0000 
     25 CA          6.0415   63.4550   65.1025 C.3       2 GLC5        0.0000 
     26 CA          7.6890   63.2910   66.0740 C.3       4 GLP5        0.0000 
     27 CA          6.2935   64.7730   63.8110 C.3       2 GLC5        0.0000 
     28 CA          8.6900   70.8063   68.3450 C.3       2 GLC5        0.0000 
     29 CA          6.3780   70.6350   68.8450 C.3       6 GLL5        0.0000 
     30 CA          7.7045   68.9000   68.5357 C.3       2 GLC5        0.0000 
     31 CA          8.8850   67.3440   68.9320 C.3       4 GLP5        0.0000 
     32 CA          1.9833   70.7180   65.4010 C.3       2 GLC5        0.0000 
     33 CA          3.2280   69.5120   66.1460 C.3       6 GLL5        0.0000 
     34 CA          0.5410   72.1250   65.3530 C.3       4 GLP5        0.0000 
     35 CA          6.6080   67.1295   63.0562 C.3       2 GLC5        0.0000 
     36 CA          2.7843   66.1163   62.0250 C.3       2 GLC5        0.0000 
     37 CA          4.5270   67.8800   62.2460 C.3       6 GLL5        0.0000 
     38 CA          1.1640   65.0900   61.4290 C.3       4 GLP5        0.0000 
     39 CA          5.1902   66.0803   61.0770 C.3       2 GLC5        0.0000 
     40 CA          5.9760   65.0180   59.5330 C.3       4 GLP5        0.0000 
     41 CA          4.6993   66.3025   65.3212 C.3       2 GLC5        0.0000 
     42 CA          5.6050   66.3580   67.2200 C.3       4 GLP5        0.0000 
     43 CA          2.7685   70.4123   62.8750 C.3       2 GLC5        0.0000 
     44 CA          2.6210   68.6020   63.7090 C.3       6 GLL5        0.0000 
     45 CA          2.6410   72.2460   62.7870 C.3       4 GLP5        0.0000 
     46 CA          2.0300   66.8342   62.1960 C.3       2 GLC5        0.0000 
     47 CA          1.9840   65.8623   62.7142 C.3       2 GLC5        0.0000 
     48 CA          2.3030   67.1800   64.1500 C.3       6 GLL5        0.0000 
     49 CA          2.5002   64.6088   62.8637 C.3       2 GLC5        0.0000 
     50 CA          3.2790   64.6360   64.4660 C.3       6 GLL5        0.0000 
     51 CA          2.9442   62.7602   63.1017 C.3       2 GLC5        0.0000 
     52 CA          2.0520   61.3930   61.9050 C.3       4 GLP5        0.0000 
     53 CA          2.1848   63.1887   64.9753 C.3       2 GLC5        0.0000 
     54 CA          0.5330   62.2500   65.6520 C.3       4 GLP5        0.0000 
     55 CA          4.7208   65.2428   65.7592 C.3       2 GLC5        0.0000 
@<TRIPOS>BOND
@<TRIPOS>SUBSTRUCTURE
     1 ALC1        8 GROUP        1 X    ALC  0     ROOT ALC X 1
     2 GLC5        1 GROUP        1 X    GLC  0     **** GLC X 6
     3 ALP1       10 GROUP        1 Y    ALP  0     ROOT ALP Y 8
     4 GLP5        3 GROUP        1 Y    GLP  0     **** GLP Y 13
     5 ALL1        9 GROUP        1 Z    ALL  0     ROOT ALL Z 15
     6 GLL5        2 GROUP        1 Z    GLL  0     **** GLL Z 20
@<TRIPOS>SET

