#    Name: 1e66_HUX_1_ligand
#    Modification time : Mon Mar 24 23:05:58 2014

@<TRIPOS>MOLECULE
1e66_HUX_1_ligand
   40    43     1     0     0
SMALL
NO_CHARGES


@<TRIPOS>ATOM
      1 CL1         7.5600   70.9960   69.9590 Cl        1 HUX803      0.0000 
      2 C1          6.3780   70.6350   68.8450 C.ar      1 HUX803      0.0000 
      3 N1          5.9600   69.5810   65.3090 N.ar      1 HUX803      0.0000 
      4 C3          5.5690   69.9500   66.6660 C.ar      1 HUX803      0.0000 
      5 C4          4.9750   69.1980   64.4700 C.ar      1 HUX803      0.0000 
      6 N2          1.8860   69.4300   66.4690 N.pl3     1 HUX803      0.0000 
      7 C14         3.2280   69.5120   66.1460 C.ar      1 HUX803      0.0000 
      8 C2          6.6700   70.2770   67.4340 C.ar      1 HUX803      0.0000 
      9 C17         4.9340   70.6300   69.2740 C.ar      1 HUX803      0.0000 
     10 C15         4.2480   69.9120   67.0430 C.ar      1 HUX803      0.0000 
     11 C5          5.5190   68.7840   62.9970 C.3       1 HUX803      0.0000 
     12 C13         3.6230   69.1100   64.7520 C.ar      1 HUX803      0.0000 
     13 C6          4.5270   67.8800   62.2460 C.3       1 HUX803      0.0000 
     14 C7          4.2820   66.4050   62.9960 C.2       1 HUX803      0.0000 
     15 C12         3.1710   68.5550   62.2170 C.3       1 HUX803      0.0000 
     16 C8          3.3050   66.0890   63.8490 C.2       1 HUX803      0.0000 
     17 C9          2.3030   67.1800   64.1500 C.3       1 HUX803      0.0000 
     18 C18         3.2790   64.6360   64.4660 C.3       1 HUX803      0.0000 
     19 C11         2.6210   68.6020   63.7090 C.3       1 HUX803      0.0000 
     20 C10         4.3940   63.6190   64.1310 C.3       1 HUX803      0.0000 
     21 C16         3.9130   70.3030   68.4610 C.ar      1 HUX803      0.0000 
     22 H           1.2731   69.1424   65.7331 H         1 HUX803      0.0000 
     23 H           1.6448   69.6654   67.4105 H         1 HUX803      0.0000 
     24 H           7.5995   70.2871   67.1166 H         1 HUX803      0.0000 
     25 H           4.7841   70.9058   70.2721 H         1 HUX803      0.0000 
     26 H           6.4631   68.2721   63.1400 H         1 HUX803      0.0000 
     27 H           5.6813   69.7043   62.4488 H         1 HUX803      0.0000 
     28 H           4.8500   67.6694   61.2686 H         1 HUX803      0.0000 
     29 H           5.0398   65.7419   62.6832 H         1 HUX803      0.0000 
     30 H           2.4764   67.9896   61.6301 H         1 HUX803      0.0000 
     31 H           3.2549   69.5636   61.8674 H         1 HUX803      0.0000 
     32 H           2.1080   67.1919   65.2585 H         1 HUX803      0.0000 
     33 H           1.3109   66.8884   63.7053 H         1 HUX803      0.0000 
     34 H           2.2865   64.1778   64.1962 H         1 HUX803      0.0000 
     35 H           3.2262   64.7507   65.5849 H         1 HUX803      0.0000 
     36 H           1.7338   69.1748   63.7423 H         1 HUX803      0.0000 
     37 H           2.9441   70.2956   68.7137 H         1 HUX803      0.0000 
     38 H           5.2947   63.9488   64.4139 H         1 HUX803      0.0000 
     39 H           4.2462   62.7419   64.5880 H         1 HUX803      0.0000 
     40 H           4.4447   63.4333   63.1497 H         1 HUX803      0.0000 
@<TRIPOS>BOND
     1    2    1 1    
     2    8    2 ar   
     3    9    2 ar   
     4    4    3 ar   
     5    5    3 ar   
     6    8    4 ar   
     7   10    4 ar   
     8   11    5 1    
     9   12    5 ar   
    10    7    6 1    
    11   22    6 1    
    12   23    6 1    
    13   10    7 ar   
    14   12    7 ar   
    15   24    8 1    
    16   21    9 ar   
    17   25    9 1    
    18   21   10 ar   
    19   13   11 1    
    20   26   11 1    
    21   27   11 1    
    22   19   12 1    
    23   14   13 1    
    24   15   13 1    
    25   28   13 1    
    26   16   14 2    
    27   29   14 1    
    28   19   15 1    
    29   30   15 1    
    30   31   15 1    
    31   17   16 1    
    32   18   16 1    
    33   19   17 1    
    34   32   17 1    
    35   33   17 1    
    36   20   18 1    
    37   34   18 1    
    38   35   18 1    
    39   36   19 1    
    40   38   20 1    
    41   39   20 1    
    42   40   20 1    
    43   37   21 1    
@<TRIPOS>SUBSTRUCTURE
     1 HUX803      1 GROUP   
@<TRIPOS>SET

