#    Name: 2h96_893_1_INTS_M
#    Modification time : Tue Mar 25 15:44:46 2014

@<TRIPOS>MOLECULE
2h96_893_1_INTS_M
   57     0     6     0     0
SMALL
NO_CHARGES


@<TRIPOS>ATOM
      1 CA         15.6100  108.8340   55.7900 C.3       2 GLC5        0.0000 
      2 CA         17.4070  109.3920   54.7830 C.3       6 GLL5        0.0000 
      3 CA         13.8130  108.2760   56.7970 C.3       4 GLP5        0.0000 
      4 CA         17.0455  106.5420   55.9075 C.3       2 GLC5        0.0000 
      5 CA         17.3070  107.0040   54.1090 C.3       6 GLL5        0.0000 
      6 CA         16.7840  106.0800   57.7060 C.3       4 GLP5        0.0000 
      7 CA         17.1405  105.2130   53.6920 C.3       2 GLC5        0.0000 
      8 CA         16.9740  103.4220   53.2750 C.3       4 GLP5        0.0000 
      9 CA         17.3445  104.7960   51.8680 C.3       2 GLC5        0.0000 
     10 CA         17.7150  106.1700   50.4610 C.3       6 GLL5        0.0000 
     11 CA         15.2575  107.2305   49.6535 C.3       2 GLC5        0.0000 
     12 CA         16.9420  105.9770   49.2940 C.3       6 GLL5        0.0000 
     13 CA         13.5730  108.4840   50.0130 C.3       4 GLP5        0.0000 
     14 CA         19.6035  112.2605   53.8415 C.3       2 GLC5        0.0000 
     15 CA         17.5380  112.6010   54.2620 C.3       6 GLL5        0.0000 
     16 CA         21.6690  111.9200   53.4210 C.3       4 GLP5        0.0000 
     17 CA         18.0445  113.1940   52.6065 C.3       2 GLC5        0.0000 
     18 CA         18.5510  113.7870   50.9510 C.3       4 GLP5        0.0000 
     19 CA         16.5480  111.7190   53.1280 C.3       2 GLC5        0.0000 
     20 CA         15.5580  110.8370   51.9940 C.3       4 GLP5        0.0000 
     21 CA         21.7295  108.6505   53.5455 C.3       2 GLC5        0.0000 
     22 CA         21.1780  106.6430   54.2530 C.3       6 GLL5        0.0000 
     23 CA         22.2810  110.6580   52.8380 C.3       4 GLP5        0.0000 
     24 CA         21.1350  104.6755   45.3450 C.3       2 GLC5        0.0000 
     25 CA         19.6810  105.1990   46.8790 C.3       6 GLL5        0.0000 
     26 CA         22.5890  104.1520   43.8110 C.3       4 GLP5        0.0000 
     27 CA         18.4765  105.7390   45.8775 C.3       2 GLC5        0.0000 
     28 CA         17.2720  106.2790   44.8760 C.3       4 GLP5        0.0000 
     29 CA         21.0750  107.9130   50.9100 C.3       2 GLC5        0.0000 
     30 CA         21.7770  105.9140   50.5270 C.3       6 GLL5        0.0000 
     31 CA         20.3730  109.9120   51.2930 C.3       4 GLP5        0.0000 
     32 CA         23.4370  106.9350   50.5910 C.3       2 GLC5        0.0000 
     33 CA         25.0970  107.9560   50.6550 C.3       4 GLP5        0.0000 
     34 CA         21.6945  107.0460   48.7905 C.3       2 GLC5        0.0000 
     35 CA         21.6120  108.1780   47.0540 C.3       4 GLP5        0.0000 
     36 N          14.4905  106.9540   51.9505 N.am      1 SEC2        0.0000 
     37 N          15.7810  106.6240   51.7950 N.am      5 SEL2        0.0000 
     38 N          13.2000  107.2840   52.1060 N.am      3 SEP2        0.0000 
     39 CA         19.5688  108.9898   53.1370 C.3       2 GLC5        0.0000 
     40 CA         19.4820  107.9870   55.2500 C.3       6 GLL5        0.0000 
     41 CA         16.6373  110.4002   53.5263 C.3       2 GLC5        0.0000 
     42 CA         17.4349  107.4049   56.2940 C.3       2 GLC5        0.0000 
     43 CA         20.2715  111.0626   54.5051 C.3       2 GLC5        0.0000 
     44 CA         18.0260  110.5350   55.3340 C.3       6 GLL5        0.0000 
     45 CA         17.3282  107.8208   48.7157 C.3       2 GLC5        0.0000 
     46 CA         17.3280  109.5680   47.5540 C.3       4 GLP5        0.0000 
     47 CA         17.8188  107.5800   47.8260 C.3       2 GLC5        0.0000 
     48 CA         19.0120  105.5300   48.0950 C.3       6 GLL5        0.0000 
     49 CA         15.6132  104.6852   48.1527 C.3       2 GLC5        0.0000 
     50 CA         17.6070  105.6540   48.1010 C.3       6 GLL5        0.0000 
     51 CA         13.9520  103.5550   47.6080 C.3       4 GLP5        0.0000 
     52 CA         17.4639  104.0794   49.3461 C.3       2 GLC5        0.0000 
     53 CA         17.4600  102.2950   49.7030 C.3       4 GLP5        0.0000 
     54 CA         17.4489  106.0317   46.7860 C.3       2 GLC5        0.0000 
     55 CA         20.5688  106.7969   47.4200 C.3       2 GLC5        0.0000 
     56 CA         19.5513  103.7189   48.0890 C.3       2 GLC5        0.0000 
     57 CA         19.5770  102.0220   48.3920 C.3       4 GLP5        0.0000 
@<TRIPOS>BOND
@<TRIPOS>SUBSTRUCTURE
     1 SEC2       36 GROUP        1 X    SEC  0     ROOT SEC X 2
     2 GLC5        1 GROUP        1 X    GLC  0     **** GLC X 6
     3 SEP2       38 GROUP        1 Y    SEP  0     ROOT SEP Y 9
     4 GLP5        3 GROUP        1 Y    GLP  0     **** GLP Y 13
     5 SEL2       37 GROUP        1 Z    SEL  0     ROOT SEL Z 16
     6 GLL5        2 GROUP        1 Z    GLL  0     **** GLL Z 20
@<TRIPOS>SET

