#    Name: 2h96_893_1_ligand
#    Modification time : Tue Mar 25 15:44:46 2014

@<TRIPOS>MOLECULE
2h96_893_1_ligand
   44    45     1     0     0
SMALL
NO_CHARGES


@<TRIPOS>ATOM
      1 C1         20.0930  109.2770   55.8360 C.ar      1 893901      0.0000 
      2 C2         19.4820  107.9870   55.2500 C.ar      1 893901      0.0000 
      3 C3         18.0470  108.1480   54.7120 C.ar      1 893901      0.0000 
      4 C4         17.4070  109.3920   54.7830 C.ar      1 893901      0.0000 
      5 C5         18.0260  110.5350   55.3340 C.ar      1 893901      0.0000 
      6 C6         19.3510  110.4740   55.8530 C.ar      1 893901      0.0000 
      7 C9         17.3070  107.0040   54.1090 C.3       1 893901      0.0000 
      8 N1         17.8210  106.6710   52.7820 N.am      1 893901      0.0000 
      9 C8         17.0080  106.5050   51.7150 C.2       1 893901      0.0000 
     10 C14        17.7150  106.1700   50.4610 C.ar      1 893901      0.0000 
     11 N16        19.0790  106.0510   50.4560 N.ar      1 893901      0.0000 
     12 C17        19.7280  105.7350   49.2910 C.ar      1 893901      0.0000 
     13 C18        19.0120  105.5300   48.0950 C.ar      1 893901      0.0000 
     14 C19        17.6070  105.6540   48.1010 C.ar      1 893901      0.0000 
     15 C20        16.9420  105.9770   49.2940 C.ar      1 893901      0.0000 
     16 O22        17.2690  111.7060   55.3400 O.3       1 893901      0.0000 
     17 C23        17.5380  112.6010   54.2620 C.3       1 893901      0.0000 
     18 O27        20.1270  106.7490   55.1850 O.3       1 893901      0.0000 
     19 C28        21.1780  106.6430   54.2530 C.3       1 893901      0.0000 
     20 C34        19.6810  105.1990   46.8790 C.1       1 893901      0.0000 
     21 N35        20.1900  104.9430   45.8750 N.1       1 893901      0.0000 
     22 O36        21.1280  105.6140   49.3010 O.3       1 893901      0.0000 
     23 C37        21.7770  105.9140   50.5270 C.3       1 893901      0.0000 
     24 C7         22.0220  104.6000   51.2780 C.3       1 893901      0.0000 
     25 O1         15.7810  106.6240   51.7950 O.2       1 893901      0.0000 
     26 H          21.0293  109.2026   56.1932 H         1 893901      0.0000 
     27 H          16.4365  109.4820   54.4162 H         1 893901      0.0000 
     28 H          19.7699  111.3282   56.2482 H         1 893901      0.0000 
     29 H          16.2355  107.2609   54.0482 H         1 893901      0.0000 
     30 H          17.3882  106.1304   54.7784 H         1 893901      0.0000 
     31 H          18.8529  106.5683   52.7039 H         1 893901      0.0000 
     32 H          17.0788  105.5088   47.2396 H         1 893901      0.0000 
     33 H          15.9362  106.0702   49.3222 H         1 893901      0.0000 
     34 H          21.1699  106.5534   51.1698 H         1 893901      0.0000 
     35 H          22.7455  106.3930   50.3750 H         1 893901      0.0000 
     36 H          18.4913  112.9029   54.2590 H         1 893901      0.0000 
     37 H          17.3624  112.1762   53.3739 H         1 893901      0.0000 
     38 H          16.9704  113.4228   54.3112 H         1 893901      0.0000 
     39 H          21.9071  107.3017   54.4389 H         1 893901      0.0000 
     40 H          21.5943  105.7339   54.2645 H         1 893901      0.0000 
     41 H          20.8638  106.8096   53.3184 H         1 893901      0.0000 
     42 H          22.5989  103.9742   50.7530 H         1 893901      0.0000 
     43 H          22.4777  104.7528   52.1549 H         1 893901      0.0000 
     44 H          21.1675  104.1181   51.4718 H         1 893901      0.0000 
@<TRIPOS>BOND
     1    2    1 ar   
     2    6    1 ar   
     3   26    1 1    
     4    3    2 ar   
     5   18    2 1    
     6    4    3 ar   
     7    7    3 1    
     8    5    4 ar   
     9   27    4 1    
    10    6    5 ar   
    11   16    5 1    
    12   28    6 1    
    13    8    7 1    
    14   29    7 1    
    15   30    7 1    
    16    9    8 am   
    17   31    8 1    
    18   10    9 1    
    19   25    9 2    
    20   11   10 ar   
    21   15   10 ar   
    22   12   11 ar   
    23   13   12 ar   
    24   22   12 1    
    25   14   13 ar   
    26   20   13 1    
    27   15   14 ar   
    28   32   14 1    
    29   33   15 1    
    30   17   16 1    
    31   36   17 1    
    32   37   17 1    
    33   38   17 1    
    34   19   18 1    
    35   39   19 1    
    36   40   19 1    
    37   41   19 1    
    38   21   20 3    
    39   23   22 1    
    40   24   23 1    
    41   34   23 1    
    42   35   23 1    
    43   42   24 1    
    44   43   24 1    
    45   44   24 1    
@<TRIPOS>SUBSTRUCTURE
     1 893901      1 GROUP   
@<TRIPOS>SET

