#    Name: 3a58_GNP_3_INTS_M
#    Modification time : Mon Apr  7 18:57:25 2014

@<TRIPOS>MOLECULE
3a58_GNP_3_INTS_M
   79     0    15     0     0
SMALL
NO_CHARGES


@<TRIPOS>ATOM
      1 NZ         60.7475   10.5535    4.5170 N.4       3 LYC4        0.0000 
      2 NZ         60.7400    9.1890    4.9770 N.4      13 LYL4        0.0000 
      3 NZ         60.7550   11.9180    4.0570 N.4       8 LYP4        0.0000 
      4 N          59.9935    9.7585    6.4135 N.am      2 SEC2        0.0000 
      5 N          60.7400    9.1890    4.9770 N.am     12 SEL2        0.0000 
      6 N          59.2470   10.3280    7.8500 N.am      7 SEP2        0.0000 
      7 N          60.7475   10.5535    4.5170 N.am      2 SEC2        0.0000 
      8 N          60.7550   11.9180    4.0570 N.am      7 SEP2        0.0000 
      9 N          62.1720    9.0735    4.6350 N.am      2 SEC2        0.0000 
     10 N          63.6040    8.9580    4.2930 N.am      7 SEP2        0.0000 
     11 Zn         58.8940    7.3155    3.0185 Zn        4 ZIC7        0.0000 
     12 Zn         59.5370    7.2370    3.8850 Zn       14 ZIL7        0.0000 
     13 Zn         58.2510    7.3940    2.1520 Zn        9 ZIP7        0.0000 
     14 N          59.7115    5.8275    3.7735 N.am      2 SEC2        0.0000 
     15 N          59.5370    7.2370    3.8850 N.am     12 SEL2        0.0000 
     16 N          59.8860    4.4180    3.6620 N.am      7 SEP2        0.0000 
     17 N          59.7045    8.8255    7.0850 N.am      2 SEC2        0.0000 
     18 N          60.1620    7.3230    6.3200 N.am     12 SEL2        0.0000 
     19 NZ         59.5750   11.4925    4.3435 N.4       3 LYC4        0.0000 
     20 NZ         58.3950   11.0670    4.6300 N.4      13 LYL4        0.0000 
     21 N          57.1810   12.1380    5.2225 N.am      2 SEC2        0.0000 
     22 N          58.3950   11.0670    4.6300 N.am     12 SEL2        0.0000 
     23 N          55.9670   13.2090    5.8150 N.am      7 SEP2        0.0000 
     24 N          57.3700   11.9580    3.8255 N.am      2 SEC2        0.0000 
     25 N          56.3450   12.8490    3.0210 N.am      7 SEP2        0.0000 
     26 N          59.5750   11.4925    4.3435 N.am      2 SEC2        0.0000 
     27 Zn         57.7505    8.3235    2.7135 Zn        4 ZIC7        0.0000 
     28 Zn         57.2500    9.2530    3.2750 Zn       14 ZIL7        0.0000 
     29 N          56.5280    9.8850    2.2190 N.am      2 SEC2        0.0000 
     30 N          57.2500    9.2530    3.2750 N.am     12 SEL2        0.0000 
     31 N          55.8060   10.5170    1.1630 N.am      7 SEP2        0.0000 
     32 N          56.0805   11.7525    5.5080 N.am      2 SEC2        0.0000 
     33 N          56.1940   10.2960    5.2010 N.am     12 SEL2        0.0000 
     34 N          53.5810    9.8805    2.7580 N.am      2 SEC2        0.0000 
     35 N          54.2020    9.5390    4.0780 N.am     12 SEL2        0.0000 
     36 N          52.9600   10.2220    1.4380 N.am      7 SEP2        0.0000 
     37 CA         56.1360   10.1170    8.0890 C.3       5 GLC5        0.0000 
     38 CA         54.4040    9.7320    7.8730 C.3      15 GLL5        0.0000 
     39 CA         57.8680   10.5020    8.3050 C.3      10 GLP5        0.0000 
     40 N          53.0285   11.9185    9.4245 N.am      2 SEC2        0.0000 
     41 N          52.4300   10.7510    8.9790 N.am     12 SEL2        0.0000 
     42 N          53.6270   13.0860    9.8700 N.am      7 SEP2        0.0000 
     43 CA         53.1005    6.9310    8.9675 C.3       5 GLC5        0.0000 
     44 CA         52.1110    8.5170    8.2330 C.3      15 GLL5        0.0000 
     45 CA         54.0900    5.3450    9.7020 C.3      10 GLP5        0.0000 
     46 O          50.3030    7.0340    9.4040 O.2       1 ALC1        0.0000 
     47 O          51.5310    7.7800    9.3200 O.2      11 ALL1        0.0000 
     48 O          49.0750    6.2880    9.4880 O.2       6 ALP1        0.0000 
     49 CA         50.8620    9.4005    5.6850 C.3       5 GLC5        0.0000 
     50 CA         51.0830    9.4060    7.5610 C.3      15 GLL5        0.0000 
     51 CA         50.6410    9.3950    3.8090 C.3      10 GLP5        0.0000 
     52 O          49.0050    8.2615    6.7820 O.2       1 ALC1        0.0000 
     53 O          49.7720    8.9070    7.5760 O.2      11 ALL1        0.0000 
     54 O          48.2380    7.6160    5.9880 O.2       6 ALP1        0.0000 
     55 CA         52.3310   12.4505    8.5930 C.3       5 GLC5        0.0000 
     56 CA         51.1780   10.7240    8.3250 C.3      15 GLL5        0.0000 
     57 CA         53.4840   14.1770    8.8610 C.3      10 GLP5        0.0000 
     58 CA         51.2525   15.0775    7.5015 C.3       5 GLC5        0.0000 
     59 CA         50.1650   13.8360    6.7530 C.3      15 GLL5        0.0000 
     60 CA         52.3400   16.3190    8.2500 C.3      10 GLP5        0.0000 
     61 N          48.8110   16.1360    4.5320 N.am      2 SEC2        0.0000 
     62 N          49.3170   15.9220    5.9540 N.am     12 SEL2        0.0000 
     63 N          48.3050   16.3500    3.1100 N.am      7 SEP2        0.0000 
     64 N          47.9100   15.3650    5.1155 N.am      2 SEC2        0.0000 
     65 N          46.5030   14.8080    4.2770 N.am      7 SEP2        0.0000 
     66 O          48.1650   16.5095    8.0195 O.2       1 ALC1        0.0000 
     67 O          48.6610   15.1830    8.0080 O.2      11 ALL1        0.0000 
     68 O          47.6690   17.8360    8.0310 O.2       6 ALP1        0.0000 
     69 O          47.4915   16.0255    8.7380 O.2       1 ALC1        0.0000 
     70 O          46.3220   16.8680    9.4680 O.2       6 ALP1        0.0000 
     71 O          47.1160   15.7060    9.7990 O.2       1 ALC1        0.0000 
     72 O          47.9100   14.5440   10.1300 O.2      11 ALL1        0.0000 
     73 CA         51.7960   13.5730    8.3475 C.3       5 GLC5        0.0000 
     74 CA         50.1080   12.9690    7.8340 C.3      15 GLL5        0.0000 
     75 CA         54.8120    7.8987    8.2050 C.3       5 GLC5        0.0000 
     76 CA         53.1660    9.5150    8.7550 C.3      15 GLL5        0.0000 
     77 CA         55.8390    6.1740    8.0960 C.3      10 GLP5        0.0000 
     78 CA         49.3788   10.7000    7.1310 C.3       5 GLC5        0.0000 
     79 CA         47.6270   11.3350    6.3190 C.3      10 GLP5        0.0000 
@<TRIPOS>BOND
@<TRIPOS>SUBSTRUCTURE
     1 ALC1       46 GROUP        1 X    ALC  0     ROOT ALC X 1
     2 SEC2        4 GROUP        1 X    SEC  0     **** SEC X 2
     3 LYC4        1 GROUP        1 X    LYC  0     **** LYC X 4
     4 ZIC7       11 GROUP        1 X    ZIC  0     **** ZIC X 5
     5 GLC5       37 GROUP        1 X    GLC  0     **** GLC X 6
     6 ALP1       48 GROUP        1 Y    ALP  0     ROOT ALP Y 8
     7 SEP2        6 GROUP        1 Y    SEP  0     **** SEP Y 9
     8 LYP4        3 GROUP        1 Y    LYP  0     **** LYP Y 11
     9 ZIP7       13 GROUP        1 Y    ZIP  0     **** ZIP Y 12
    10 GLP5       39 GROUP        1 Y    GLP  0     **** GLP Y 13
    11 ALL1       47 GROUP        1 Z    ALL  0     ROOT ALL Z 15
    12 SEL2        5 GROUP        1 Z    SEL  0     **** SEL Z 16
    13 LYL4        2 GROUP        1 Z    LYL  0     **** LYL Z 18
    14 ZIL7       12 GROUP        1 Z    ZIL  0     **** ZIL Z 19
    15 GLL5       38 GROUP        1 Z    GLL  0     **** GLL Z 20
@<TRIPOS>SET

