#    Name: 3a58_GNP_3_ligand
#    Modification time : Mon Apr  7 18:57:25 2014

@<TRIPOS>MOLECULE
3a58_GNP_3_ligand
   44    46     1     0     0
SMALL
NO_CHARGES


@<TRIPOS>ATOM
      1 PG         59.6970    8.1050    5.1220 P.3       1 GNP301      0.0000 
      2 O1G        60.7400    9.1890    4.9770 O.co2     1 GNP301      0.0000 
      3 O2G        59.5370    7.2370    3.8850 O.co2     1 GNP301      0.0000 
      4 O3G        60.1620    7.3230    6.3200 O.co2     1 GNP301      0.0000 
      5 N3B        58.2170    8.7040    5.4780 N.4       1 GNP301      0.0000 
      6 PB         57.5210    9.8700    4.6020 P.3       1 GNP301      0.0000 
      7 O1B        58.3950   11.0670    4.6300 O.co2     1 GNP301      0.0000 
      8 O2B        57.2500    9.2530    3.2750 O.co2     1 GNP301      0.0000 
      9 O3A        56.1940   10.2960    5.2010 O.3       1 GNP301      0.0000 
     10 PA         54.9940    9.3770    5.3120 P.3       1 GNP301      0.0000 
     11 O1A        54.2020    9.5390    4.0780 O.co2     1 GNP301      0.0000 
     12 O2A        55.4460    7.9950    5.5870 O.co2     1 GNP301      0.0000 
     13 O5'        54.0620    9.8680    6.4930 O.3       1 GNP301      0.0000 
     14 C5'        54.4040    9.7320    7.8730 C.3       1 GNP301      0.0000 
     15 C4'        53.1660    9.5150    8.7550 C.3       1 GNP301      0.0000 
     16 O4'        52.4300   10.7510    8.9790 O.3       1 GNP301      0.0000 
     17 C3'        52.1110    8.5170    8.2330 C.3       1 GNP301      0.0000 
     18 O3'        51.5310    7.7800    9.3200 O.3       1 GNP301      0.0000 
     19 C2'        51.0830    9.4060    7.5610 C.3       1 GNP301      0.0000 
     20 O2'        49.7720    8.9070    7.5760 O.3       1 GNP301      0.0000 
     21 C1'        51.1780   10.7240    8.3250 C.3       1 GNP301      0.0000 
     22 N9         50.9260   11.9120    7.4980 N.pl3     1 GNP301      0.0000 
     23 C8         51.4310   12.2080    6.2470 C.2       1 GNP301      0.0000 
     24 N7         51.0040   13.3400    5.7700 N.2       1 GNP301      0.0000 
     25 C5         50.1650   13.8360    6.7530 C.2       1 GNP301      0.0000 
     26 C6         49.3960   15.0440    6.8050 C.2       1 GNP301      0.0000 
     27 O6         49.3170   15.9220    5.9540 O.2       1 GNP301      0.0000 
     28 N1         48.6610   15.1830    8.0080 N.am      1 GNP301      0.0000 
     29 C2         48.6650   14.2540    9.0510 C.2       1 GNP301      0.0000 
     30 N2         47.9100   14.5440   10.1300 N.pl3     1 GNP301      0.0000 
     31 N3         49.3810   13.1160    9.0080 N.2       1 GNP301      0.0000 
     32 C4         50.1080   12.9690    7.8340 C.2       1 GNP301      0.0000 
     33 H          54.9260   10.6287    8.2532 H         1 GNP301      0.0000 
     34 H          55.0825    8.8763    8.0418 H         1 GNP301      0.0000 
     35 H          53.4953    9.1363    9.7371 H         1 GNP301      0.0000 
     36 H          52.5711    7.9096    7.5012 H         1 GNP301      0.0000 
     37 H          51.4464    9.6152    6.5555 H         1 GNP301      0.0000 
     38 H          50.3758   10.6662    9.1072 H         1 GNP301      0.0000 
     39 H          52.0639   11.5822    5.7859 H         1 GNP301      0.0000 
     40 H          48.0715   16.0521    8.1162 H         1 GNP301      0.0000 
     41 H          47.4026   15.4050   10.0935 H         1 GNP301      0.0000 
     42 H          47.9246   13.8723   10.8707 H         1 GNP301      0.0000 
     43 H          50.5447    7.8146    9.1588 H         1 GNP301      0.0000 
     44 H          49.6641    8.4369    6.7000 H         1 GNP301      0.0000 
@<TRIPOS>BOND
     1    2    1 ar   
     2    3    1 ar   
     3    4    1 ar   
     4    5    1 1    
     5    6    5 1    
     6    7    6 ar   
     7    8    6 ar   
     8    9    6 1    
     9   10    9 1    
    10   11   10 ar   
    11   12   10 ar   
    12   13   10 1    
    13   14   13 1    
    14   15   14 1    
    15   33   14 1    
    16   34   14 1    
    17   16   15 1    
    18   17   15 1    
    19   35   15 1    
    20   21   16 1    
    21   18   17 1    
    22   19   17 1    
    23   36   17 1    
    24   43   18 1    
    25   20   19 1    
    26   21   19 1    
    27   37   19 1    
    28   44   20 1    
    29   22   21 1    
    30   38   21 1    
    31   23   22 1    
    32   32   22 1    
    33   24   23 2    
    34   39   23 1    
    35   25   24 1    
    36   26   25 1    
    37   32   25 2    
    38   27   26 2    
    39   28   26 am   
    40   29   28 1    
    41   40   28 1    
    42   30   29 1    
    43   31   29 2    
    44   41   30 1    
    45   42   30 1    
    46   32   31 1    
@<TRIPOS>SUBSTRUCTURE
     1 GNP301      1 GROUP   
@<TRIPOS>SET

