#    Name: 1fxf_MJI_1_INTS_M
#    Modification time : Tue Mar 25 02:09:44 2014

@<TRIPOS>MOLECULE
1fxf_MJI_1_INTS_M
   92     0     6     0     0
SMALL
NO_CHARGES


@<TRIPOS>ATOM
      1 CA         35.5750   34.5000   34.1200 C.3       2 GLC5        0.0000 
      2 CA         37.3590   35.3540   34.4220 C.3       6 GLL5        0.0000 
      3 CA         33.7910   33.6460   33.8180 C.3       4 GLP5        0.0000 
      4 CA         37.3790   32.8055   34.7375 C.3       2 GLC5        0.0000 
      5 CA         38.3110   34.6660   35.3540 C.3       6 GLL5        0.0000 
      6 CA         36.4470   30.9450   34.1210 C.3       4 GLP5        0.0000 
      7 CA         41.5435   36.4880   35.9460 C.3       2 GLC5        0.0000 
      8 CA         41.6410   34.5430   35.6430 C.3       6 GLL5        0.0000 
      9 CA         41.4460   38.4330   36.2490 C.3       4 GLP5        0.0000 
     10 CA         42.7290   34.6910   33.9770 C.3       2 GLC5        0.0000 
     11 CA         43.8170   34.8390   32.3110 C.3       4 GLP5        0.0000 
     12 CA         41.9955   36.4080   37.0190 C.3       2 GLC5        0.0000 
     13 CA         42.5450   34.3830   37.7890 C.3       6 GLL5        0.0000 
     14 CA         45.7285   33.4325   35.9600 C.3       2 GLC5        0.0000 
     15 CA         43.8480   33.9620   36.1140 C.3       6 GLL5        0.0000 
     16 CA         47.6090   32.9030   35.8060 C.3       4 GLP5        0.0000 
     17 CA         43.8325   34.4005   34.2125 C.3       2 GLC5        0.0000 
     18 CA         42.9550   30.7315   36.5675 C.3       2 GLC5        0.0000 
     19 CA         42.3070   32.5470   36.6940 C.3       6 GLL5        0.0000 
     20 CA         43.6030   28.9160   36.4410 C.3       4 GLP5        0.0000 
     21 CA         42.8750   31.3265   38.4080 C.3       2 GLC5        0.0000 
     22 CA         43.4430   30.1060   40.1220 C.3       4 GLP5        0.0000 
     23 N          36.7780   31.1780   36.5855 N.am      1 SEC2        0.0000 
     24 N          36.7530   32.0710   37.7790 N.am      5 SEL2        0.0000 
     25 N          36.8030   30.2850   35.3920 N.am      3 SEP2        0.0000 
     26 CA         40.6140   33.3290   38.8880 C.3       2 GLC5        0.0000 
     27 CA         39.6890   31.8160   37.7260 C.3       6 GLL5        0.0000 
     28 CA         41.5390   34.8420   40.0500 C.3       4 GLP5        0.0000 
     29 CA         38.6030   30.1395   37.2610 C.3       2 GLC5        0.0000 
     30 CA         37.5170   28.4630   36.7960 C.3       4 GLP5        0.0000 
     31 CA         39.4075   30.0210   38.7475 C.3       2 GLC5        0.0000 
     32 CA         39.1260   28.2260   39.7690 C.3       4 GLP5        0.0000 
     33 CA         40.9460   30.7925   39.1760 C.3       2 GLC5        0.0000 
     34 CA         42.2030   29.7690   40.6260 C.3       4 GLP5        0.0000 
     35 CA         35.3875   35.9410   32.8535 C.3       2 GLC5        0.0000 
     36 CA         37.2150   37.2160   32.9930 C.3       6 GLL5        0.0000 
     37 CA         33.5600   34.6660   32.7140 C.3       4 GLP5        0.0000 
     38 CA         35.7865   39.1215   30.7890 C.3       2 GLC5        0.0000 
     39 CA         37.8110   38.7010   31.0620 C.3       6 GLL5        0.0000 
     40 CA         33.7620   39.5420   30.5160 C.3       4 GLP5        0.0000 
     41 CA         40.1595   37.4045   29.7695 C.3       2 GLC5        0.0000 
     42 CA         39.0190   39.2610   30.3200 C.3       6 GLL5        0.0000 
     43 CA         41.3000   35.5480   29.2190 C.3       4 GLP5        0.0000 
     44 CA         40.0565   38.3000   28.0260 C.3       2 GLC5        0.0000 
     45 CA         38.6450   39.6660   28.9020 C.3       6 GLL5        0.0000 
     46 CA         41.4680   36.9340   27.1500 C.3       4 GLP5        0.0000 
     47 CA         38.8530   44.9910   26.7280 C.3       2 GLC5        0.0000 
     48 CA         40.2040   43.1970   26.6490 C.3       6 GLL5        0.0000 
     49 CA         37.5020   46.7850   26.8070 C.3       4 GLP5        0.0000 
     50 CA         41.4380   44.4515   28.6205 C.3       2 GLC5        0.0000 
     51 CA         41.6600   43.6310   26.7130 C.3       6 GLL5        0.0000 
     52 CA         41.2160   45.2720   30.5280 C.3       4 GLP5        0.0000 
     53 CA         42.1670   41.4840   24.7140 C.3       2 GLC5        0.0000 
     54 CA         42.5830   42.4770   26.3400 C.3       6 GLL5        0.0000 
     55 CA         41.7510   40.4910   23.0880 C.3       4 GLP5        0.0000 
     56 CA         44.5845   42.5470   29.3510 C.3       2 GLC5        0.0000 
     57 CA         43.8120   42.5640   27.2660 C.3       6 GLL5        0.0000 
     58 CA         45.3570   42.5300   31.4360 C.3       4 GLP5        0.0000 
     59 CA         42.4365   42.8505   29.9405 C.3       2 GLC5        0.0000 
     60 CA         43.4390   41.6140   28.4120 C.3       6 GLL5        0.0000 
     61 CA         41.4340   44.0870   31.4690 C.3       4 GLP5        0.0000 
     62 CA         45.9240   40.8775   27.4635 C.3       2 GLC5        0.0000 
     63 CA         44.2640   39.6730   27.2710 C.3       6 GLL5        0.0000 
     64 CA         47.5840   42.0820   27.6560 C.3       4 GLP5        0.0000 
     65 CA         37.5645   36.4255   36.3600 C.3       2 GLC5        0.0000 
     66 CA         37.2940   37.8410   37.8320 C.3       4 GLP5        0.0000 
     67 CA         41.9289   34.1302   38.4348 C.3       2 GLC5        0.0000 
     68 CA         44.0628   33.1146   37.9965 C.3       2 GLC5        0.0000 
     69 CA         45.3680   32.9360   39.3240 C.3       4 GLP5        0.0000 
     70 CA         39.7469   39.1380   32.4924 C.3       2 GLC5        0.0000 
     71 CA         38.2340   37.5090   31.9050 C.3       6 GLL5        0.0000 
     72 CA         40.9730   39.5930   34.0830 C.3       4 GLP5        0.0000 
     73 CA         37.2882   42.8912   28.8693 C.3       2 GLC5        0.0000 
     74 CA         38.0650   41.0780   28.9140 C.3       6 GLL5        0.0000 
     75 CA         36.3270   44.3470   29.4700 C.3       4 GLP5        0.0000 
     76 CA         42.7207   43.8470   24.6593 C.3       2 GLC5        0.0000 
     77 CA         43.3200   44.6400   22.7920 C.3       4 GLP5        0.0000 
     78 CA         44.4513   42.2383   25.5045 C.3       2 GLC5        0.0000 
     79 CA         45.7050   41.9560   24.2060 C.3       4 GLP5        0.0000 
     80 CA         45.6047   42.0855   27.7475 C.3       2 GLC5        0.0000 
     81 CA         43.4504   44.4165   26.8466 C.3       2 GLC5        0.0000 
     82 CA         43.9340   46.0240   26.7970 C.3       4 GLP5        0.0000 
     83 CA         45.7193   38.6180   26.2007 C.3       2 GLC5        0.0000 
     84 CA         44.0350   38.7330   26.1220 C.3       6 GLL5        0.0000 
     85 CA         47.2890   38.0330   25.7050 C.3       4 GLP5        0.0000 
     86 CA         44.9273   40.5795   25.4513 C.3       2 GLC5        0.0000 
     87 CA         43.6855   40.1880   29.5384 C.3       2 GLC5        0.0000 
     88 CA         43.6370   40.0460   31.4220 C.3       4 GLP5        0.0000 
     89 CA         42.6469   38.1544   26.9725 C.3       2 GLC5        0.0000 
     90 CA         42.9690   40.3600   27.6650 C.3       6 GLL5        0.0000 
     91 CA         43.0344   39.3084   25.1010 C.3       2 GLC5        0.0000 
     92 CA         42.2430   39.2420   23.4070 C.3       4 GLP5        0.0000 
@<TRIPOS>BOND
@<TRIPOS>SUBSTRUCTURE
     1 SEC2       23 GROUP        1 X    SEC  0     ROOT SEC X 2
     2 GLC5        1 GROUP        1 X    GLC  0     **** GLC X 6
     3 SEP2       25 GROUP        1 Y    SEP  0     ROOT SEP Y 9
     4 GLP5        3 GROUP        1 Y    GLP  0     **** GLP Y 13
     5 SEL2       24 GROUP        1 Z    SEL  0     ROOT SEL Z 16
     6 GLL5        2 GROUP        1 Z    GLL  0     **** GLL Z 20
@<TRIPOS>SET

