#    Name: 1fxf_MJI_1_ligand
#    Modification time : Tue Mar 25 02:09:44 2014

@<TRIPOS>MOLECULE
1fxf_MJI_1_ligand
   75    74     1     0     0
SMALL
NO_CHARGES


@<TRIPOS>ATOM
      1 C1         37.3590   35.3540   34.4220 C.3       1 MJI297      0.0000 
      2 O1         37.8800   36.6110   34.0690 O.3       1 MJI297      0.0000 
      3 C2         38.3110   34.6660   35.3540 C.3       1 MJI297      0.0000 
      4 O2         37.8060   33.4000   35.8410 O.3       1 MJI297      0.0000 
      5 C3         39.5950   34.3900   34.6160 C.3       1 MJI297      0.0000 
      6 O3         40.4760   33.7700   35.5310 O.3       1 MJI297      0.0000 
      7 C31        41.6410   34.5430   35.6430 C.3       1 MJI297      0.0000 
      8 C32        42.5920   33.8500   36.5590 C.3       1 MJI297      0.0000 
      9 F31        42.5450   34.3830   37.7890 F         1 MJI297      0.0000 
     10 F32        43.8480   33.9620   36.1140 F         1 MJI297      0.0000 
     11 F33        42.3070   32.5470   36.6940 F         1 MJI297      0.0000 
     12 P2         37.5720   33.3000   37.4460 P.3       1 MJI297      0.0000 
     13 O21        36.7530   32.0710   37.7790 O.co2     1 MJI297      0.0000 
     14 O22        37.0400   34.6510   37.8730 O.co2     1 MJI297      0.0000 
     15 C2P        39.6890   31.8160   37.7260 C.3       1 MJI297      0.0000 
     16 O23        39.0660   33.1040   37.9380 O.3       1 MJI297      0.0000 
     17 C11        37.2150   37.2160   32.9930 C.3       1 MJI297      0.0000 
     18 C12        38.2340   37.5090   31.9050 C.3       1 MJI297      0.0000 
     19 C13        37.8110   38.7010   31.0620 C.3       1 MJI297      0.0000 
     20 C14        39.0190   39.2610   30.3200 C.3       1 MJI297      0.0000 
     21 C15        38.6450   39.6660   28.9020 C.3       1 MJI297      0.0000 
     22 C16        38.0650   41.0780   28.9140 C.3       1 MJI297      0.0000 
     23 C17        38.4340   41.7930   27.6230 C.3       1 MJI297      0.0000 
     24 C18        39.9480   42.0060   27.5630 C.3       1 MJI297      0.0000 
     25 C19        40.2040   43.1970   26.6490 C.3       1 MJI297      0.0000 
     26 C20        41.6600   43.6310   26.7130 C.3       1 MJI297      0.0000 
     27 C21        42.5830   42.4770   26.3400 C.3       1 MJI297      0.0000 
     28 C22        43.8120   42.5640   27.2660 C.3       1 MJI297      0.0000 
     29 C23        43.4390   41.6140   28.4120 C.3       1 MJI297      0.0000 
     30 C24        42.9690   40.3600   27.6650 C.3       1 MJI297      0.0000 
     31 C25        44.2640   39.6730   27.2710 C.3       1 MJI297      0.0000 
     32 C26        44.0350   38.7330   26.1220 C.3       1 MJI297      0.0000 
     33 H          37.2138   34.7083   33.5433 H         1 MJI297      0.0000 
     34 H          36.3864   35.4403   34.9288 H         1 MJI297      0.0000 
     35 H          38.5424   35.3260   36.1779 H         1 MJI297      0.0000 
     36 H          39.9876   35.3370   34.2469 H         1 MJI297      0.0000 
     37 H          39.3692   33.7477   33.7654 H         1 MJI297      0.0000 
     38 H          41.4330   35.5419   36.0521 H         1 MJI297      0.0000 
     39 H          42.1362   34.6820   34.6715 H         1 MJI297      0.0000 
     40 H          36.7450   38.1643   33.2724 H         1 MJI297      0.0000 
     41 H          36.4445   36.5693   32.5613 H         1 MJI297      0.0000 
     42 H          38.3384   36.6320   31.2625 H         1 MJI297      0.0000 
     43 H          39.2026   37.7179   32.3643 H         1 MJI297      0.0000 
     44 H          37.3959   39.4705   31.7051 H         1 MJI297      0.0000 
     45 H          37.0609   38.3881   30.3427 H         1 MJI297      0.0000 
     46 H          39.8018   38.5032   30.2847 H         1 MJI297      0.0000 
     47 H          39.3981   40.1312   30.8561 H         1 MJI297      0.0000 
     48 H          37.9047   38.9775   28.5119 H         1 MJI297      0.0000 
     49 H          39.5284   39.6465   28.2747 H         1 MJI297      0.0000 
     50 H          38.4692   41.6245   29.7591 H         1 MJI297      0.0000 
     51 H          36.9854   41.0214   29.0010 H         1 MJI297      0.0000 
     52 H          37.9364   42.7564   27.5864 H         1 MJI297      0.0000 
     53 H          38.1242   41.1927   26.7741 H         1 MJI297      0.0000 
     54 H          40.4167   41.1288   27.1557 H         1 MJI297      0.0000 
     55 H          40.3185   42.2192   28.5490 H         1 MJI297      0.0000 
     56 H          39.5658   44.0277   26.9536 H         1 MJI297      0.0000 
     57 H          39.9534   42.9233   25.6231 H         1 MJI297      0.0000 
     58 H          41.8935   43.9657   27.7231 H         1 MJI297      0.0000 
     59 H          41.8216   44.4578   26.0223 H         1 MJI297      0.0000 
     60 H          42.9011   42.5788   25.3213 H         1 MJI297      0.0000 
     61 H          42.0836   41.5427   26.5038 H         1 MJI297      0.0000 
     62 H          43.9101   43.5471   27.6326 H         1 MJI297      0.0000 
     63 H          44.6623   42.2002   26.7608 H         1 MJI297      0.0000 
     64 H          42.6401   42.0203   28.9667 H         1 MJI297      0.0000 
     65 H          44.2961   41.3899   28.9831 H         1 MJI297      0.0000 
     66 H          42.4285   40.6452   26.7989 H         1 MJI297      0.0000 
     67 H          42.4136   39.7425   28.3236 H         1 MJI297      0.0000 
     68 H          44.6503   39.1195   28.1290 H         1 MJI297      0.0000 
     69 H          44.9982   40.4297   26.9878 H         1 MJI297      0.0000 
     70 H          40.6274   31.7960   38.0710 H         1 MJI297      0.0000 
     71 H          39.1911   31.0821   38.1880 H         1 MJI297      0.0000 
     72 H          39.7284   31.5777   36.7556 H         1 MJI297      0.0000 
     73 H          44.8779   38.2705   25.8469 H         1 MJI297      0.0000 
     74 H          43.3714   38.0209   26.3513 H         1 MJI297      0.0000 
     75 H          43.6859   39.2103   25.3156 H         1 MJI297      0.0000 
@<TRIPOS>BOND
     1    2    1 1    
     2    3    1 1    
     3   33    1 1    
     4   34    1 1    
     5   17    2 1    
     6    4    3 1    
     7    5    3 1    
     8   35    3 1    
     9   12    4 1    
    10    6    5 1    
    11   36    5 1    
    12   37    5 1    
    13    7    6 1    
    14    8    7 1    
    15   38    7 1    
    16   39    7 1    
    17    9    8 1    
    18   10    8 1    
    19   11    8 1    
    20   13   12 ar   
    21   14   12 ar   
    22   16   12 1    
    23   16   15 1    
    24   70   15 1    
    25   71   15 1    
    26   72   15 1    
    27   18   17 1    
    28   40   17 1    
    29   41   17 1    
    30   19   18 1    
    31   42   18 1    
    32   43   18 1    
    33   20   19 1    
    34   44   19 1    
    35   45   19 1    
    36   21   20 1    
    37   46   20 1    
    38   47   20 1    
    39   22   21 1    
    40   48   21 1    
    41   49   21 1    
    42   23   22 1    
    43   50   22 1    
    44   51   22 1    
    45   24   23 1    
    46   52   23 1    
    47   53   23 1    
    48   25   24 1    
    49   54   24 1    
    50   55   24 1    
    51   26   25 1    
    52   56   25 1    
    53   57   25 1    
    54   27   26 1    
    55   58   26 1    
    56   59   26 1    
    57   28   27 1    
    58   60   27 1    
    59   61   27 1    
    60   29   28 1    
    61   62   28 1    
    62   63   28 1    
    63   30   29 1    
    64   64   29 1    
    65   65   29 1    
    66   31   30 1    
    67   66   30 1    
    68   67   30 1    
    69   32   31 1    
    70   68   31 1    
    71   69   31 1    
    72   73   32 1    
    73   74   32 1    
    74   75   32 1    
@<TRIPOS>SUBSTRUCTURE
     1 MJI297      1 GROUP   
@<TRIPOS>SET

