#    Name: 1XK9_2_CAVITY_N1_ALL.mol2
#    Modification time : Mon Mar 10 18:31:34 2014

@<TRIPOS>MOLECULE
1XK9_2_CAVITY_N1_ALL.mol2
   64     0     5     0     0
SMALL
NO_CHARGES


@<TRIPOS>ATOM
      1 CA         31.1690   20.2371   71.5719 C.3       4 GLY6        0.0000 
      2 OG         30.9209   21.6415   71.1068 O.2       1 SER1        0.0000 
      3 CA         30.0064   19.7605   70.7526 C.3       4 GLY6        0.0000 
      4 O          29.7583   21.1648   70.2876 O.2       2 ALA2        0.0000 
      5 CA         28.8438   19.2838   69.9333 C.3       4 GLY6        0.0000 
      6 CA         28.5957   20.6882   69.4683 C.3       4 GLY6        0.0000 
      7 N          28.3477   22.0925   69.0033 N.2       2 ALA2        0.0000 
      8 CA         27.9293   17.4028   69.5791 C.3       4 GLY6        0.0000 
      9 CZ         27.6812   18.8072   69.1141 C.ar      3 PHE5        0.0000 
     10 CZ         27.4331   20.2115   68.6490 C.ar      3 PHE5        0.0000 
     11 N          27.1851   21.6159   68.1840 N.2       2 ALA2        0.0000 
     12 CZ         26.2705   19.7349   67.8298 C.ar      3 PHE5        0.0000 
     13 CA         28.8435   21.3898   71.4548 C.3       4 GLY6        0.0000 
     14 CA         27.6809   20.9131   70.6356 C.3       4 GLY6        0.0000 
     15 CZ         32.9988   17.6813   67.7158 C.ar      3 PHE5        0.0000 
     16 DU         32.7508   19.0856   67.2507 H         5 CUB7        0.0000 
     17 CZ         31.8362   17.2046   66.8965 C.ar      3 PHE5        0.0000 
     18 DU         31.5882   18.6090   66.4315 H         5 CUB7        0.0000 
     19 DU         31.3401   20.0134   65.9664 H         5 CUB7        0.0000 
     20 CZ         27.8523   18.5834   63.5087 C.ar      3 PHE5        0.0000 
     21 N          27.1859   15.2981   63.6195 N.2       2 ALA2        0.0000 
     22 N          26.9378   16.7024   63.1544 N.2       2 ALA2        0.0000 
     23 CZ         34.1611   20.2639   70.0566 C.ar      3 PHE5        0.0000 
     24 CA         32.9986   19.7872   69.2373 C.3       4 GLY6        0.0000 
     25 CA         32.7505   21.1916   68.7723 C.3       4 GLY6        0.0000 
     26 CA         32.0840   17.9062   68.8831 C.3       4 GLY6        0.0000 
     27 CA         31.8360   19.3106   68.4180 C.3       4 GLY6        0.0000 
     28 CA         31.5879   20.7149   67.9530 C.3       4 GLY6        0.0000 
     29 OG         31.1695   16.0252   68.5288 O.2       1 SER1        0.0000 
     30 OG         30.9214   17.4296   68.0638 O.2       1 SER1        0.0000 
     31 DU         30.6734   18.8339   67.5988 H         5 CUB7        0.0000 
     32 DU         30.4253   20.2383   67.1337 H         5 CUB7        0.0000 
     33 CA         30.1773   21.6427   66.6687 C.3       4 GLY6        0.0000 
     34 OG         30.0069   15.5486   67.7096 O.2       1 SER1        0.0000 
     35 DU         29.7588   16.9529   67.2445 H         5 CUB7        0.0000 
     36 DU         29.5108   18.3573   66.7795 H         5 CUB7        0.0000 
     37 CZ         29.2627   19.7617   66.3145 C.ar      3 PHE5        0.0000 
     38 N          29.0147   21.1660   65.8494 N.2       2 ALA2        0.0000 
     39 N          28.8443   15.0719   66.8903 N.2       2 ALA2        0.0000 
     40 DU         28.5963   16.4763   66.4253 H         5 CUB7        0.0000 
     41 CZ         28.3482   17.8807   65.9602 C.ar      3 PHE5        0.0000 
     42 CZ         28.1001   19.2850   65.4952 C.ar      3 PHE5        0.0000 
     43 DU         27.4337   15.9997   65.6060 H         5 CUB7        0.0000 
     44 CZ         27.1856   17.4040   65.1410 C.ar      3 PHE5        0.0000 
     45 N          26.2711   15.5230   64.7868 N.2       2 ALA2        0.0000 
     46 CA         33.2464   20.4888   71.2238 C.3       4 GLY6        0.0000 
     47 O          32.9983   21.8932   70.7588 O.2       2 ALA2        0.0000 
     48 CA         32.0838   20.0122   70.4046 C.3       4 GLY6        0.0000 
     49 O          31.8357   21.4165   69.9395 O.2       2 ALA2        0.0000 
     50 CA         30.9212   19.5355   69.5853 C.3       4 GLY6        0.0000 
     51 O          30.6731   20.9399   69.1203 O.2       2 ALA2        0.0000 
     52 CA         30.0066   17.6545   69.2311 C.3       4 GLY6        0.0000 
     53 DU         29.7586   19.0589   68.7661 H         5 CUB7        0.0000 
     54 DU         29.5105   20.4632   68.3010 H         5 CUB7        0.0000 
     55 N          29.2625   21.8676   67.8360 N.2       2 ALA2        0.0000 
     56 N          29.0921   15.7735   68.8769 N.2       2 ALA2        0.0000 
     57 N          28.8440   17.1779   68.4118 N.2       2 ALA2        0.0000 
     58 DU         28.5960   18.5822   67.9468 H         5 CUB7        0.0000 
     59 CZ         28.3479   19.9866   67.4818 C.ar      3 PHE5        0.0000 
     60 N          28.0999   21.3910   67.0167 N.2       2 ALA2        0.0000 
     61 N          27.6815   16.7012   67.5926 N.2       2 ALA2        0.0000 
     62 CZ         27.4334   18.1056   67.1275 C.ar      3 PHE5        0.0000 
     63 CZ         26.5189   16.2246   66.7733 C.ar      3 PHE5        0.0000 
     64 CZ         26.2708   17.6290   66.3083 C.ar      3 PHE5        0.0000 
@<TRIPOS>BOND
@<TRIPOS>SUBSTRUCTURE
     1 SER1        2 GROUP   
     2 ALA2        4 GROUP   
     3 PHE5        9 GROUP   
     4 GLY6        1 GROUP   
     5 CUB7       16 GROUP   
@<TRIPOS>SET

