#    Name: 1XK9_2_CAVITY_N1_6.mol2
#    Modification time : Mon Mar 10 18:31:34 2014

@<TRIPOS>MOLECULE
1XK9_2_CAVITY_N1_6.mol2
   17     0     4     0     0
SMALL
NO_CHARGES


@<TRIPOS>ATOM
      1 CZ         31.8362   17.2046   66.8965 C.ar      3 PHE5        0.0000 
      2 N          27.1859   15.2981   63.6195 N.2       2 ALA2        0.0000 
      3 N          26.9378   16.7024   63.1544 N.2       2 ALA2        0.0000 
      4 OG         31.1695   16.0252   68.5288 O.2       1 SER1        0.0000 
      5 OG         30.9214   17.4296   68.0638 O.2       1 SER1        0.0000 
      6 OG         30.0069   15.5486   67.7096 O.2       1 SER1        0.0000 
      7 DU         29.7588   16.9529   67.2445 H         4 CUB7        0.0000 
      8 N          28.8443   15.0719   66.8903 N.2       2 ALA2        0.0000 
      9 DU         28.5963   16.4763   66.4253 H         4 CUB7        0.0000 
     10 CZ         28.3482   17.8807   65.9602 C.ar      3 PHE5        0.0000 
     11 DU         27.4337   15.9997   65.6060 H         4 CUB7        0.0000 
     12 CZ         27.1856   17.4040   65.1410 C.ar      3 PHE5        0.0000 
     13 N          26.2711   15.5230   64.7868 N.2       2 ALA2        0.0000 
     14 N          29.0921   15.7735   68.8769 N.2       2 ALA2        0.0000 
     15 N          28.8440   17.1779   68.4118 N.2       2 ALA2        0.0000 
     16 N          27.6815   16.7012   67.5926 N.2       2 ALA2        0.0000 
     17 CZ         26.5189   16.2246   66.7733 C.ar      3 PHE5        0.0000 
@<TRIPOS>BOND
@<TRIPOS>SUBSTRUCTURE
     1 SER1        4 GROUP   
     2 ALA2        2 GROUP   
     3 PHE5        1 GROUP   
     4 CUB7        7 GROUP   
@<TRIPOS>SET

