#    Name: 1xk9_P34_2_INTS_M
#    Modification time : Mon Apr  7 15:20:53 2014

@<TRIPOS>MOLECULE
1xk9_P34_2_INTS_M
   39     0     9     0     0
SMALL
NO_CHARGES


@<TRIPOS>ATOM
      1 CA         33.5260   11.8360   64.7995 C.3       3 GLC5        0.0000 
      2 CA         31.6560   12.1620   64.0720 C.3       9 GLL5        0.0000 
      3 CA         35.3960   11.5100   65.5270 C.3       6 GLP5        0.0000 
      4 O          33.4535   11.0855   63.4650 O.2       1 ALC1        0.0000 
      5 O          32.4720   12.3140   62.8500 O.2       7 ALL1        0.0000 
      6 O          34.4350    9.8570   64.0800 O.2       4 ALP1        0.0000 
      7 CA         34.4830   12.3925   64.2955 C.3       3 GLC5        0.0000 
      8 CA         33.5700   13.2750   63.0640 C.3       9 GLL5        0.0000 
      9 CA         22.5700    6.6440   66.1150 C.3       3 GLC5        0.0000 
     10 CA         23.2280    8.6850   66.4200 C.3       9 GLL5        0.0000 
     11 CA         21.9120    4.6030   65.8100 C.3       6 GLP5        0.0000 
     12 N          26.1560   10.4975   70.4805 N.am      2 SEC2        0.0000 
     13 N          25.6800   10.5320   69.3950 N.am      8 SEL2        0.0000 
     14 N          26.6320   10.4630   71.5660 N.am      5 SEP2        0.0000 
     15 O          28.0700   11.2225   68.9805 O.2       1 ALC1        0.0000 
     16 O          27.2770   11.2040   67.9160 O.2       7 ALL1        0.0000 
     17 O          28.8630   11.2410   70.0450 O.2       4 ALP1        0.0000 
     18 CA         25.5580   11.6220   64.7735 C.3       3 GLC5        0.0000 
     19 CA         27.0770   10.7110   65.4960 C.3       9 GLL5        0.0000 
     20 CA         23.7250   12.4680   64.7230 C.3       6 GLP5        0.0000 
     21 CA         28.4947    9.7963   66.9692 C.3       3 GLC5        0.0000 
     22 CA         29.5460    8.5930   67.8950 C.3       6 GLP5        0.0000 
     23 CA         24.5433   11.0850   64.9982 C.3       3 GLC5        0.0000 
     24 CA         25.7710   10.0190   65.7850 C.3       9 GLL5        0.0000 
     25 CA         23.5910   10.5877   65.2380 C.3       3 GLC5        0.0000 
     26 CA         23.6860    8.7300   65.0860 C.3       9 GLL5        0.0000 
     27 CA         21.7635    8.0473   64.8265 C.3       3 GLC5        0.0000 
     28 CA         20.0700    7.3870   63.9000 C.3       6 GLP5        0.0000 
     29 CA         22.2180    7.8803   67.8215 C.3       3 GLC5        0.0000 
     30 CA         24.0020    9.2920   67.4640 C.3       9 GLL5        0.0000 
     31 CA         20.8210    6.7720   68.7010 C.3       6 GLP5        0.0000 
     32 CA         24.1808   11.0442   66.0210 C.3       3 GLC5        0.0000 
     33 CA         24.9888    8.1472   68.7375 C.3       3 GLC5        0.0000 
     34 CA         25.2710    9.9490   67.1740 C.3       9 GLL5        0.0000 
     35 CA         25.3410    6.6740   70.1560 C.3       6 GLP5        0.0000 
     36 CA         22.8930   10.3464   67.7830 C.3       3 GLC5        0.0000 
     37 CA         21.3430   11.2240   68.5080 C.3       6 GLP5        0.0000 
     38 CA         29.4567   10.3172   66.8185 C.3       3 GLC5        0.0000 
     39 CA         29.0760   11.9860   66.4080 C.3       9 GLL5        0.0000 
@<TRIPOS>BOND
@<TRIPOS>SUBSTRUCTURE
     1 ALC1        4 GROUP        1 X    ALC  0     ROOT ALC X 1
     2 SEC2       12 GROUP        1 X    SEC  0     **** SEC X 2
     3 GLC5        1 GROUP        1 X    GLC  0     **** GLC X 6
     4 ALP1        6 GROUP        1 Y    ALP  0     ROOT ALP Y 8
     5 SEP2       14 GROUP        1 Y    SEP  0     **** SEP Y 9
     6 GLP5        3 GROUP        1 Y    GLP  0     **** GLP Y 13
     7 ALL1        5 GROUP        1 Z    ALL  0     ROOT ALL Z 15
     8 SEL2       13 GROUP        1 Z    SEL  0     **** SEL Z 16
     9 GLL5        2 GROUP        1 Z    GLL  0     **** GLL Z 20
@<TRIPOS>SET

