#    Name: 1xk9_P34_2_ligand
#    Modification time : Mon Apr  7 15:20:53 2014

@<TRIPOS>MOLECULE
1xk9_P34_2_ligand
   40    42     1     0     0
SMALL
NO_CHARGES


@<TRIPOS>ATOM
      1 CAA        31.6560   12.1620   64.0720 C.3       1 P342001     0.0000 
      2 N          32.4720   12.3140   62.8500 N.4       1 P342001     0.0000 
      3 CAB        33.5700   13.2750   63.0640 C.3       1 P342001     0.0000 
      4 CA         31.6170   12.7420   61.6660 C.3       1 P342001     0.0000 
      5 C          30.0980   12.3220   61.6110 C.2       1 P342001     0.0000 
      6 O          29.4440   12.6940   60.6110 O.2       1 P342001     0.0000 
      7 NAM        29.3880   11.5440   62.5820 N.am      1 P342001     0.0000 
      8 CAP        28.9950   11.5500   63.9250 C.ar      1 P342001     0.0000 
      9 CAK        27.7050   10.8410   64.1520 C.ar      1 P342001     0.0000 
     10 CAU        27.0770   10.7110   65.4960 C.ar      1 P342001     0.0000 
     11 CAT        25.7710   10.0190   65.7850 C.ar      1 P342001     0.0000 
     12 CAI        24.9520    9.3850   64.7620 C.ar      1 P342001     0.0000 
     13 CAF        23.6860    8.7300   65.0860 C.ar      1 P342001     0.0000 
     14 CAE        23.2280    8.6850   66.4200 C.ar      1 P342001     0.0000 
     15 CAH        24.0020    9.2920   67.4640 C.ar      1 P342001     0.0000 
     16 CAS        25.2710    9.9490   67.1740 C.ar      1 P342001     0.0000 
     17 CAQ        26.0270   10.5480   68.2150 C.2       1 P342001     0.0000 
     18 OAD        25.6800   10.5320   69.3950 O.2       1 P342001     0.0000 
     19 NAN        27.2770   11.2040   67.9160 N.am      1 P342001     0.0000 
     20 CAR        27.8100   11.2880   66.5910 C.ar      1 P342001     0.0000 
     21 CAJ        29.0760   11.9860   66.4080 C.ar      1 P342001     0.0000 
     22 CAG        29.6590   12.0970   65.0760 C.ar      1 P342001     0.0000 
     23 H          32.9093   11.3369   62.5963 H         1 P342001     0.0000 
     24 H          32.0935   12.3747   60.7168 H         1 P342001     0.0000 
     25 H          31.6514   13.8615   61.5735 H         1 P342001     0.0000 
     26 H          29.0034   10.5538   62.0589 H         1 P342001     0.0000 
     27 H          27.2312   10.4265   63.3521 H         1 P342001     0.0000 
     28 H          25.2675    9.3968   63.7935 H         1 P342001     0.0000 
     29 H          23.1497    8.3119   64.3317 H         1 P342001     0.0000 
     30 H          22.3508    8.2248   66.6517 H         1 P342001     0.0000 
     31 H          23.6692    9.2692   68.4251 H         1 P342001     0.0000 
     32 H          27.8055   11.6294   68.6951 H         1 P342001     0.0000 
     33 H          29.5471   12.3905   67.1985 H         1 P342001     0.0000 
     34 H          30.5529   12.5723   64.9691 H         1 P342001     0.0000 
     35 H          32.2006   11.8338   64.8438 H         1 P342001     0.0000 
     36 H          31.2423   13.0281   64.3525 H         1 P342001     0.0000 
     37 H          30.9096   11.5094   63.9414 H         1 P342001     0.0000 
     38 H          34.1810   12.9830   63.7998 H         1 P342001     0.0000 
     39 H          34.1312   13.3864   62.2438 H         1 P342001     0.0000 
     40 H          33.2273   14.1817   63.3100 H         1 P342001     0.0000 
@<TRIPOS>BOND
     1    2    1 1    
     2   35    1 1    
     3   36    1 1    
     4   37    1 1    
     5    3    2 1    
     6    4    2 1    
     7   23    2 1    
     8   38    3 1    
     9   39    3 1    
    10   40    3 1    
    11    5    4 1    
    12   24    4 1    
    13   25    4 1    
    14    6    5 2    
    15    7    5 am   
    16    8    7 1    
    17   26    7 1    
    18    9    8 ar   
    19   22    8 ar   
    20   10    9 ar   
    21   27    9 1    
    22   11   10 1    
    23   20   10 ar   
    24   12   11 ar   
    25   16   11 ar   
    26   13   12 ar   
    27   28   12 1    
    28   14   13 ar   
    29   29   13 1    
    30   15   14 ar   
    31   30   14 1    
    32   16   15 ar   
    33   31   15 1    
    34   17   16 1    
    35   18   17 2    
    36   19   17 am   
    37   20   19 1    
    38   32   19 1    
    39   21   20 ar   
    40   22   21 ar   
    41   33   21 1    
    42   34   22 1    
@<TRIPOS>SUBSTRUCTURE
     1 P342001     1 GROUP   
@<TRIPOS>SET

