#    Name: 2vt4_P32_4_INTS_M
#    Modification time : Tue Mar 25 02:51:45 2014

@<TRIPOS>MOLECULE
2vt4_P32_4_INTS_M
   56     0    12     0     0
SMALL
NO_CHARGES


@<TRIPOS>ATOM
      1 N          37.4790   15.4640  -38.0085 N.am      2 SEC2        0.0000 
      2 N          38.2430   15.4650  -36.6710 N.am     10 SEL2        0.0000 
      3 N          36.7150   15.4630  -39.3460 N.am      6 SEP2        0.0000 
      4 O          39.1670   14.8730  -36.0425 O.2       1 ALC1        0.0000 
      5 O          38.2430   15.4650  -36.6710 O.2       9 ALL1        0.0000 
      6 O          40.0910   14.2810  -35.4140 O.2       5 ALP1        0.0000 
      7 CA         38.3130   17.2460  -37.4945 C.3       4 GLC5        0.0000 
      8 CA         37.5030   16.2160  -35.7310 C.3      12 GLL5        0.0000 
      9 CA         39.1230   18.2760  -39.2580 C.3       8 GLP5        0.0000 
     10 N          33.1725   21.5265  -31.9775 N.am      2 SEC2        0.0000 
     11 N          33.4570   20.5920  -30.6020 N.am     10 SEL2        0.0000 
     12 N          32.8880   22.4610  -33.3530 N.am      6 SEP2        0.0000 
     13 OD1        37.2360   13.5600  -35.6015 O.co2     3 ASC3        0.0000 
     14 OD1        35.9220   14.3460  -35.5690 O.co2    11 ASL3        0.0000 
     15 OD1        38.5500   12.7740  -35.6340 O.co2     7 ASP3        0.0000 
     16 CA         32.9050   14.4750  -32.7695 C.3       4 GLC5        0.0000 
     17 CA         33.7110   14.4850  -34.4630 C.3      12 GLL5        0.0000 
     18 CA         32.0990   14.4650  -31.0760 C.3       8 GLP5        0.0000 
     19 CA         35.2905   10.9095  -33.5975 C.3       4 GLC5        0.0000 
     20 CA         35.6060   13.1130  -33.4100 C.3      12 GLL5        0.0000 
     21 CA         34.9750    8.7060  -33.7850 C.3       8 GLP5        0.0000 
     22 CA         35.9930   13.0795  -31.3865 C.3       4 GLC5        0.0000 
     23 CA         36.3800   13.0460  -29.3630 C.3       8 GLP5        0.0000 
     24 CA         33.8525   13.7890  -32.2430 C.3       4 GLC5        0.0000 
     25 CA         40.3430   17.3155  -35.5955 C.3       4 GLC5        0.0000 
     26 CA         38.5000   16.9660  -34.8560 C.3      12 GLL5        0.0000 
     27 CA         42.1860   17.6650  -36.3350 C.3       8 GLP5        0.0000 
     28 CA         40.5890   17.6975  -32.5155 C.3       4 GLC5        0.0000 
     29 CA         39.7070   19.2470  -33.5090 C.3      12 GLL5        0.0000 
     30 CA         41.4710   16.1480  -31.5220 C.3       8 GLP5        0.0000 
     31 N          36.7795   21.5825  -29.8565 N.am      2 SEC2        0.0000 
     32 N          36.9080   20.8570  -30.9900 N.am     10 SEL2        0.0000 
     33 N          36.6510   22.3080  -28.7230 N.am      6 SEP2        0.0000 
     34 CA         34.6675   18.5865  -30.3855 C.3       4 GLC5        0.0000 
     35 CA         34.5010   20.4540  -31.0310 C.3      12 GLL5        0.0000 
     36 CA         34.8340   16.7190  -29.7400 C.3       8 GLP5        0.0000 
     37 CA         34.7130   20.1445  -28.9870 C.3       4 GLC5        0.0000 
     38 CA         34.9250   19.8350  -26.9430 C.3       8 GLP5        0.0000 
     39 CA         33.4955   21.9965  -29.7815 C.3       4 GLC5        0.0000 
     40 CA         32.4900   23.5390  -28.5320 C.3       8 GLP5        0.0000 
     41 CA         34.9140   10.5630  -35.3475 C.3       4 GLC5        0.0000 
     42 CA         34.5370   12.3400  -35.5460 C.3      12 GLL5        0.0000 
     43 CA         35.2910    8.7860  -35.1490 C.3       8 GLP5        0.0000 
     44 CA         36.3975   17.5382  -35.8611 C.3       4 GLC5        0.0000 
     45 CA         36.6530   15.3460  -34.7860 C.3      12 GLL5        0.0000 
     46 CA         35.0060   18.7030  -36.6650 C.3       8 GLP5        0.0000 
     47 CA         38.5870   17.7085  -31.7730 C.3       4 GLC5        0.0000 
     48 CA         38.3520   18.9820  -33.5700 C.3      12 GLL5        0.0000 
     49 CA         39.2570   16.1400  -30.4270 C.3       8 GLP5        0.0000 
     50 CA         41.4468   19.2325  -34.3648 C.3       4 GLC5        0.0000 
     51 CA         42.9480   18.7830  -35.7060 C.3       8 GLP5        0.0000 
     52 CA         40.9223   21.6753  -31.5670 C.3       4 GLC5        0.0000 
     53 CA         40.1840   20.1170  -32.5380 C.3      12 GLL5        0.0000 
     54 CA         42.0930   22.9280  -31.0480 C.3       8 GLP5        0.0000 
     55 CA         39.8916   19.1336  -30.8017 C.3       4 GLC5        0.0000 
     56 CA         40.9280   17.8310  -29.7110 C.3       8 GLP5        0.0000 
@<TRIPOS>BOND
@<TRIPOS>SUBSTRUCTURE
     1 ALC1        4 GROUP        1 X    ALC  0     ROOT ALC X 1
     2 SEC2        1 GROUP        1 X    SEC  0     **** SEC X 2
     3 ASC3       13 GROUP        1 X    ASC  0     **** ASC X 3
     4 GLC5        7 GROUP        1 X    GLC  0     **** GLC X 6
     5 ALP1        6 GROUP        1 Y    ALP  0     ROOT ALP Y 8
     6 SEP2        3 GROUP        1 Y    SEP  0     **** SEP Y 9
     7 ASP3       15 GROUP        1 Y    ASP  0     **** ASP Y 10
     8 GLP5        9 GROUP        1 Y    GLP  0     **** GLP Y 13
     9 ALL1        5 GROUP        1 Z    ALL  0     ROOT ALL Z 15
    10 SEL2        2 GROUP        1 Z    SEL  0     **** SEL Z 16
    11 ASL3       14 GROUP        1 Z    ASL  0     **** ASL Z 17
    12 GLL5        8 GROUP        1 Z    GLL  0     **** GLL Z 20
@<TRIPOS>SET

