#    Name: 2vt4_P32_4_ligand
#    Modification time : Tue Mar 25 02:51:45 2014

@<TRIPOS>MOLECULE
2vt4_P32_4_ligand
   41    42     1     0     0
SMALL
NO_CHARGES


@<TRIPOS>ATOM
      1 O2         38.2430   15.4650  -36.6710 O.3       1 P32400      0.0000 
      2 C10        37.5030   16.2160  -35.7310 C.3       1 P32400      0.0000 
      3 N3         33.4570   20.5920  -30.6020 N.1       1 P32400      0.0000 
      4 C11        36.6530   15.3460  -34.7860 C.3       1 P32400      0.0000 
      5 N2         35.9220   14.3460  -35.5690 N.4       1 P32400      0.0000 
      6 C12        34.9540   13.5930  -34.7410 C.3       1 P32400      0.0000 
      7 C15        33.7110   14.4850  -34.4630 C.3       1 P32400      0.0000 
      8 C13        35.6060   13.1130  -33.4100 C.3       1 P32400      0.0000 
      9 C9         38.5000   16.9660  -34.8560 C.3       1 P32400      0.0000 
     10 O1         37.8550   18.1830  -34.5340 O.3       1 P32400      0.0000 
     11 C4         38.3520   18.9820  -33.5700 C.ar      1 P32400      0.0000 
     12 C5         39.7070   19.2470  -33.5090 C.ar      1 P32400      0.0000 
     13 C6         40.1840   20.1170  -32.5380 C.ar      1 P32400      0.0000 
     14 C7         39.3190   20.7280  -31.6340 C.ar      1 P32400      0.0000 
     15 C8         37.9590   20.4500  -31.6990 C.ar      1 P32400      0.0000 
     16 C3         37.4820   19.5720  -32.6680 C.ar      1 P32400      0.0000 
     17 N1         36.9080   20.8570  -30.9900 N.2       1 P32400      0.0000 
     18 C1         35.8330   20.2670  -31.5250 C.2       1 P32400      0.0000 
     19 C2         36.1730   19.4730  -32.5220 C.3       1 P32400      0.0000 
     20 C16        34.5010   20.4540  -31.0310 C.1       1 P32400      0.0000 
     21 C14        34.5370   12.3400  -35.5460 C.3       1 P32400      0.0000 
     22 H          36.8644   16.9444  -36.1867 H         1 P32400      0.0000 
     23 H          35.9683   16.0002  -34.2484 H         1 P32400      0.0000 
     24 H          37.3222   14.8710  -34.0702 H         1 P32400      0.0000 
     25 H          39.4020   17.1147  -35.4287 H         1 P32400      0.0000 
     26 H          38.7018   16.3618  -33.9855 H         1 P32400      0.0000 
     27 H          40.3540   18.8081  -34.1711 H         1 P32400      0.0000 
     28 H          41.1989   20.3159  -32.4837 H         1 P32400      0.0000 
     29 H          39.6823   21.3751  -30.9293 H         1 P32400      0.0000 
     30 H          35.8632   18.4129  -32.3252 H         1 P32400      0.0000 
     31 H          35.6349   19.7488  -33.4669 H         1 P32400      0.0000 
     32 H          33.9572   15.3246  -33.9789 H         1 P32400      0.0000 
     33 H          33.2531   14.7580  -35.3090 H         1 P32400      0.0000 
     34 H          33.0321   14.0115  -33.9019 H         1 P32400      0.0000 
     35 H          36.3894   12.5138  -33.5751 H         1 P32400      0.0000 
     36 H          35.9349   13.8804  -32.8597 H         1 P32400      0.0000 
     37 H          34.9600   12.6015  -32.8433 H         1 P32400      0.0000 
     38 H          35.3210   11.7562  -35.7570 H         1 P32400      0.0000 
     39 H          33.8797   11.7779  -35.0441 H         1 P32400      0.0000 
     40 H          34.1099   12.5832  -36.4169 H         1 P32400      0.0000 
     41 H          39.1632   15.4016  -36.2847 H         1 P32400      0.0000 
@<TRIPOS>BOND
     1    2    1 1    
     2   41    1 1    
     3    4    2 1    
     4    9    2 1    
     5   22    2 1    
     6   20    3 3    
     7    5    4 1    
     8   23    4 1    
     9   24    4 1    
    10    6    5 1    
    11    7    6 1    
    12    8    6 1    
    13   21    6 1    
    14   32    7 1    
    15   33    7 1    
    16   34    7 1    
    17   35    8 1    
    18   36    8 1    
    19   37    8 1    
    20   10    9 1    
    21   25    9 1    
    22   26    9 1    
    23   11   10 1    
    24   12   11 ar   
    25   16   11 ar   
    26   13   12 ar   
    27   27   12 1    
    28   14   13 ar   
    29   28   13 1    
    30   15   14 ar   
    31   29   14 1    
    32   16   15 ar   
    33   17   15 1    
    34   19   16 1    
    35   18   17 2    
    36   19   18 1    
    37   20   18 1    
    38   30   19 1    
    39   31   19 1    
    40   38   21 1    
    41   39   21 1    
    42   40   21 1    
@<TRIPOS>SUBSTRUCTURE
     1 P32400      1 GROUP   
@<TRIPOS>SET

