#    Name: 4li7_1XP_2_INTS_M
#    Modification time : Tue Apr  8 00:01:22 2014

@<TRIPOS>MOLECULE
4li7_1XP_2_INTS_M
   79     0     6     0     0
SMALL
NO_CHARGES


@<TRIPOS>ATOM
      1 CA        -47.3700    4.5540   19.2355 C.3       2 GLC5        0.0000 
      2 CA        -48.1680    5.1040   21.2080 C.3       6 GLL5        0.0000 
      3 CA        -46.5720    4.0040   17.2630 C.3       4 GLP5        0.0000 
      4 CA        -46.2870    5.2070   21.8070 C.3       2 GLC5        0.0000 
      5 CA        -44.4060    5.3100   22.4060 C.3       4 GLP5        0.0000 
      6 CA        -49.9490    5.7205   22.0575 C.3       2 GLC5        0.0000 
      7 CA        -51.7300    6.3370   22.9070 C.3       4 GLP5        0.0000 
      8 CA        -47.4215    7.6050   29.2245 C.3       2 GLC5        0.0000 
      9 CA        -48.2840    7.6660   27.3920 C.3       6 GLL5        0.0000 
     10 CA        -46.5590    7.5440   31.0570 C.3       4 GLP5        0.0000 
     11 CA        -49.1030    6.7880   29.2375 C.3       2 GLC5        0.0000 
     12 CA        -49.9220    5.9100   31.0830 C.3       4 GLP5        0.0000 
     13 CA        -49.5795    8.7875   28.3275 C.3       2 GLC5        0.0000 
     14 CA        -50.8750    9.9090   29.2630 C.3       4 GLP5        0.0000 
     15 CA        -49.9805    7.7415   26.3165 C.3       2 GLC5        0.0000 
     16 CA        -51.6770    7.8170   25.2410 C.3       4 GLP5        0.0000 
     17 CA        -50.1415    1.6260   23.0965 C.3       2 GLC5        0.0000 
     18 CA        -48.6860    0.9450   24.0180 C.3       6 GLL5        0.0000 
     19 CA        -51.5970    2.3070   22.1750 C.3       4 GLP5        0.0000 
     20 CA        -46.5185    8.1240   24.4595 C.3       2 GLC5        0.0000 
     21 CA        -48.0390    9.2830   24.6930 C.3       6 GLL5        0.0000 
     22 CA        -44.9980    6.9650   24.2260 C.3       4 GLP5        0.0000 
     23 CA        -49.0435   11.0005   25.0685 C.3       2 GLC5        0.0000 
     24 CA        -50.0480   12.7180   25.4440 C.3       4 GLP5        0.0000 
     25 CA        -49.8325    8.8665   24.3605 C.3       2 GLC5        0.0000 
     26 CA        -51.6260    8.4500   24.0280 C.3       4 GLP5        0.0000 
     27 N         -48.4550    7.4670   29.5115 N.am      1 SEC2        0.0000 
     28 N         -48.1750    8.3150   28.3550 N.am      5 SEL2        0.0000 
     29 N         -48.7350    6.6190   30.6680 N.am      3 SEP2        0.0000 
     30 N         -48.4455    9.4045   29.2420 N.am      1 SEC2        0.0000 
     31 N         -48.7160   10.4940   30.1290 N.am      3 SEP2        0.0000 
     32 CA        -45.7070    0.0445   29.6120 C.3       2 GLC5        0.0000 
     33 CA        -46.1220   -0.3170   27.4760 C.3       6 GLL5        0.0000 
     34 CA        -45.2920    0.4060   31.7480 C.3       4 GLP5        0.0000 
     35 N         -41.6850   -1.3520   28.6650 N.am      1 SEC2        0.0000 
     36 N         -43.1320   -0.8090   28.5430 N.am      5 SEL2        0.0000 
     37 N         -40.2380   -1.8950   28.7870 N.am      3 SEP2        0.0000 
     38 CA        -41.7060   -1.8550   30.4165 C.3       2 GLC5        0.0000 
     39 CA        -43.2260   -3.2390   30.0820 C.3       6 GLL5        0.0000 
     40 CA        -40.1860   -0.4710   30.7510 C.3       4 GLP5        0.0000 
     41 CA        -44.6380   -4.8335   27.5115 C.3       2 GLC5        0.0000 
     42 CA        -45.2790   -3.8010   28.7910 C.3       6 GLL5        0.0000 
     43 CA        -43.9970   -5.8660   26.2320 C.3       4 GLP5        0.0000 
     44 CA        -43.4035   -7.3845   32.5640 C.3       2 GLC5        0.0000 
     45 CA        -44.5870   -6.5140   31.2250 C.3       6 GLL5        0.0000 
     46 CA        -42.2200   -8.2550   33.9030 C.3       4 GLP5        0.0000 
     47 CA        -46.7365    5.9925   24.2675 C.3       2 GLC5        0.0000 
     48 CA        -48.5340    4.6840   24.9500 C.3       6 GLL5        0.0000 
     49 CA        -50.2250    5.4283   26.1038 C.3       2 GLC5        0.0000 
     50 CA        -51.9390    5.7660   26.6400 C.3       4 GLP5        0.0000 
     51 CA        -46.7057    6.5805   25.1943 C.3       2 GLC5        0.0000 
     52 CA        -48.4880    5.4970   26.1850 C.3       6 GLL5        0.0000 
     53 CA        -46.6240    7.0750   24.2318 C.3       2 GLC5        0.0000 
     54 CA        -48.2300    7.5640   24.8370 C.3       6 GLL5        0.0000 
     55 CA        -50.1118    6.4977   26.0643 C.3       2 GLC5        0.0000 
     56 CA        -44.2195   -1.2615   23.4778 C.3       2 GLC5        0.0000 
     57 CA        -44.2870   -0.8700   25.8400 C.3       6 GLL5        0.0000 
     58 CA        -43.6470   -1.7310   21.6950 C.3       4 GLP5        0.0000 
     59 CA        -48.0337    0.8300   28.0147 C.3       2 GLC5        0.0000 
     60 CA        -47.0890   -0.2050   26.2310 C.3       6 GLL5        0.0000 
     61 CA        -49.4620    1.9210   29.1760 C.3       4 GLP5        0.0000 
     62 CA        -47.4734   -1.4043   27.7119 C.3       2 GLC5        0.0000 
     63 CA        -49.1330   -1.9950   28.4530 C.3       4 GLP5        0.0000 
     64 CA        -44.4995   -2.8345   25.8186 C.3       2 GLC5        0.0000 
     65 CA        -45.0220   -1.3660   27.0880 C.3       6 GLL5        0.0000 
     66 CA        -44.0920   -4.5900   25.4630 C.3       4 GLP5        0.0000 
     67 CA        -43.4595   -4.6478   28.4213 C.3       2 GLC5        0.0000 
     68 CA        -43.2110   -6.2260   27.2730 C.3       4 GLP5        0.0000 
     69 CA        -44.0018   -2.2369   31.3016 C.3       2 GLC5        0.0000 
     70 CA        -43.3830   -4.4460   30.7870 C.3       6 GLL5        0.0000 
     71 CA        -44.4580   -0.7160   32.4250 C.3       4 GLP5        0.0000 
     72 CA        -41.8662   -3.9999   29.2071 C.3       2 GLC5        0.0000 
     73 CA        -40.1870   -4.2420   28.2360 C.3       4 GLP5        0.0000 
     74 CA        -46.5956   -3.3299   29.9507 C.3       2 GLC5        0.0000 
     75 CA        -45.4220   -5.0310   29.5250 C.3       6 GLL5        0.0000 
     76 CA        -48.1130   -2.4690   30.6770 C.3       4 GLP5        0.0000 
     77 CA        -45.4080   -5.6016   32.0804 C.3       2 GLC5        0.0000 
     78 CA        -46.1860   -5.4640   33.5030 C.3       4 GLP5        0.0000 
     79 CA        -43.9205   -5.9826   28.9654 C.3       2 GLC5        0.0000 
@<TRIPOS>BOND
@<TRIPOS>SUBSTRUCTURE
     1 SEC2       27 GROUP        1 X    SEC  0     ROOT SEC X 2
     2 GLC5        1 GROUP        1 X    GLC  0     **** GLC X 6
     3 SEP2       29 GROUP        1 Y    SEP  0     ROOT SEP Y 9
     4 GLP5        3 GROUP        1 Y    GLP  0     **** GLP Y 13
     5 SEL2       28 GROUP        1 Z    SEL  0     ROOT SEL Z 16
     6 GLL5        2 GROUP        1 Z    GLL  0     **** GLL Z 20
@<TRIPOS>SET

