#    Name: 4li7_1XP_2_ligand
#    Modification time : Tue Apr  8 00:01:22 2014

@<TRIPOS>MOLECULE
4li7_1XP_2_ligand
   55    57     1     0     0
SMALL
NO_CHARGES


@<TRIPOS>ATOM
      1 C1        -48.5340    4.6840   24.9500 C.ar      1 1XP1404     0.0000 
      2 C2        -48.4160    5.3560   23.6680 C.ar      1 1XP1404     0.0000 
      3 C3        -48.4880    5.4970   26.1850 C.ar      1 1XP1404     0.0000 
      4 C4        -48.6890    3.1890   25.1010 C.2       1 1XP1404     0.0000 
      5 C5        -48.2700    6.8060   23.6380 C.ar      1 1XP1404     0.0000 
      6 O1        -48.4480    4.5680   22.5230 O.3       1 1XP1404     0.0000 
      7 C6        -48.3390    6.8950   26.1400 C.ar      1 1XP1404     0.0000 
      8 N1        -48.5750    2.4000   24.0290 N.am      1 1XP1404     0.0000 
      9 O2        -48.9050    2.7070   26.2180 O.2       1 1XP1404     0.0000 
     10 C7        -48.2300    7.5640   24.8370 C.ar      1 1XP1404     0.0000 
     11 C8        -48.1680    5.1040   21.2080 C.3       1 1XP1404     0.0000 
     12 C9        -48.2840    7.6660   27.3920 C.1       1 1XP1404     0.0000 
     13 C10       -48.6860    0.9450   24.0180 C.3       1 1XP1404     0.0000 
     14 CL1       -48.0390    9.2830   24.6930 Cl        1 1XP1404     0.0000 
     15 N2        -48.1750    8.3150   28.3550 N.1       1 1XP1404     0.0000 
     16 C11       -47.3080    0.2470   23.8020 C.3       1 1XP1404     0.0000 
     17 N3        -46.4030    0.2230   24.9800 N.4       1 1XP1404     0.0000 
     18 C12       -45.2970   -0.7140   24.6810 C.3       1 1XP1404     0.0000 
     19 C13       -47.0890   -0.2050   26.2310 C.3       1 1XP1404     0.0000 
     20 C14       -44.2870   -0.8700   25.8400 C.3       1 1XP1404     0.0000 
     21 C15       -46.1220   -0.3170   27.4760 C.3       1 1XP1404     0.0000 
     22 C16       -45.0220   -1.3660   27.0880 C.3       1 1XP1404     0.0000 
     23 C17       -44.0400   -1.6090   28.2780 C.2       1 1XP1404     0.0000 
     24 C18       -44.1900   -2.9000   29.0570 C.ar      1 1XP1404     0.0000 
     25 O3        -43.1320   -0.8090   28.5430 O.2       1 1XP1404     0.0000 
     26 C19       -43.2260   -3.2390   30.0820 C.ar      1 1XP1404     0.0000 
     27 C20       -45.2790   -3.8010   28.7910 C.ar      1 1XP1404     0.0000 
     28 C21       -43.3830   -4.4460   30.7870 C.ar      1 1XP1404     0.0000 
     29 C22       -45.4220   -5.0310   29.5250 C.ar      1 1XP1404     0.0000 
     30 C23       -44.4650   -5.3500   30.5250 C.ar      1 1XP1404     0.0000 
     31 F1        -44.5870   -6.5140   31.2250 F         1 1XP1404     0.0000 
     32 H         -48.5689    5.0026   27.0763 H         1 1XP1404     0.0000 
     33 H         -48.1966    7.2684   22.7311 H         1 1XP1404     0.0000 
     34 H         -48.3845    2.8294   23.0671 H         1 1XP1404     0.0000 
     35 H         -49.3544    0.6025   23.2143 H         1 1XP1404     0.0000 
     36 H         -49.0964    0.5696   24.9671 H         1 1XP1404     0.0000 
     37 H         -46.8108    0.7555   22.9469 H         1 1XP1404     0.0000 
     38 H         -47.5137   -0.7896   23.4554 H         1 1XP1404     0.0000 
     39 H         -45.9807    1.2133   25.1221 H         1 1XP1404     0.0000 
     40 H         -44.7382   -0.3769   23.7899 H         1 1XP1404     0.0000 
     41 H         -45.6961   -1.7163   24.4443 H         1 1XP1404     0.0000 
     42 H         -47.5610   -1.1894   26.0983 H         1 1XP1404     0.0000 
     43 H         -47.8836    0.5057   26.5013 H         1 1XP1404     0.0000 
     44 H         -43.8335    0.0888   26.0435 H         1 1XP1404     0.0000 
     45 H         -43.5318   -1.5875   25.5550 H         1 1XP1404     0.0000 
     46 H         -46.6721   -0.6743   28.3086 H         1 1XP1404     0.0000 
     47 H         -45.6670    0.6253   27.6448 H         1 1XP1404     0.0000 
     48 H         -45.5209   -2.2924   26.8572 H         1 1XP1404     0.0000 
     49 H         -42.4628   -2.6095   30.2732 H         1 1XP1404     0.0000 
     50 H         -45.9615   -3.5651   28.0706 H         1 1XP1404     0.0000 
     51 H         -42.7007   -4.7007   31.5218 H         1 1XP1404     0.0000 
     52 H         -46.1917   -5.6501   29.3262 H         1 1XP1404     0.0000 
     53 H         -47.2471    5.4899   21.1526 H         1 1XP1404     0.0000 
     54 H         -48.2348    4.4021   20.4989 H         1 1XP1404     0.0000 
     55 H         -48.8065    5.8326   20.9603 H         1 1XP1404     0.0000 
@<TRIPOS>BOND
     1    2    1 ar   
     2    3    1 ar   
     3    4    1 1    
     4    5    2 ar   
     5    6    2 1    
     6    7    3 ar   
     7   32    3 1    
     8    8    4 am   
     9    9    4 2    
    10   10    5 ar   
    11   33    5 1    
    12   11    6 1    
    13   10    7 ar   
    14   12    7 1    
    15   13    8 1    
    16   34    8 1    
    17   14   10 1    
    18   53   11 1    
    19   54   11 1    
    20   55   11 1    
    21   15   12 3    
    22   16   13 1    
    23   35   13 1    
    24   36   13 1    
    25   17   16 1    
    26   37   16 1    
    27   38   16 1    
    28   18   17 1    
    29   19   17 1    
    30   39   17 1    
    31   20   18 1    
    32   40   18 1    
    33   41   18 1    
    34   21   19 1    
    35   42   19 1    
    36   43   19 1    
    37   22   20 1    
    38   44   20 1    
    39   45   20 1    
    40   22   21 1    
    41   46   21 1    
    42   47   21 1    
    43   23   22 1    
    44   48   22 1    
    45   24   23 1    
    46   25   23 2    
    47   26   24 ar   
    48   27   24 ar   
    49   28   26 ar   
    50   49   26 1    
    51   29   27 ar   
    52   50   27 1    
    53   30   28 ar   
    54   51   28 1    
    55   30   29 ar   
    56   52   29 1    
    57   31   30 1    
@<TRIPOS>SUBSTRUCTURE
     1 1XP1404     1 GROUP   
@<TRIPOS>SET

