#    Name: 2vj7_VG6_1_INTS_M
#    Modification time : Tue Mar 25 01:54:23 2014

@<TRIPOS>MOLECULE
2vj7_VG6_1_INTS_M
   95     0    12     0     0
SMALL
NO_CHARGES


@<TRIPOS>ATOM
      1 CA         32.1565    2.1275   36.2720 C.3       4 GLC5        0.0000 
      2 CA         30.9830    0.3370   36.3820 C.3      12 GLL5        0.0000 
      3 CA         33.3300    3.9180   36.1620 C.3       8 GLP5        0.0000 
      4 CA         28.6155   -0.8075   36.8675 C.3       4 GLC5        0.0000 
      5 CA         30.4780   -2.0280   36.7810 C.3      12 GLL5        0.0000 
      6 CA         26.7530    0.4130   36.9540 C.3       8 GLP5        0.0000 
      7 O          28.0560    0.7365   33.8445 O.2       1 ALC1        0.0000 
      8 O          29.2570    1.5530   33.4700 O.2       9 ALL1        0.0000 
      9 O          26.8550   -0.0800   34.2190 O.2       5 ALP1        0.0000 
     10 N          32.7265    2.0640   34.1005 N.am      2 SEC2        0.0000 
     11 N          31.2730    2.2560   34.1810 N.am     10 SEL2        0.0000 
     12 N          34.1800    1.8720   34.0200 N.am      6 SEP2        0.0000 
     13 O          26.0370    4.0670   32.0600 O.2       1 ALC1        0.0000 
     14 O          27.6930    4.5680   31.9430 O.2       9 ALL1        0.0000 
     15 O          24.3810    3.5660   32.1770 O.2       5 ALP1        0.0000 
     16 O          26.6895    4.2390   31.1930 O.2       1 ALC1        0.0000 
     17 O          25.6860    3.9100   30.4430 O.2       5 ALP1        0.0000 
     18 OD1        26.2860    4.8045   34.8615 O.co2     3 ASC3        0.0000 
     19 OD1        27.8840    5.7190   34.4990 O.co2    11 ASL3        0.0000 
     20 OD1        24.6880    3.8900   35.2240 O.co2     7 ASP3        0.0000 
     21 OD1        27.1280    5.2325   35.4215 O.co2     3 ASC3        0.0000 
     22 OD1        26.3720    4.7460   36.3440 O.co2     7 ASP3        0.0000 
     23 CA         29.9905   -4.3285   30.8030 C.3       4 GLC5        0.0000 
     24 CA         29.6190   -2.1400   30.4790 C.3      12 GLL5        0.0000 
     25 CA         30.3620   -6.5170   31.1270 C.3       8 GLP5        0.0000 
     26 CA         31.4565    1.9870   30.9510 C.3       4 GLC5        0.0000 
     27 CA         30.4300    0.1430   30.7200 C.3      12 GLL5        0.0000 
     28 CA         32.4830    3.8310   31.1820 C.3       8 GLP5        0.0000 
     29 O          28.5305   -3.8680   36.3705 O.2       1 ALC1        0.0000 
     30 O          29.3610   -3.3620   35.1550 O.2       9 ALL1        0.0000 
     31 O          27.7000   -4.3740   37.5860 O.2       5 ALP1        0.0000 
     32 CA         29.5820   -5.1035   32.4835 C.3       4 GLC5        0.0000 
     33 CA         28.8020   -3.6900   33.8400 C.3      12 GLL5        0.0000 
     34 CA         25.6115   -4.3510   33.3605 C.3       4 GLC5        0.0000 
     35 CA         27.2780   -3.5580   33.8770 C.3      12 GLL5        0.0000 
     36 CA         23.9450   -5.1440   32.8440 C.3       8 GLP5        0.0000 
     37 CA         30.4755   -1.1990   41.9290 C.3       4 GLC5        0.0000 
     38 CA         32.0530   -0.8140   40.8040 C.3      12 GLL5        0.0000 
     39 CA         28.8980   -1.5840   43.0540 C.3       8 GLP5        0.0000 
     40 CA         33.5350    1.6950   38.0405 C.3       4 GLC5        0.0000 
     41 CA         32.9760   -0.1430   38.6670 C.3      12 GLL5        0.0000 
     42 CA         34.0940    3.5330   37.4140 C.3       8 GLP5        0.0000 
     43 N          28.5010   -1.6180   39.0215 N.am      2 SEC2        0.0000 
     44 N          29.9670   -1.5870   39.8270 N.am     10 SEL2        0.0000 
     45 N          27.0350   -1.6490   38.2160 N.am      6 SEP2        0.0000 
     46 N          28.6990   -1.7145   40.4650 N.am      2 SEC2        0.0000 
     47 N          27.4310   -1.8420   41.1030 N.am      6 SEP2        0.0000 
     48 CA         27.9620    8.7390   34.8130 C.3       4 GLC5        0.0000 
     49 CA         28.6360    6.8770   35.0540 C.3      12 GLL5        0.0000 
     50 CA         27.2880   10.6010   34.5720 C.3       8 GLP5        0.0000 
     51 CA         27.3750    7.5975   36.5015 C.3       4 GLC5        0.0000 
     52 CA         26.1140    8.3180   37.9490 C.3       8 GLP5        0.0000 
     53 CA         30.2260    6.9660   30.2655 C.3       4 GLC5        0.0000 
     54 CA         29.9620    9.1520   30.5850 C.3      12 GLL5        0.0000 
     55 CA         30.4900    4.7800   29.9460 C.3       8 GLP5        0.0000 
     56 CA         27.2590   10.8295   31.1470 C.3       4 GLC5        0.0000 
     57 CA         28.9280    9.9810   30.7320 C.3      12 GLL5        0.0000 
     58 CA         25.5900   11.6780   31.5620 C.3       8 GLP5        0.0000 
     59 CA         28.1080   10.2910   32.6520 C.3       4 GLC5        0.0000 
     60 CA         30.6540    7.6080   28.3660 C.3       4 GLC5        0.0000 
     61 CA         29.6230    8.1470   29.7990 C.3      12 GLL5        0.0000 
     62 CA         31.6850    7.0690   26.9330 C.3       8 GLP5        0.0000 
     63 CA         29.6390    6.4985   29.3225 C.3       4 GLC5        0.0000 
     64 CA         29.6550    4.8500   28.8460 C.3       8 GLP5        0.0000 
     65 CA         31.3270    8.4450   28.4760 C.3       4 GLC5        0.0000 
     66 CA         30.9690    9.8210   30.0190 C.3      12 GLL5        0.0000 
     67 CA         28.8850   -3.0095   37.5470 C.3       4 GLC5        0.0000 
     68 CA         29.8760   -2.1360   35.5170 C.3      12 GLL5        0.0000 
     69 CA         27.5930   -3.9370   38.9450 C.3       8 GLP5        0.0000 
     70 CA         31.9730   -0.4575   34.4910 C.3       4 GLC5        0.0000 
     71 CA         29.8320   -0.9890   34.6750 C.3      12 GLL5        0.0000 
     72 CA         33.8390   -0.5460   34.0920 C.3       8 GLP5        0.0000 
     73 CA         28.4355   -0.1214   36.0272 C.3       4 GLC5        0.0000 
     74 CA         30.3820    0.2510   35.1050 C.3      12 GLL5        0.0000 
     75 CA         32.4245   -0.3883   35.4505 C.3       4 GLC5        0.0000 
     76 CA         29.5290    0.4717   37.9010 C.3       4 GLC5        0.0000 
     77 CA         28.0480    1.1740   38.9930 C.3       8 GLP5        0.0000 
     78 CA         29.7437    3.5805   30.8678 C.3       4 GLC5        0.0000 
     79 CA         29.0870    2.6410   32.5160 C.3      12 GLL5        0.0000 
     80 CA         29.4535    4.4778   31.7315 C.3       4 GLC5        0.0000 
     81 CA         28.0860    3.7260   32.9980 C.3      12 GLL5        0.0000 
     82 CA         26.6750   -2.0435   30.3038 C.3       4 GLC5        0.0000 
     83 CA         28.0220   -0.3000   30.8230 C.3      12 GLL5        0.0000 
     84 CA         25.1950   -3.0980   29.8820 C.3       8 GLP5        0.0000 
     85 CA         27.5523    1.1360   29.4651 C.3       4 GLC5        0.0000 
     86 CA         26.5920    1.7350   28.0350 C.3       8 GLP5        0.0000 
     87 CA         27.4730   -5.5335   33.5907 C.3       4 GLC5        0.0000 
     88 CA         26.9060   -7.4430   33.3230 C.3       8 GLP5        0.0000 
     89 CA         31.7521    1.1124   40.4066 C.3       4 GLC5        0.0000 
     90 CA         30.6600    2.6410   41.2600 C.3       8 GLP5        0.0000 
     91 CA         32.6475    6.6492   32.2422 C.3       4 GLC5        0.0000 
     92 CA         32.0670    7.9920   33.6960 C.3      12 GLL5        0.0000 
     93 CA         33.3980    5.0360   31.4190 C.3       8 GLP5        0.0000 
     94 CA         27.9830    7.8969   29.8994 C.3       4 GLC5        0.0000 
     95 CA         26.4320    6.9370   29.5700 C.3       8 GLP5        0.0000 
@<TRIPOS>BOND
@<TRIPOS>SUBSTRUCTURE
     1 ALC1        7 GROUP        1 X    ALC  0     ROOT ALC X 1
     2 SEC2       10 GROUP        1 X    SEC  0     **** SEC X 2
     3 ASC3       18 GROUP        1 X    ASC  0     **** ASC X 3
     4 GLC5        1 GROUP        1 X    GLC  0     **** GLC X 6
     5 ALP1        9 GROUP        1 Y    ALP  0     ROOT ALP Y 8
     6 SEP2       12 GROUP        1 Y    SEP  0     **** SEP Y 9
     7 ASP3       20 GROUP        1 Y    ASP  0     **** ASP Y 10
     8 GLP5        3 GROUP        1 Y    GLP  0     **** GLP Y 13
     9 ALL1        8 GROUP        1 Z    ALL  0     ROOT ALL Z 15
    10 SEL2       11 GROUP        1 Z    SEL  0     **** SEL Z 16
    11 ASL3       19 GROUP        1 Z    ASL  0     **** ASL Z 17
    12 GLL5        2 GROUP        1 Z    GLL  0     **** GLL Z 20
@<TRIPOS>SET

