#    Name: 2vj7_VG6_1_ligand
#    Modification time : Tue Mar 25 01:54:23 2014

@<TRIPOS>MOLECULE
2vj7_VG6_1_ligand
   75    78     1     0     0
SMALL
NO_CHARGES


@<TRIPOS>ATOM
      1 C1         29.8760   -2.1360   35.5170 C.ar      1 VG61448     0.0000 
      2 C2         29.8320   -0.9890   34.6750 C.ar      1 VG61448     0.0000 
      3 C3         30.3820    0.2510   35.1050 C.ar      1 VG61448     0.0000 
      4 C4         30.9830    0.3370   36.3820 C.ar      1 VG61448     0.0000 
      5 C5         31.0370   -0.7980   37.2360 C.ar      1 VG61448     0.0000 
      6 C6         30.4780   -2.0280   36.7810 C.ar      1 VG61448     0.0000 
      7 C7         30.3540    1.4370   34.2410 C.2       1 VG61448     0.0000 
      8 N8         29.2570    1.5530   33.4700 N.am      1 VG61448     0.0000 
      9 O9         31.2730    2.2560   34.1810 O.2       1 VG61448     0.0000 
     10 C10        29.0870    2.6410   32.5160 C.3       1 VG61448     0.0000 
     11 C11        28.9080    2.1210   31.0630 C.3       1 VG61448     0.0000 
     12 C12        28.0860    3.7260   32.9980 C.3       1 VG61448     0.0000 
     13 O13        27.6930    4.5680   31.9430 O.3       1 VG61448     0.0000 
     14 C14        29.0980    0.6270   30.8720 C.ar      1 VG61448     0.0000 
     15 C15        28.7480    4.6250   34.0360 C.3       1 VG61448     0.0000 
     16 N16        27.8840    5.7190   34.4990 N.4       1 VG61448     0.0000 
     17 C17        28.0220   -0.3000   30.8230 C.ar      1 VG61448     0.0000 
     18 C18        28.2880   -1.6780   30.6280 C.ar      1 VG61448     0.0000 
     19 C19        29.6190   -2.1400   30.4790 C.ar      1 VG61448     0.0000 
     20 C20        30.6920   -1.2270   30.5270 C.ar      1 VG61448     0.0000 
     21 C21        30.4300    0.1430   30.7200 C.ar      1 VG61448     0.0000 
     22 N38        29.3610   -3.3620   35.1550 N.pl3     1 VG61448     0.0000 
     23 C39        28.8020   -3.6900   33.8400 C.3       1 VG61448     0.0000 
     24 C41        27.2780   -3.5580   33.8770 C.3       1 VG61448     0.0000 
     25 N47        31.6340   -0.6980   38.4780 N.am      1 VG61448     0.0000 
     26 C48        31.0740   -1.0890   39.6640 C.2       1 VG61448     0.0000 
     27 C49        32.0530   -0.8140   40.8040 C.3       1 VG61448     0.0000 
     28 C50        33.3720   -0.5650   40.0750 C.3       1 VG61448     0.0000 
     29 C51        32.9760   -0.1430   38.6670 C.3       1 VG61448     0.0000 
     30 O58        29.9670   -1.5870   39.8270 O.2       1 VG61448     0.0000 
     31 C59        28.6360    6.8770   35.0540 C.3       1 VG61448     0.0000 
     32 C61        29.7010    7.4600   34.1320 C.ar      1 VG61448     0.0000 
     33 C64        31.0620    7.4600   34.5370 C.ar      1 VG61448     0.0000 
     34 C65        32.0670    7.9920   33.6960 C.ar      1 VG61448     0.0000 
     35 C66        31.7270    8.5330   32.4350 C.ar      1 VG61448     0.0000 
     36 C67        30.3600    8.5560   31.9820 C.ar      1 VG61448     0.0000 
     37 C68        29.3610    8.0040   32.8690 C.ar      1 VG61448     0.0000 
     38 C73        29.9620    9.1520   30.5850 C.3       1 VG61448     0.0000 
     39 F74        28.9280    9.9810   30.7320 F         1 VG61448     0.0000 
     40 F75        29.6230    8.1470   29.7990 F         1 VG61448     0.0000 
     41 F76        30.9690    9.8210   30.0190 F         1 VG61448     0.0000 
     42 H          29.4001   -1.0571   33.7504 H         1 VG61448     0.0000 
     43 H          31.3844    1.2246   36.6978 H         1 VG61448     0.0000 
     44 H          30.5213   -2.8507   37.4002 H         1 VG61448     0.0000 
     45 H          28.4760    0.8648   33.5222 H         1 VG61448     0.0000 
     46 H          30.1102    3.1916   32.4896 H         1 VG61448     0.0000 
     47 H          29.6209    2.6677   30.4141 H         1 VG61448     0.0000 
     48 H          27.8946    2.4092   30.7193 H         1 VG61448     0.0000 
     49 H          27.2537    3.2394   33.4620 H         1 VG61448     0.0000 
     50 H          29.6791    5.0312   33.5955 H         1 VG61448     0.0000 
     51 H          29.0585    3.9930   34.8905 H         1 VG61448     0.0000 
     52 H          27.0642    0.0266   30.9278 H         1 VG61448     0.0000 
     53 H          27.5125   -2.3448   30.5945 H         1 VG61448     0.0000 
     54 H          29.7978   -3.1350   30.3370 H         1 VG61448     0.0000 
     55 H          31.6504   -1.5569   30.4227 H         1 VG61448     0.0000 
     56 H          31.2096    0.8131   30.7530 H         1 VG61448     0.0000 
     57 H          29.3529   -4.1513   35.8573 H         1 VG61448     0.0000 
     58 H          29.0507   -4.7139   33.5558 H         1 VG61448     0.0000 
     59 H          29.1862   -3.0140   33.0742 H         1 VG61448     0.0000 
     60 H          32.1384   -1.6705   41.4186 H         1 VG61448     0.0000 
     61 H          31.7607    0.0583   41.3259 H         1 VG61448     0.0000 
     62 H          33.9369   -1.4686   40.0370 H         1 VG61448     0.0000 
     63 H          33.9030    0.2258   40.5544 H         1 VG61448     0.0000 
     64 H          32.9651    0.9273   38.6153 H         1 VG61448     0.0000 
     65 H          33.6726   -0.5634   37.9695 H         1 VG61448     0.0000 
     66 H          29.1262    6.5817   36.0079 H         1 VG61448     0.0000 
     67 H          27.9257    7.6900   35.3221 H         1 VG61448     0.0000 
     68 H          31.3165    7.0694   35.4497 H         1 VG61448     0.0000 
     69 H          33.0424    7.9852   34.0013 H         1 VG61448     0.0000 
     70 H          32.4547    8.9169   31.8264 H         1 VG61448     0.0000 
     71 H          28.3792    8.0121   32.5633 H         1 VG61448     0.0000 
     72 H          26.9913   -2.6309   34.1184 H         1 VG61448     0.0000 
     73 H          26.8651   -3.7713   32.9915 H         1 VG61448     0.0000 
     74 H          26.8679   -4.1757   34.5480 H         1 VG61448     0.0000 
     75 H          26.9188    4.1020   31.5147 H         1 VG61448     0.0000 
@<TRIPOS>BOND
     1    2    1 ar   
     2    6    1 ar   
     3   22    1 1    
     4    3    2 ar   
     5   42    2 1    
     6    4    3 ar   
     7    7    3 1    
     8    5    4 ar   
     9   43    4 1    
    10    6    5 ar   
    11   25    5 1    
    12   44    6 1    
    13    8    7 am   
    14    9    7 2    
    15   10    8 1    
    16   45    8 1    
    17   11   10 1    
    18   12   10 1    
    19   46   10 1    
    20   14   11 1    
    21   47   11 1    
    22   48   11 1    
    23   13   12 1    
    24   15   12 1    
    25   49   12 1    
    26   75   13 1    
    27   17   14 ar   
    28   21   14 ar   
    29   16   15 1    
    30   50   15 1    
    31   51   15 1    
    32   31   16 1    
    33   18   17 ar   
    34   52   17 1    
    35   19   18 ar   
    36   53   18 1    
    37   20   19 ar   
    38   54   19 1    
    39   21   20 ar   
    40   55   20 1    
    41   56   21 1    
    42   23   22 1    
    43   57   22 1    
    44   24   23 1    
    45   58   23 1    
    46   59   23 1    
    47   72   24 1    
    48   73   24 1    
    49   74   24 1    
    50   26   25 am   
    51   29   25 1    
    52   27   26 1    
    53   30   26 2    
    54   28   27 1    
    55   60   27 1    
    56   61   27 1    
    57   29   28 1    
    58   62   28 1    
    59   63   28 1    
    60   64   29 1    
    61   65   29 1    
    62   32   31 1    
    63   66   31 1    
    64   67   31 1    
    65   33   32 ar   
    66   37   32 ar   
    67   34   33 ar   
    68   68   33 1    
    69   35   34 ar   
    70   69   34 1    
    71   36   35 ar   
    72   70   35 1    
    73   37   36 ar   
    74   38   36 1    
    75   71   37 1    
    76   39   38 1    
    77   40   38 1    
    78   41   38 1    
@<TRIPOS>SUBSTRUCTURE
     1 VG61448     1 GROUP   
@<TRIPOS>SET

