#    Name: 4ekl_0RF_1_INTS_M
#    Modification time : Mon Mar 24 18:08:30 2014

@<TRIPOS>MOLECULE
4ekl_0RF_1_INTS_M
   91     0    12     0     0
SMALL
NO_CHARGES


@<TRIPOS>ATOM
      1 CA         26.5105    8.2705    5.9700 C.3       4 GLC5        0.0000 
      2 CA         25.1600    7.9790    7.1710 C.3      12 GLL5        0.0000 
      3 CA         27.8610    8.5620    4.7690 C.3       8 GLP5        0.0000 
      4 CA         25.2455    6.7830    5.7125 C.3       4 GLC5        0.0000 
      5 CA         25.3310    5.5870    4.2540 C.3       8 GLP5        0.0000 
      6 CA         23.1200    8.8915    7.1275 C.3       4 GLC5        0.0000 
      7 CA         21.0800    9.8040    7.0840 C.3       8 GLP5        0.0000 
      8 CA         24.7880    8.5060    8.9155 C.3       4 GLC5        0.0000 
      9 CA         24.4160    9.0330   10.6600 C.3       8 GLP5        0.0000 
     10 N          22.8645    8.1130    6.5115 N.am      2 SEC2        0.0000 
     11 N          24.0210    7.2970    6.9590 N.am     10 SEL2        0.0000 
     12 N          21.7080    8.9290    6.0640 N.am      6 SEP2        0.0000 
     13 CA         23.5075    2.4890    7.2130 C.3       4 GLC5        0.0000 
     14 CA         22.9610    4.1540    8.5900 C.3      12 GLL5        0.0000 
     15 CA         24.0540    0.8240    5.8360 C.3       8 GLP5        0.0000 
     16 CA         27.2675    3.1140    8.0730 C.3       4 GLC5        0.0000 
     17 CA         25.3100    3.1230    8.3060 C.3      12 GLL5        0.0000 
     18 CA         29.2250    3.1050    7.8400 C.3       8 GLP5        0.0000 
     19 CA         24.6820    1.9735    7.0710 C.3       4 GLC5        0.0000 
     20 O          21.3090    5.7000    6.1265 O.2       1 ALC1        0.0000 
     21 O          21.4930    5.8140    7.4390 O.2       9 ALL1        0.0000 
     22 O          21.1250    5.5860    4.8140 O.2       5 ALP1        0.0000 
     23 CA         29.0970    7.8655    7.8480 C.3       4 GLC5        0.0000 
     24 CA         28.2950    7.0940    9.3590 C.3      12 GLL5        0.0000 
     25 CA         29.8990    8.6370    6.3370 C.3       8 GLP5        0.0000 
     26 CA         28.9605    5.6540    8.0950 C.3       4 GLC5        0.0000 
     27 CA         29.6260    4.2140    6.8310 C.3       8 GLP5        0.0000 
     28 CA         30.7325    7.4155   10.0960 C.3       4 GLC5        0.0000 
     29 CA         28.6420    7.6690   10.7190 C.3      12 GLL5        0.0000 
     30 CA         32.8230    7.1620    9.4730 C.3       8 GLP5        0.0000 
     31 CA         27.6735    8.5805   12.4690 C.3       4 GLC5        0.0000 
     32 CA         26.7050    9.4920   14.2190 C.3       8 GLP5        0.0000 
     33 CA         26.5290    8.3510   10.6895 C.3       4 GLC5        0.0000 
     34 CA         27.1005    7.6455   13.0130 C.3       4 GLC5        0.0000 
     35 CA         27.4960    5.7990   11.8070 C.3      12 GLL5        0.0000 
     36 CA         28.2580    4.0985    9.1580 C.3       4 GLC5        0.0000 
     37 CA         27.2910    5.0920   10.4760 C.3      12 GLL5        0.0000 
     38 CA         32.4095    3.4395   13.8815 C.3       4 GLC5        0.0000 
     39 CA         31.0950    5.0640   14.3390 C.3      12 GLL5        0.0000 
     40 CA         33.7240    1.8150   13.4240 C.3       8 GLP5        0.0000 
     41 OD1        29.7115    7.1055   14.9120 O.co2     3 ASC3        0.0000 
     42 OD1        30.8550    6.2210   15.2380 O.co2    11 ASL3        0.0000 
     43 OD1        28.5680    7.9900   14.5860 O.co2     7 ASP3        0.0000 
     44 OD1        30.2695    5.4080   16.1800 O.co2     3 ASC3        0.0000 
     45 OD1        29.6840    4.5950   17.1220 O.co2     7 ASP3        0.0000 
     46 CA         32.5290    2.1615    9.0195 C.3       4 GLC5        0.0000 
     47 CA         31.3930    2.6080   10.7030 C.3      12 GLL5        0.0000 
     48 CA         33.6650    1.7150    7.3360 C.3       8 GLP5        0.0000 
     49 CA         31.9975    5.4605   10.4675 C.3       4 GLC5        0.0000 
     50 CA         31.1720    3.7590   11.4620 C.3      12 GLL5        0.0000 
     51 CA         32.7170   -0.7240    9.5275 C.3       4 GLC5        0.0000 
     52 CA         30.9000    0.0750   10.0030 C.3      12 GLL5        0.0000 
     53 CA         34.5340   -1.5230    9.0520 C.3       8 GLP5        0.0000 
     54 CA         32.2825    0.8950    8.6695 C.3       4 GLC5        0.0000 
     55 CA         30.0625    1.5900    8.9215 C.3       4 GLC5        0.0000 
     56 CA         29.6680   -0.4975    8.6750 C.3       4 GLC5        0.0000 
     57 CA         28.4360   -1.0700    7.3470 C.3       8 GLP5        0.0000 
     58 CA         31.0920   -1.8760    9.2930 C.3       4 GLC5        0.0000 
     59 CA         31.2840   -3.8270    8.5830 C.3       8 GLP5        0.0000 
     60 CA         29.8400    6.8355   17.7390 C.3       4 GLC5        0.0000 
     61 CA         31.4680    7.7290   17.0900 C.3      12 GLL5        0.0000 
     62 CA         28.2120    5.9420   18.3880 C.3       8 GLP5        0.0000 
     63 CA         22.1803    7.3635    7.9932 C.3       4 GLC5        0.0000 
     64 CA         23.9010    6.0920    7.5630 C.3      12 GLL5        0.0000 
     65 CA         21.0450    9.1130    8.5000 C.3       8 GLP5        0.0000 
     66 CA         26.9330    5.3243    7.2743 C.3       4 GLC5        0.0000 
     67 CA         24.8660    5.6290    8.4410 C.3      12 GLL5        0.0000 
     68 CA         28.4130    4.6270    5.9970 C.3       8 GLP5        0.0000 
     69 CA         24.4749    6.7991    9.7990 C.3       4 GLC5        0.0000 
     70 CA         26.0400    6.4140    8.6620 C.3      12 GLL5        0.0000 
     71 CA         23.7380    7.4610   11.2660 C.3       8 GLP5        0.0000 
     72 CA         24.4439    5.5426    5.9800 C.3       4 GLC5        0.0000 
     73 CA         21.1403    4.1560    8.9860 C.3       4 GLC5        0.0000 
     74 CA         22.7300    5.1360    7.4100 C.3      12 GLL5        0.0000 
     75 CA         19.4350    3.6670    9.9720 C.3       8 GLP5        0.0000 
     76 CA         23.7282    5.8335   10.0340 C.3       4 GLC5        0.0000 
     77 CA         22.9187    3.7545   10.5890 C.3       4 GLC5        0.0000 
     78 CA         24.4760    4.2580    9.0140 C.3      12 GLL5        0.0000 
     79 CA         22.1190    3.3030   12.3760 C.3       8 GLP5        0.0000 
     80 CA         27.8193    9.1107    9.3380 C.3       4 GLC5        0.0000 
     81 CA         27.1700   10.8400    8.6370 C.3       8 GLP5        0.0000 
     82 CA         25.5657    6.4533   11.2037 C.3       4 GLC5        0.0000 
     83 CA         31.7440    2.4987   13.0085 C.3       4 GLC5        0.0000 
     84 CA         30.1590    3.7470   12.4600 C.3      12 GLL5        0.0000 
     85 CA         31.9112    1.6415   12.4383 C.3       4 GLC5        0.0000 
     86 CA         30.6020    1.4750   10.9550 C.3      12 GLL5        0.0000 
     87 CA         29.6617    2.2865    9.6463 C.3       4 GLC5        0.0000 
     88 CA         33.0577    3.6828   10.8732 C.3       4 GLC5        0.0000 
     89 CA         34.8330    4.1820   10.6640 C.3       8 GLP5        0.0000 
     90 CA         32.5032    2.4992   12.2532 C.3       4 GLC5        0.0000 
     91 CA         30.2538    3.1442    9.4612 C.3       4 GLC5        0.0000 
@<TRIPOS>BOND
@<TRIPOS>SUBSTRUCTURE
     1 ALC1       20 GROUP        1 X    ALC  0     ROOT ALC X 1
     2 SEC2       10 GROUP        1 X    SEC  0     **** SEC X 2
     3 ASC3       41 GROUP        1 X    ASC  0     **** ASC X 3
     4 GLC5        1 GROUP        1 X    GLC  0     **** GLC X 6
     5 ALP1       22 GROUP        1 Y    ALP  0     ROOT ALP Y 8
     6 SEP2       12 GROUP        1 Y    SEP  0     **** SEP Y 9
     7 ASP3       43 GROUP        1 Y    ASP  0     **** ASP Y 10
     8 GLP5        3 GROUP        1 Y    GLP  0     **** GLP Y 13
     9 ALL1       21 GROUP        1 Z    ALL  0     ROOT ALL Z 15
    10 SEL2       11 GROUP        1 Z    SEL  0     **** SEL Z 16
    11 ASL3       42 GROUP        1 Z    ASL  0     **** ASL Z 17
    12 GLL5        2 GROUP        1 Z    GLL  0     **** GLL Z 20
@<TRIPOS>SET

