#    Name: 4ekl_0RF_1_ligand
#    Modification time : Mon Mar 24 18:08:30 2014

@<TRIPOS>MOLECULE
4ekl_0RF_1_ligand
   63    66     1     0     0
SMALL
NO_CHARGES


@<TRIPOS>ATOM
      1 N1         26.1470    7.5890    8.0150 N.ar      1 0RF501      0.0000 
      2 C2         25.1600    7.9790    7.1710 C.ar      1 0RF501      0.0000 
      3 N3         24.0210    7.2970    6.9590 N.ar      1 0RF501      0.0000 
      4 C4         23.9010    6.0920    7.5630 C.ar      1 0RF501      0.0000 
      5 C5         24.8660    5.6290    8.4410 C.ar      1 0RF501      0.0000 
      6 C6         26.0400    6.4140    8.6620 C.ar      1 0RF501      0.0000 
      7 C7         22.7300    5.1360    7.4100 C.3       1 0RF501      0.0000 
      8 C8         22.9610    4.1540    8.5900 C.3       1 0RF501      0.0000 
      9 C9         24.4760    4.2580    9.0140 C.3       1 0RF501      0.0000 
     10 N10        27.1420    6.1680    9.4410 N.3       1 0RF501      0.0000 
     11 C11        25.3100    3.1230    8.3060 C.3       1 0RF501      0.0000 
     12 O12        21.4930    5.8140    7.4390 O.3       1 0RF501      0.0000 
     13 C13        28.2950    7.0940    9.3590 C.3       1 0RF501      0.0000 
     14 C14        28.6420    7.6690   10.7190 C.3       1 0RF501      0.0000 
     15 N15        28.7460    6.5550   11.7180 N.am      1 0RF501      0.0000 
     16 C16        27.4960    5.7990   11.8070 C.3       1 0RF501      0.0000 
     17 C17        27.2910    5.0920   10.4760 C.3       1 0RF501      0.0000 
     18 C18        29.8900    6.2380   12.3930 C.2       1 0RF501      0.0000 
     19 C19        29.9500    4.9860   13.2930 C.3       1 0RF501      0.0000 
     20 O20        30.9420    6.8670   12.2480 O.2       1 0RF501      0.0000 
     21 C21        30.1590    3.7470   12.4600 C.ar      1 0RF501      0.0000 
     22 C22        31.0950    5.0640   14.3390 C.3       1 0RF501      0.0000 
     23 N23        30.8550    6.2210   15.2380 N.4       1 0RF501      0.0000 
     24 C24        29.3690    2.6180   12.7260 C.ar      1 0RF501      0.0000 
     25 C25        29.5950    1.4610   11.9500 C.ar      1 0RF501      0.0000 
     26 C26        30.6020    1.4750   10.9550 C.ar      1 0RF501      0.0000 
     27 C27        31.3930    2.6080   10.7030 C.ar      1 0RF501      0.0000 
     28 C28        31.1720    3.7590   11.4620 C.ar      1 0RF501      0.0000 
     29 CL1        30.9000    0.0750   10.0030 Cl        1 0RF501      0.0000 
     30 C29        32.0110    6.7560   15.9950 C.3       1 0RF501      0.0000 
     31 C30        31.4680    7.7290   17.0900 C.3       1 0RF501      0.0000 
     32 C31        32.9040    5.6170   16.5740 C.3       1 0RF501      0.0000 
     33 H          25.3027    8.8991    6.6358 H         1 0RF501      0.0000 
     34 H          22.9032    4.5744    6.5056 H         1 0RF501      0.0000 
     35 H          22.7623    3.1544    8.2706 H         1 0RF501      0.0000 
     36 H          22.3524    4.4392    9.4201 H         1 0RF501      0.0000 
     37 H          24.5602    4.2371   10.0246 H         1 0RF501      0.0000 
     38 H          28.0672    7.9215    8.6746 H         1 0RF501      0.0000 
     39 H          29.1743    6.5686    8.9641 H         1 0RF501      0.0000 
     40 H          27.8650    8.3661   11.0217 H         1 0RF501      0.0000 
     41 H          29.5899    8.1967   10.6532 H         1 0RF501      0.0000 
     42 H          26.6545    6.4583   11.9834 H         1 0RF501      0.0000 
     43 H          27.5472    5.0538   12.5919 H         1 0RF501      0.0000 
     44 H          28.1504    4.4844   10.2589 H         1 0RF501      0.0000 
     45 H          26.3982    4.4956   10.5228 H         1 0RF501      0.0000 
     46 H          29.0164    4.8935   13.8272 H         1 0RF501      0.0000 
     47 H          32.0319    5.1773   13.8056 H         1 0RF501      0.0000 
     48 H          31.1044    4.1356   14.8986 H         1 0RF501      0.0000 
     49 H          28.6644    2.6292   13.4448 H         1 0RF501      0.0000 
     50 H          29.0398    0.6227   12.1029 H         1 0RF501      0.0000 
     51 H          32.1089    2.5867    9.9838 H         1 0RF501      0.0000 
     52 H          31.7218    4.6004   11.3121 H         1 0RF501      0.0000 
     53 H          32.6286    7.3555   15.3182 H         1 0RF501      0.0000 
     54 H          26.2934    3.2477    8.4376 H         1 0RF501      0.0000 
     55 H          25.0795    2.2167    8.6603 H         1 0RF501      0.0000 
     56 H          25.1466    3.1024    7.3197 H         1 0RF501      0.0000 
     57 H          32.2073    8.1250   17.6346 H         1 0RF501      0.0000 
     58 H          30.9580    8.4906   16.6902 H         1 0RF501      0.0000 
     59 H          30.8514    7.2652   17.7262 H         1 0RF501      0.0000 
     60 H          33.2754    5.0330   15.8522 H         1 0RF501      0.0000 
     61 H          33.6820    5.9795   17.0871 H         1 0RF501      0.0000 
     62 H          32.3928    5.0244   17.1965 H         1 0RF501      0.0000 
     63 H          21.1929    5.8456    6.4856 H         1 0RF501      0.0000 
@<TRIPOS>BOND
     1    2    1 ar   
     2    6    1 ar   
     3    3    2 ar   
     4   33    2 1    
     5    4    3 ar   
     6    5    4 ar   
     7    7    4 1    
     8    6    5 ar   
     9    9    5 1    
    10   10    6 1    
    11    8    7 1    
    12   12    7 1    
    13   34    7 1    
    14    9    8 1    
    15   35    8 1    
    16   36    8 1    
    17   11    9 1    
    18   37    9 1    
    19   13   10 1    
    20   17   10 1    
    21   54   11 1    
    22   55   11 1    
    23   56   11 1    
    24   63   12 1    
    25   14   13 1    
    26   38   13 1    
    27   39   13 1    
    28   15   14 1    
    29   40   14 1    
    30   41   14 1    
    31   16   15 1    
    32   18   15 am   
    33   17   16 1    
    34   42   16 1    
    35   43   16 1    
    36   44   17 1    
    37   45   17 1    
    38   19   18 1    
    39   20   18 2    
    40   21   19 1    
    41   22   19 1    
    42   46   19 1    
    43   24   21 ar   
    44   28   21 ar   
    45   23   22 1    
    46   47   22 1    
    47   48   22 1    
    48   30   23 1    
    49   25   24 ar   
    50   49   24 1    
    51   26   25 ar   
    52   50   25 1    
    53   27   26 ar   
    54   29   26 1    
    55   28   27 ar   
    56   51   27 1    
    57   52   28 1    
    58   31   30 1    
    59   32   30 1    
    60   53   30 1    
    61   57   31 1    
    62   58   31 1    
    63   59   31 1    
    64   60   32 1    
    65   61   32 1    
    66   62   32 1    
@<TRIPOS>SUBSTRUCTURE
     1 0RF501      1 GROUP   
@<TRIPOS>SET

