#    Name: 2o2u_738_1_INTS_M
#    Modification time : Tue Mar 25 21:56:19 2014

@<TRIPOS>MOLECULE
2o2u_738_1_INTS_M
   68     0     6     0     0
SMALL
NO_CHARGES


@<TRIPOS>ATOM
      1 CA         21.4760   10.2635   35.6845 C.3       2 GLC5        0.0000 
      2 CA         19.5450   10.4260   35.7940 C.3       6 GLL5        0.0000 
      3 CA         23.4070   10.1010   35.5750 C.3       4 GLP5        0.0000 
      4 CA         19.8285    8.8310   36.1115 C.3       2 GLC5        0.0000 
      5 CA         20.1120    7.2360   36.4290 C.3       4 GLP5        0.0000 
      6 CA         20.3280   10.2065   37.8730 C.3       2 GLC5        0.0000 
      7 CA         21.1110    9.9870   39.9520 C.3       4 GLP5        0.0000 
      8 CA         18.1675    9.5480   35.7420 C.3       2 GLC5        0.0000 
      9 CA         16.7900    8.6700   35.6900 C.3       4 GLP5        0.0000 
     10 CA         17.2850   15.2370   35.9640 C.3       2 GLC5        0.0000 
     11 CA         17.5010   13.7030   34.3460 C.3       6 GLL5        0.0000 
     12 CA         17.0690   16.7710   37.5820 C.3       4 GLP5        0.0000 
     13 CA         19.5705   10.1350   31.3450 C.3       2 GLC5        0.0000 
     14 CA         21.3100    9.3220   32.2600 C.3       6 GLL5        0.0000 
     15 CA         17.8310   10.9480   30.4300 C.3       4 GLP5        0.0000 
     16 CA         20.1870    7.1635   34.5065 C.3       2 GLC5        0.0000 
     17 CA         20.2620    7.0910   32.5840 C.3       6 GLL5        0.0000 
     18 CA         18.6060    8.2160   33.3145 C.3       2 GLC5        0.0000 
     19 CA         16.9500    9.3410   34.0450 C.3       4 GLP5        0.0000 
     20 CA         20.7345    5.4005   33.9900 C.3       2 GLC5        0.0000 
     21 CA         21.2070    3.7100   35.3960 C.3       4 GLP5        0.0000 
     22 CA         19.2920    5.6740   31.6410 C.3       2 GLC5        0.0000 
     23 CA         18.3220    4.2570   30.6980 C.3       4 GLP5        0.0000 
     24 N          18.9790    4.9915   33.0090 N.am      1 SEC2        0.0000 
     25 N          19.4030    6.4420   33.0200 N.am      5 SEL2        0.0000 
     26 N          18.5550    3.5410   32.9980 N.am      3 SEP2        0.0000 
     27 CA         21.1605   10.9215   30.3210 C.3       2 GLC5        0.0000 
     28 CA         22.6080    9.9140   31.4980 C.3       6 GLL5        0.0000 
     29 CA         19.7130   11.9290   29.1440 C.3       4 GLP5        0.0000 
     30 CA         25.9880    9.1970   31.1115 C.3       2 GLC5        0.0000 
     31 CA         24.3820    8.4150   30.0050 C.3       6 GLL5        0.0000 
     32 CA         27.5940    9.9790   32.2180 C.3       4 GLP5        0.0000 
     33 CA         24.3045    7.3085   27.3160 C.3       2 GLC5        0.0000 
     34 CA         24.3780    7.0570   29.2760 C.3       6 GLL5        0.0000 
     35 CA         24.2310    7.5600   25.3560 C.3       4 GLP5        0.0000 
     36 CA         22.2210    7.4125   28.8590 C.3       2 GLC5        0.0000 
     37 CA         20.0640    7.7680   28.4420 C.3       4 GLP5        0.0000 
     38 CA         25.1420    5.8810   32.1445 C.3       2 GLC5        0.0000 
     39 CA         24.0030    5.8950   30.2200 C.3       6 GLL5        0.0000 
     40 CA         26.2810    5.8670   34.0690 C.3       4 GLP5        0.0000 
     41 CA         17.6765   10.5587   34.8598 C.3       2 GLC5        0.0000 
     42 CA         18.9070   11.4910   35.2970 C.3       6 GLL5        0.0000 
     43 CA         19.9492   12.6566   36.5294 C.3       2 GLC5        0.0000 
     44 CA         17.8990   12.0620   36.0520 C.3       6 GLL5        0.0000 
     45 CA         21.3360   13.8030   37.2600 C.3       4 GLP5        0.0000 
     46 CA         17.3233   13.6707   37.4382 C.3       2 GLC5        0.0000 
     47 CA         17.1010   14.7340   39.0610 C.3       4 GLP5        0.0000 
     48 CA         15.3978   14.3270   34.8672 C.3       2 GLC5        0.0000 
     49 CA         17.1920   13.1530   35.5790 C.3       6 GLL5        0.0000 
     50 CA         13.4490   15.2260   34.7720 C.3       4 GLP5        0.0000 
     51 CA         17.1482   11.3845   34.5037 C.3       2 GLC5        0.0000 
     52 CA         17.9100   10.9630   33.9285 C.3       2 GLC5        0.0000 
     53 CA         18.5170   13.1420   33.5790 C.3       6 GLL5        0.0000 
     54 CA         18.3505   11.7665   32.1210 C.3       2 GLC5        0.0000 
     55 CA         19.2230   12.0280   34.0450 C.3       6 GLL5        0.0000 
     56 CA         19.9585   14.0136   34.6554 C.3       2 GLC5        0.0000 
     57 CA         21.3010   15.3020   35.3070 C.3       4 GLP5        0.0000 
     58 CA         22.6830    9.8595   33.7270 C.3       2 GLC5        0.0000 
     59 CA         22.3295    6.8420   33.5918 C.3       2 GLC5        0.0000 
     60 CA         21.2720    7.9450   32.0530 C.3       6 GLL5        0.0000 
     61 CA         23.8920    6.1660   34.8650 C.3       4 GLP5        0.0000 
     62 CA         20.4202    7.8151   30.4061 C.3       2 GLC5        0.0000 
     63 CA         23.5838    4.9325   28.4895 C.3       2 GLC5        0.0000 
     64 CA         22.9770    3.3890   27.2310 C.3       4 GLP5        0.0000 
     65 CA         23.1750    6.4770   32.9530 C.3       2 GLC5        0.0000 
     66 CA         22.5860    6.0700   30.8260 C.3       6 GLL5        0.0000 
     67 CA         21.3644    7.4090   29.6929 C.3       2 GLC5        0.0000 
     68 CA         22.3300    7.5060   31.2560 C.3       6 GLL5        0.0000 
@<TRIPOS>BOND
@<TRIPOS>SUBSTRUCTURE
     1 SEC2       24 GROUP        1 X    SEC  0     ROOT SEC X 2
     2 GLC5        1 GROUP        1 X    GLC  0     **** GLC X 6
     3 SEP2       26 GROUP        1 Y    SEP  0     ROOT SEP Y 9
     4 GLP5        3 GROUP        1 Y    GLP  0     **** GLP Y 13
     5 SEL2       25 GROUP        1 Z    SEL  0     ROOT SEL Z 16
     6 GLL5        2 GROUP        1 Z    GLL  0     **** GLL Z 20
@<TRIPOS>SET

