#    Name: 2o2u_738_1_ligand
#    Modification time : Tue Mar 25 21:56:19 2014

@<TRIPOS>MOLECULE
2o2u_738_1_ligand
   34    36     1     0     0
SMALL
NO_CHARGES


@<TRIPOS>ATOM
      1 F19        19.5450   10.4260   35.7940 F         1 738403      0.0000 
      2 C16        18.9070   11.4910   35.2970 C.ar      1 738403      0.0000 
      3 C18        17.8990   12.0620   36.0520 C.ar      1 738403      0.0000 
      4 C21        17.1920   13.1530   35.5790 C.ar      1 738403      0.0000 
      5 C20        17.5010   13.7030   34.3460 C.ar      1 738403      0.0000 
      6 C17        18.5170   13.1420   33.5790 C.ar      1 738403      0.0000 
      7 C14        19.2230   12.0280   34.0450 C.ar      1 738403      0.0000 
      8 C13        20.2900   11.4670   33.1840 C.2       1 738403      0.0000 
      9 O15        21.0490   12.2260   32.6270 O.2       1 738403      0.0000 
     10 N10        20.3780   10.0820   33.0270 N.am      1 738403      0.0000 
     11 C5         21.3100    9.3220   32.2600 C.2       1 738403      0.0000 
     12 C2         21.2720    7.9450   32.0530 C.2       1 738403      0.0000 
     13 C6         20.2620    7.0910   32.5840 C.1       1 738403      0.0000 
     14 N11        19.4030    6.4420   33.0200 N.1       1 738403      0.0000 
     15 S7         22.6080    9.9140   31.4980 S.3       1 738403      0.0000 
     16 C3         23.1570    8.5540   30.8670 C.2       1 738403      0.0000 
     17 C8         24.3820    8.4150   30.0050 C.3       1 738403      0.0000 
     18 C12        24.3780    7.0570   29.2760 C.3       1 738403      0.0000 
     19 C9         24.0030    5.8950   30.2200 C.3       1 738403      0.0000 
     20 C4         22.5860    6.0700   30.8260 C.3       1 738403      0.0000 
     21 C1         22.3300    7.5060   31.2560 C.2       1 738403      0.0000 
     22 H          17.6704   11.6684   36.9828 H         1 738403      0.0000 
     23 H          16.4315   13.5590   36.1464 H         1 738403      0.0000 
     24 H          16.9854   14.5191   33.9980 H         1 738403      0.0000 
     25 H          18.7533   13.5468   32.6622 H         1 738403      0.0000 
     26 H          19.6371    9.4912   33.5598 H         1 738403      0.0000 
     27 H          25.2794    8.4771   30.6181 H         1 738403      0.0000 
     28 H          24.4069    9.2086   29.2603 H         1 738403      0.0000 
     29 H          25.3699    6.8719   28.8620 H         1 738403      0.0000 
     30 H          23.6593    7.0945   28.4565 H         1 738403      0.0000 
     31 H          24.7290    5.8453   31.0314 H         1 738403      0.0000 
     32 H          24.0345    4.9583   29.6637 H         1 738403      0.0000 
     33 H          22.4932    5.4061   31.6868 H         1 738403      0.0000 
     34 H          21.8501    5.7735   30.0770 H         1 738403      0.0000 
@<TRIPOS>BOND
     1    2    1 1    
     2    3    2 ar   
     3    7    2 ar   
     4    4    3 ar   
     5   22    3 1    
     6    5    4 ar   
     7   23    4 1    
     8    6    5 ar   
     9   24    5 1    
    10    7    6 ar   
    11   25    6 1    
    12    8    7 1    
    13    9    8 2    
    14   10    8 am   
    15   11   10 1    
    16   26   10 1    
    17   12   11 2    
    18   15   11 1    
    19   13   12 1    
    20   21   12 1    
    21   14   13 3    
    22   16   15 1    
    23   17   16 1    
    24   21   16 2    
    25   18   17 1    
    26   27   17 1    
    27   28   17 1    
    28   19   18 1    
    29   29   18 1    
    30   30   18 1    
    31   20   19 1    
    32   31   19 1    
    33   32   19 1    
    34   21   20 1    
    35   33   20 1    
    36   34   20 1    
@<TRIPOS>SUBSTRUCTURE
     1 738403      1 GROUP   
@<TRIPOS>SET

