#    Name: 1hpu_A12_4_INTS_M
#    Modification time : Tue Mar 25 05:40:42 2014

@<TRIPOS>MOLECULE
1hpu_A12_4_INTS_M
   72     0    15     0     0
SMALL
NO_CHARGES


@<TRIPOS>ATOM
      1 Zn        -20.7100   54.4255   47.3700 Zn        4 ZIC7        0.0000 
      2 Zn        -20.6810   53.2990   47.4390 Zn       14 ZIL7        0.0000 
      3 Zn        -20.7390   55.5520   47.3010 Zn        9 ZIP7        0.0000 
      4 N         -20.5030   53.3100   48.7615 N.am      2 SEC2        0.0000 
      5 N         -20.6810   53.2990   47.4390 N.am     12 SEL2        0.0000 
      6 N         -20.3250   53.3210   50.0840 N.am      7 SEP2        0.0000 
      7 NZ        -18.6315   49.5945   46.1070 N.4       3 LYC4        0.0000 
      8 NZ        -19.6720   51.1880   46.7160 N.4      13 LYL4        0.0000 
      9 NZ        -17.5910   48.0010   45.4980 N.4       8 LYP4        0.0000 
     10 N         -18.5900   51.6920   47.2155 N.am      2 SEC2        0.0000 
     11 N         -19.6720   51.1880   46.7160 N.am     12 SEL2        0.0000 
     12 N         -17.5080   52.1960   47.7150 N.am      7 SEP2        0.0000 
     13 NZ        -23.1895   49.1915   43.7325 N.4       3 LYC4        0.0000 
     14 NZ        -22.1640   49.5470   44.9520 N.4      13 LYL4        0.0000 
     15 NZ        -23.2080   48.3850   41.7830 N.4       8 LYP4        0.0000 
     16 NZ        -21.5890   48.0025   44.8155 N.4       3 LYC4        0.0000 
     17 NZ        -22.1780   45.9310   44.3020 N.4       8 LYP4        0.0000 
     18 N         -22.0645   49.0625   43.5725 N.am      2 SEC2        0.0000 
     19 N         -22.1640   49.5470   44.9520 N.am     12 SEL2        0.0000 
     20 N         -21.9650   48.5780   42.1930 N.am      7 SEP2        0.0000 
     21 N         -23.1895   49.1915   43.7325 N.am      2 SEC2        0.0000 
     22 N         -24.2150   48.8360   42.5130 N.am      7 SEP2        0.0000 
     23 N         -22.7455   48.0485   44.7665 N.am      2 SEC2        0.0000 
     24 N         -23.3270   46.5500   44.5810 N.am      7 SEP2        0.0000 
     25 N         -21.5890   48.0025   44.8155 N.am      2 SEC2        0.0000 
     26 N         -21.0140   46.4580   44.6790 N.am      7 SEP2        0.0000 
     27 N         -23.5400   47.7925   45.6485 N.am      2 SEC2        0.0000 
     28 N         -23.7530   49.0350   46.7160 N.am     12 SEL2        0.0000 
     29 CA        -22.7680   51.0725   48.9500 C.3       5 GLC5        0.0000 
     30 CA        -22.2640   51.1830   47.0400 C.3      15 GLL5        0.0000 
     31 CA        -23.2720   50.9620   50.8600 C.3      10 GLP5        0.0000 
     32 N         -21.1670   47.5295   45.9160 N.am      2 SEC2        0.0000 
     33 N         -21.3200   48.6010   47.1530 N.am     12 SEL2        0.0000 
     34 N         -19.9590   48.2025   46.7455 N.am      2 SEC2        0.0000 
     35 N         -18.5980   47.8040   46.3380 N.am      7 SEP2        0.0000 
     36 CA        -22.4430   49.5855   49.6720 C.3       5 GLC5        0.0000 
     37 CA        -21.6140   48.2090   48.4840 C.3      15 GLL5        0.0000 
     38 CA        -20.6005   45.0235   47.6410 C.3       5 GLC5        0.0000 
     39 CA        -21.1180   46.8120   48.7410 C.3      15 GLL5        0.0000 
     40 CA        -20.0830   43.2350   46.5410 C.3      10 GLP5        0.0000 
     41 CA        -22.4475   45.2645   47.9860 C.3       5 GLC5        0.0000 
     42 CA        -23.7770   43.7170   47.2310 C.3      10 GLP5        0.0000 
     43 CA        -22.4265   47.6080   51.2465 C.3       5 GLC5        0.0000 
     44 CA        -21.4290   46.3020   50.1320 C.3      15 GLL5        0.0000 
     45 CA        -23.4240   48.9140   52.3610 C.3      10 GLP5        0.0000 
     46 O         -23.0505   45.0800   51.1605 O.2       1 ALC1        0.0000 
     47 O         -22.7400   45.7270   50.1760 O.2      11 ALL1        0.0000 
     48 O         -23.3610   44.4330   52.1450 O.2       6 ALP1        0.0000 
     49 O         -22.3755   44.2795   50.8305 O.2       1 ALC1        0.0000 
     50 O         -22.0110   42.8320   51.4850 O.2       6 ALP1        0.0000 
     51 CA        -19.9300   44.9975   52.2150 C.3       5 GLC5        0.0000 
     52 CA        -20.3340   45.2650   50.3470 C.3      15 GLL5        0.0000 
     53 CA        -19.5260   44.7300   54.0830 C.3      10 GLP5        0.0000 
     54 O         -21.3040   43.4370   50.5935 O.2       1 ALC1        0.0000 
     55 O         -20.5970   44.0420   49.7020 O.2      11 ALL1        0.0000 
     56 CA        -17.2300   46.7730   49.0135 C.3       5 GLC5        0.0000 
     57 CA        -19.1480   45.9360   49.6520 C.3      15 GLL5        0.0000 
     58 CA        -15.3120   47.6100   48.3750 C.3      10 GLP5        0.0000 
     59 CA        -13.9720   46.6675   52.0290 C.3       5 GLC5        0.0000 
     60 CA        -15.6990   46.9870   52.9260 C.3      15 GLL5        0.0000 
     61 CA        -12.2450   46.3480   51.1320 C.3      10 GLP5        0.0000 
     62 O         -13.8030   48.0510   54.0785 O.2       1 ALC1        0.0000 
     63 O         -15.1350   47.8990   53.7330 O.2      11 ALL1        0.0000 
     64 O         -12.4710   48.2030   54.4240 O.2       6 ALP1        0.0000 
     65 N         -13.9100   45.0230   53.5700 N.am      2 SEC2        0.0000 
     66 N         -15.2240   45.7260   52.9590 N.am     12 SEL2        0.0000 
     67 N         -12.5960   44.3200   54.1810 N.am      7 SEP2        0.0000 
     68 CA        -14.0310   45.5735   51.6640 C.3       5 GLC5        0.0000 
     69 CA        -15.8170   44.7990   52.1960 C.3      15 GLL5        0.0000 
     70 CA        -15.9295   43.6970   53.8520 C.3       5 GLC5        0.0000 
     71 CA        -16.0420   42.5950   55.5080 C.3      10 GLP5        0.0000 
     72 CA        -19.9120   44.4177   48.2703 C.3       5 GLC5        0.0000 
@<TRIPOS>BOND
@<TRIPOS>SUBSTRUCTURE
     1 ALC1       46 GROUP        1 X    ALC  0     ROOT ALC X 1
     2 SEC2        4 GROUP        1 X    SEC  0     **** SEC X 2
     3 LYC4        7 GROUP        1 X    LYC  0     **** LYC X 4
     4 ZIC7        1 GROUP        1 X    ZIC  0     **** ZIC X 5
     5 GLC5       29 GROUP        1 X    GLC  0     **** GLC X 6
     6 ALP1       48 GROUP        1 Y    ALP  0     ROOT ALP Y 8
     7 SEP2        6 GROUP        1 Y    SEP  0     **** SEP Y 9
     8 LYP4        9 GROUP        1 Y    LYP  0     **** LYP Y 11
     9 ZIP7        3 GROUP        1 Y    ZIP  0     **** ZIP Y 12
    10 GLP5       31 GROUP        1 Y    GLP  0     **** GLP Y 13
    11 ALL1       47 GROUP        1 Z    ALL  0     ROOT ALL Z 15
    12 SEL2        5 GROUP        1 Z    SEL  0     **** SEL Z 16
    13 LYL4        8 GROUP        1 Z    LYL  0     **** LYL Z 18
    14 ZIL7        2 GROUP        1 Z    ZIL  0     **** ZIL Z 19
    15 GLL5       30 GROUP        1 Z    GLL  0     **** GLL Z 20
@<TRIPOS>SET

