#    Name: 1hpu_A12_4_ligand
#    Modification time : Tue Mar 25 05:40:42 2014

@<TRIPOS>MOLECULE
1hpu_A12_4_ligand
   41    43     1     0     0
SMALL
NO_CHARGES


@<TRIPOS>ATOM
      1 PB        -20.8170   52.0790   46.5620 P.3       1 A121605     0.0000 
      2 O1B       -20.6810   53.2990   47.4390 O.co2     1 A121605     0.0000 
      3 O2B       -20.9470   52.4850   45.1490 O.co2     1 A121605     0.0000 
      4 O3B       -19.6720   51.1880   46.7160 O.co2     1 A121605     0.0000 
      5 PA        -22.3870   49.5140   46.4220 P.3       1 A121605     0.0000 
      6 O1A       -22.1640   49.5470   44.9520 O.co2     1 A121605     0.0000 
      7 O2A       -23.7530   49.0350   46.7160 O.co2     1 A121605     0.0000 
      8 C3A       -22.2640   51.1830   47.0400 C.3       1 A121605     0.0000 
      9 O5'       -21.3200   48.6010   47.1530 O.3       1 A121605     0.0000 
     10 C5'       -21.6140   48.2090   48.4840 C.3       1 A121605     0.0000 
     11 C4'       -21.1180   46.8120   48.7410 C.3       1 A121605     0.0000 
     12 O4'       -19.6720   46.8160   48.6800 O.3       1 A121605     0.0000 
     13 C3'       -21.4290   46.3020   50.1320 C.3       1 A121605     0.0000 
     14 O3'       -22.7400   45.7270   50.1760 O.3       1 A121605     0.0000 
     15 C2'       -20.3340   45.2650   50.3470 C.3       1 A121605     0.0000 
     16 O2'       -20.5970   44.0420   49.7020 O.3       1 A121605     0.0000 
     17 C1'       -19.1480   45.9360   49.6520 C.3       1 A121605     0.0000 
     18 N9        -18.3060   46.7010   50.5730 N.pl3     1 A121605     0.0000 
     19 C8        -18.3680   48.0390   50.8750 C.2       1 A121605     0.0000 
     20 N7        -17.4740   48.4220   51.7560 N.2       1 A121605     0.0000 
     21 C5        -16.7750   47.2580   52.0530 C.ar      1 A121605     0.0000 
     22 C6        -15.6990   46.9870   52.9260 C.ar      1 A121605     0.0000 
     23 N6        -15.1350   47.8990   53.7330 N.pl3     1 A121605     0.0000 
     24 N1        -15.2240   45.7260   52.9590 N.ar      1 A121605     0.0000 
     25 C2        -15.8170   44.7990   52.1960 C.ar      1 A121605     0.0000 
     26 N3        -16.8420   44.9250   51.3620 N.ar      1 A121605     0.0000 
     27 C4        -17.2760   46.1930   51.3290 C.ar      1 A121605     0.0000 
     28 H         -23.1012   51.7105   46.6585 H         1 A121605     0.0000 
     29 H         -22.2569   51.1152   48.0983 H         1 A121605     0.0000 
     30 H         -22.6982   48.2291   48.6821 H         1 A121605     0.0000 
     31 H         -21.1401   48.8809   49.2183 H         1 A121605     0.0000 
     32 H         -21.5109   46.1332   48.0224 H         1 A121605     0.0000 
     33 H         -21.2806   47.0936   50.8174 H         1 A121605     0.0000 
     34 H         -20.1141   45.2019   51.3686 H         1 A121605     0.0000 
     35 H         -18.5647   45.1572   49.1754 H         1 A121605     0.0000 
     36 H         -19.0449   48.6408   50.4453 H         1 A121605     0.0000 
     37 H         -14.1561   48.0562   53.6030 H         1 A121605     0.0000 
     38 H         -15.7441   48.3399   54.3923 H         1 A121605     0.0000 
     39 H         -15.3855   43.7776   52.2754 H         1 A121605     0.0000 
     40 H         -22.6365   44.8875   50.7094 H         1 A121605     0.0000 
     41 H         -21.4832   43.7465   50.0590 H         1 A121605     0.0000 
@<TRIPOS>BOND
     1    2    1 ar   
     2    3    1 ar   
     3    4    1 ar   
     4    8    1 1    
     5    6    5 ar   
     6    7    5 ar   
     7    8    5 1    
     8    9    5 1    
     9   28    8 1    
    10   29    8 1    
    11   10    9 1    
    12   11   10 1    
    13   30   10 1    
    14   31   10 1    
    15   12   11 1    
    16   13   11 1    
    17   32   11 1    
    18   17   12 1    
    19   14   13 1    
    20   15   13 1    
    21   33   13 1    
    22   40   14 1    
    23   16   15 1    
    24   17   15 1    
    25   34   15 1    
    26   41   16 1    
    27   18   17 1    
    28   35   17 1    
    29   19   18 1    
    30   27   18 1    
    31   20   19 2    
    32   36   19 1    
    33   21   20 1    
    34   22   21 ar   
    35   27   21 ar   
    36   23   22 1    
    37   24   22 ar   
    38   37   23 1    
    39   38   23 1    
    40   25   24 ar   
    41   26   25 ar   
    42   39   25 1    
    43   27   26 ar   
@<TRIPOS>SUBSTRUCTURE
     1 A121605     1 GROUP   
@<TRIPOS>SET

