#    Name: 3ge6_FMN_2_INTS_M
#    Modification time : Tue Mar 25 07:39:52 2014

@<TRIPOS>MOLECULE
3ge6_FMN_2_INTS_M
   82     0    12     0     0
SMALL
NO_CHARGES


@<TRIPOS>ATOM
      1 N           5.7145   80.1190    5.5655 N.am      2 SEC2        0.0000 
      2 N           5.9620   81.7530    5.5230 N.am     10 SEL2        0.0000 
      3 N           5.4670   78.4850    5.6080 N.am      6 SEP2        0.0000 
      4 N           6.1890   81.4620    7.1160 N.am      2 SEC2        0.0000 
      5 N           6.4160   81.1710    8.7090 N.am      6 SEP2        0.0000 
      6 N           3.6375   80.4090    6.2670 N.am      2 SEC2        0.0000 
      7 N           3.7010   81.6160    5.7720 N.am     10 SEL2        0.0000 
      8 N           3.5740   79.2020    6.7620 N.am      6 SEP2        0.0000 
      9 O           3.2840   84.1865    5.5900 O.2       1 ALC1        0.0000 
     10 O           4.5090   83.6330    5.1910 O.2       9 ALL1        0.0000 
     11 O           2.0590   84.7400    5.9890 O.2       5 ALP1        0.0000 
     12 N           3.9070   86.2275    4.9795 N.am      2 SEC2        0.0000 
     13 N           5.3870   85.6050    4.5910 N.am     10 SEL2        0.0000 
     14 N           2.4270   86.8500    5.3680 N.am      6 SEP2        0.0000 
     15 N           6.6690   86.4740    5.1300 N.am      2 SEC2        0.0000 
     16 N           7.9510   87.3430    5.6690 N.am      6 SEP2        0.0000 
     17 N           5.6610   87.0550    4.3915 N.am      2 SEC2        0.0000 
     18 N           5.9350   88.5050    4.1920 N.am      6 SEP2        0.0000 
     19 N           7.9650   85.9870    5.1100 N.am      2 SEC2        0.0000 
     20 N           7.9790   84.6310    4.5510 N.am     10 SEL2        0.0000 
     21 CA         14.6810   86.4180    5.9170 C.3       4 GLC5        0.0000 
     22 CA         12.7230   85.5400    5.5720 C.3      12 GLL5        0.0000 
     23 CA         16.6390   87.2960    6.2620 C.3       8 GLP5        0.0000 
     24 CA         13.6555   86.1485    7.3570 C.3       4 GLC5        0.0000 
     25 CA         14.5880   86.7570    9.1420 C.3       8 GLP5        0.0000 
     26 CA         13.1375   80.7855    6.7540 C.3       4 GLC5        0.0000 
     27 CA         13.0770   82.6810    6.1340 C.3      12 GLL5        0.0000 
     28 CA         13.1980   78.8900    7.3740 C.3       8 GLP5        0.0000 
     29 CA         14.7090   82.7360    6.8085 C.3       4 GLC5        0.0000 
     30 CA         16.3410   82.7910    7.4830 C.3       8 GLP5        0.0000 
     31 CA          7.8370   79.1670    7.1595 C.3       4 GLC5        0.0000 
     32 CA          8.4350   80.4990    5.5600 C.3      12 GLL5        0.0000 
     33 CA          7.2390   77.8350    8.7590 C.3       8 GLP5        0.0000 
     34 CA          9.6045   81.1265    7.2670 C.3       4 GLC5        0.0000 
     35 CA         10.7740   81.7540    8.9740 C.3       8 GLP5        0.0000 
     36 CA         11.3765   78.6420    6.1690 C.3       4 GLC5        0.0000 
     37 CA          9.5550   78.3940    4.9640 C.3      12 GLL5        0.0000 
     38 CA          8.3970   78.1145    6.8615 C.3       4 GLC5        0.0000 
     39 CA         12.3805   77.2045    5.4325 C.3       4 GLC5        0.0000 
     40 CA         10.6290   76.1850    4.4750 C.3      12 GLL5        0.0000 
     41 CA         14.1320   78.2240    6.3900 C.3       8 GLP5        0.0000 
     42 CA         10.1600   74.0350    4.0495 C.3       4 GLC5        0.0000 
     43 CA          9.6910   71.8850    3.6240 C.3       8 GLP5        0.0000 
     44 NZ         12.3020   74.9960    8.0605 N.4       3 LYC4        0.0000 
     45 NZ         11.2830   74.4380    7.1480 N.4      11 LYL4        0.0000 
     46 NZ         12.9830   76.0800   10.1250 N.4       7 LYP4        0.0000 
     47 N          12.3020   74.9960    8.0605 N.am      2 SEC2        0.0000 
     48 N          11.2830   74.4380    7.1480 N.am     10 SEL2        0.0000 
     49 N          13.3210   75.5540    8.9730 N.am      6 SEP2        0.0000 
     50 N          12.5315   74.3320    6.3450 N.am      2 SEC2        0.0000 
     51 N          13.7800   74.2260    5.5420 N.am      6 SEP2        0.0000 
     52 N           8.5380   75.3690    8.8430 N.am      2 SEC2        0.0000 
     53 N           8.8620   74.8210    7.6700 N.am     10 SEL2        0.0000 
     54 N           8.2140   75.9170   10.0160 N.am      6 SEP2        0.0000 
     55 NZ         11.1275   76.6430    8.9370 N.4       3 LYC4        0.0000 
     56 NZ         10.4610   76.6880    7.6360 N.4      11 LYL4        0.0000 
     57 N          11.1275   76.6430    8.9370 N.am      2 SEC2        0.0000 
     58 N          10.4610   76.6880    7.6360 N.am     10 SEL2        0.0000 
     59 N          11.7940   76.5980   10.2380 N.am      6 SEP2        0.0000 
     60 N          11.8910   76.1210    8.3045 N.am      2 SEC2        0.0000 
     61 N           9.4780   77.5540    8.0275 N.am      2 SEC2        0.0000 
     62 N           8.4950   78.4200    8.4190 N.am      6 SEP2        0.0000 
     63 CA         10.6700   83.6423    3.2497 C.3       4 GLC5        0.0000 
     64 CA          9.2290   84.1810    4.9280 C.3      12 GLL5        0.0000 
     65 CA         11.5750   82.6550    1.5160 C.3       8 GLP5        0.0000 
     66 CA          8.5800   85.3833    6.3533 C.3       4 GLC5        0.0000 
     67 CA          7.3950   86.1370    7.7230 C.3       8 GLP5        0.0000 
     68 CA          9.0300   86.5528    4.9032 C.3       4 GLC5        0.0000 
     69 CA          8.2950   88.4760    4.8230 C.3       8 GLP5        0.0000 
     70 CA         11.6145   83.2852    3.5430 C.3       4 GLC5        0.0000 
     71 CA         11.5620   84.5940    5.4370 C.3      12 GLL5        0.0000 
     72 CA         13.2748   81.7460    4.6498 C.3       4 GLC5        0.0000 
     73 CA         11.7460   83.2370    5.7030 C.3      12 GLL5        0.0000 
     74 CA         14.1380   80.5330    3.3810 C.3       8 GLP5        0.0000 
     75 CA         11.6513   83.2691    7.5075 C.3       4 GLC5        0.0000 
     76 CA         10.9370   83.2400    9.1630 C.3       8 GLP5        0.0000 
     77 CA         10.8105   82.6238    3.4700 C.3       4 GLC5        0.0000 
     78 CA         10.6790   82.3660    5.6190 C.3      12 GLL5        0.0000 
     79 CA         10.4100   82.1732    7.1990 C.3       4 GLC5        0.0000 
     80 CA         10.6525   76.5165    2.3362 C.3       4 GLC5        0.0000 
     81 CA          9.9990   77.4350    3.8660 C.3      12 GLL5        0.0000 
     82 CA         10.9910   76.2230    0.5020 C.3       8 GLP5        0.0000 
@<TRIPOS>BOND
@<TRIPOS>SUBSTRUCTURE
     1 ALC1        9 GROUP        1 X    ALC  0     ROOT ALC X 1
     2 SEC2        1 GROUP        1 X    SEC  0     **** SEC X 2
     3 LYC4       44 GROUP        1 X    LYC  0     **** LYC X 4
     4 GLC5       21 GROUP        1 X    GLC  0     **** GLC X 6
     5 ALP1       11 GROUP        1 Y    ALP  0     ROOT ALP Y 8
     6 SEP2        3 GROUP        1 Y    SEP  0     **** SEP Y 9
     7 LYP4       46 GROUP        1 Y    LYP  0     **** LYP Y 11
     8 GLP5       23 GROUP        1 Y    GLP  0     **** GLP Y 13
     9 ALL1       10 GROUP        1 Z    ALL  0     ROOT ALL Z 15
    10 SEL2        2 GROUP        1 Z    SEL  0     **** SEL Z 16
    11 LYL4       45 GROUP        1 Z    LYL  0     **** LYL Z 18
    12 GLL5       22 GROUP        1 Z    GLL  0     **** GLL Z 20
@<TRIPOS>SET

