#    Name: 3ge6_FMN_2_ligand
#    Modification time : Tue Mar 25 07:39:52 2014

@<TRIPOS>MOLECULE
3ge6_FMN_2_ligand
   50    52     1     0     0
SMALL
NO_CHARGES


@<TRIPOS>ATOM
      1 N1          5.9620   81.7530    5.5230 N.2       1 FMN300      0.0000 
      2 C2          4.6870   82.3120    5.5230 C.2       1 FMN300      0.0000 
      3 O2          3.7010   81.6160    5.7720 O.2       1 FMN300      0.0000 
      4 N3          4.5090   83.6330    5.1910 N.am      1 FMN300      0.0000 
      5 C4          5.5830   84.4230    4.8790 C.2       1 FMN300      0.0000 
      6 O4          5.3870   85.6050    4.5910 O.2       1 FMN300      0.0000 
      7 C4A         6.8760   83.8600    4.8730 C.2       1 FMN300      0.0000 
      8 N5          7.9790   84.6310    4.5510 N.2       1 FMN300      0.0000 
      9 C5A         9.2290   84.1810    4.9280 C.ar      1 FMN300      0.0000 
     10 C6         10.3010   85.0780    5.0390 C.ar      1 FMN300      0.0000 
     11 C7         11.5620   84.5940    5.4370 C.ar      1 FMN300      0.0000 
     12 C7M        12.7230   85.5400    5.5720 C.3       1 FMN300      0.0000 
     13 C8         11.7460   83.2370    5.7030 C.ar      1 FMN300      0.0000 
     14 C8M        13.0770   82.6810    6.1340 C.3       1 FMN300      0.0000 
     15 C9         10.6790   82.3660    5.6190 C.ar      1 FMN300      0.0000 
     16 C9A         9.4130   82.8190    5.2290 C.ar      1 FMN300      0.0000 
     17 N10         8.3170   81.9500    5.1840 N.pl3     1 FMN300      0.0000 
     18 C10         7.0570   82.5140    5.1990 C.2       1 FMN300      0.0000 
     19 C1'         8.4350   80.4990    5.5600 C.3       1 FMN300      0.0000 
     20 C2'         8.9600   79.6840    4.4010 C.3       1 FMN300      0.0000 
     21 O2'         7.9090   79.4580    3.4490 O.3       1 FMN300      0.0000 
     22 C3'         9.5550   78.3940    4.9640 C.3       1 FMN300      0.0000 
     23 O3'        10.6440   78.7100    5.8130 O.3       1 FMN300      0.0000 
     24 C4'         9.9990   77.4350    3.8660 C.3       1 FMN300      0.0000 
     25 O4'         8.8660   77.0240    3.1250 O.3       1 FMN300      0.0000 
     26 C5'        10.6290   76.1850    4.4750 C.3       1 FMN300      0.0000 
     27 O5'         9.7360   75.5830    5.4030 O.3       1 FMN300      0.0000 
     28 P          10.0730   75.4080    6.9680 P.3       1 FMN300      0.0000 
     29 O1P        11.2830   74.4380    7.1480 O.co2     1 FMN300      0.0000 
     30 O2P         8.8620   74.8210    7.6700 O.co2     1 FMN300      0.0000 
     31 O3P        10.4610   76.6880    7.6360 O.co2     1 FMN300      0.0000 
     32 H           3.5512   84.0340    5.1771 H         1 FMN300      0.0000 
     33 H          10.1721   86.0664    4.8352 H         1 FMN300      0.0000 
     34 H          10.8070   81.3651    5.8450 H         1 FMN300      0.0000 
     35 H           7.4543   80.1163    5.8554 H         1 FMN300      0.0000 
     36 H           9.1137   80.3952    6.4109 H         1 FMN300      0.0000 
     37 H           9.7765   80.2530    3.9526 H         1 FMN300      0.0000 
     38 H           8.7630   77.8958    5.5374 H         1 FMN300      0.0000 
     39 H          10.7244   77.9182    3.2516 H         1 FMN300      0.0000 
     40 H          11.5727   76.4866    4.9521 H         1 FMN300      0.0000 
     41 H          10.8817   75.5038    3.6496 H         1 FMN300      0.0000 
     42 H          13.5553   85.0675    5.8618 H         1 FMN300      0.0000 
     43 H          12.9316   85.9976    4.7077 H         1 FMN300      0.0000 
     44 H          12.5423   86.2558    6.2465 H         1 FMN300      0.0000 
     45 H          13.7880   82.8479    5.4509 H         1 FMN300      0.0000 
     46 H          13.3911   83.0911    6.9902 H         1 FMN300      0.0000 
     47 H          13.0369   81.6925    6.2798 H         1 FMN300      0.0000 
     48 H           8.0590   78.5278    3.1141 H         1 FMN300      0.0000 
     49 H          10.6119   78.0249    6.5408 H         1 FMN300      0.0000 
     50 H           9.1075   77.1911    2.1691 H         1 FMN300      0.0000 
@<TRIPOS>BOND
     1    2    1 1    
     2   18    1 2    
     3    3    2 2    
     4    4    2 am   
     5    5    4 am   
     6   32    4 1    
     7    6    5 2    
     8    7    5 1    
     9    8    7 2    
    10   18    7 1    
    11    9    8 1    
    12   10    9 ar   
    13   16    9 ar   
    14   11   10 ar   
    15   33   10 1    
    16   12   11 1    
    17   13   11 ar   
    18   42   12 1    
    19   43   12 1    
    20   44   12 1    
    21   14   13 1    
    22   15   13 ar   
    23   45   14 1    
    24   46   14 1    
    25   47   14 1    
    26   16   15 ar   
    27   34   15 1    
    28   17   16 1    
    29   18   17 1    
    30   19   17 1    
    31   20   19 1    
    32   35   19 1    
    33   36   19 1    
    34   21   20 1    
    35   22   20 1    
    36   37   20 1    
    37   48   21 1    
    38   23   22 1    
    39   24   22 1    
    40   38   22 1    
    41   49   23 1    
    42   25   24 1    
    43   26   24 1    
    44   39   24 1    
    45   50   25 1    
    46   27   26 1    
    47   40   26 1    
    48   41   26 1    
    49   28   27 1    
    50   29   28 ar   
    51   30   28 ar   
    52   31   28 ar   
@<TRIPOS>SUBSTRUCTURE
     1 FMN300      1 GROUP   
@<TRIPOS>SET

