#    Name: 4ftu_7HK_1_INTS_M
#    Modification time : Mon Mar 24 20:46:23 2014

@<TRIPOS>MOLECULE
4ftu_7HK_1_INTS_M
   61     0     9     0     0
SMALL
NO_CHARGES


@<TRIPOS>ATOM
      1 N          16.5505   -0.6320    8.3710 N.am      2 SEC2        0.0000 
      2 N          16.3360   -1.9990    9.0050 N.am      8 SEL2        0.0000 
      3 N          16.7650    0.7350    7.7370 N.am      5 SEP2        0.0000 
      4 O          18.9470   -1.5680    8.7125 O.2       1 ALC1        0.0000 
      5 O          18.4230   -2.8040    9.0060 O.2       7 ALL1        0.0000 
      6 O          19.4710   -0.3320    8.4190 O.2       4 ALP1        0.0000 
      7 CA         21.1140   -7.0505    3.0675 C.3       3 GLC5        0.0000 
      8 CA         21.8700   -6.0900    4.4370 C.3       9 GLL5        0.0000 
      9 CA         20.3580   -8.0110    1.6980 C.3       6 GLP5        0.0000 
     10 CA         20.2710   -6.0700    5.1640 C.3       3 GLC5        0.0000 
     11 CA         18.6720   -6.0500    5.8910 C.3       6 GLP5        0.0000 
     12 CA         14.0650   -3.9010    8.1750 C.3       3 GLC5        0.0000 
     13 CA         15.2080   -4.3890    9.7610 C.3       9 GLL5        0.0000 
     14 CA         12.9220   -3.4130    6.5890 C.3       6 GLP5        0.0000 
     15 CA         17.3135   -4.3295   12.6730 C.3       3 GLC5        0.0000 
     16 CA         16.6110   -5.9650   11.5430 C.3       9 GLL5        0.0000 
     17 CA         18.0160   -2.6940   13.8030 C.3       6 GLP5        0.0000 
     18 CA          9.6665   -8.6675   13.1225 C.3       3 GLC5        0.0000 
     19 CA         11.4020   -8.2650   13.6300 C.3       9 GLL5        0.0000 
     20 CA          7.9310   -9.0700   12.6150 C.3       6 GLP5        0.0000 
     21 CA         11.2825   -6.9545   15.2360 C.3       3 GLC5        0.0000 
     22 CA         11.1630   -5.6440   16.8420 C.3       6 GLP5        0.0000 
     23 N           9.3330   -7.7870   13.7590 N.am      2 SEC2        0.0000 
     24 N          10.6030   -7.1910   13.5900 N.am      8 SEL2        0.0000 
     25 N           8.0630   -8.3830   13.9280 N.am      5 SEP2        0.0000 
     26 CA          9.5825   -7.0695   12.3135 C.3       3 GLC5        0.0000 
     27 CA         11.1420   -6.0530   13.1470 C.3       9 GLL5        0.0000 
     28 CA          8.0230   -8.0860   11.4800 C.3       6 GLP5        0.0000 
     29 CA         10.1340   -4.9700   11.5460 C.3       3 GLC5        0.0000 
     30 CA          9.1260   -3.8870    9.9450 C.3       6 GLP5        0.0000 
     31 CA         19.1182   -5.1405    7.6922 C.3       3 GLC5        0.0000 
     32 CA         19.6010   -4.7800    9.9260 C.3       9 GLL5        0.0000 
     33 CA         20.8852   -3.1175   10.2287 C.3       3 GLC5        0.0000 
     34 CA         19.5280   -3.6820    9.0610 C.3       9 GLL5        0.0000 
     35 CA         22.2060   -2.0040   10.9640 C.3       6 GLP5        0.0000 
     36 CA         19.9383   -5.7825    7.6425 C.3       3 GLC5        0.0000 
     37 CA         20.6910   -5.6450    9.8400 C.3       9 GLL5        0.0000 
     38 CA         21.7052   -3.7595   10.1790 C.3       3 GLC5        0.0000 
     39 CA         21.7180   -5.3850    8.9480 C.3       9 GLL5        0.0000 
     40 CA         19.9015   -4.9520    7.0202 C.3       3 GLC5        0.0000 
     41 CA         21.6880   -4.2690    8.1250 C.3       9 GLL5        0.0000 
     42 CA         22.1035   -2.9445    9.3319 C.3       3 GLC5        0.0000 
     43 CA         20.5740   -3.4390    8.1740 C.3       9 GLL5        0.0000 
     44 CA         16.0888   -4.8517    8.0482 C.3       3 GLC5        0.0000 
     45 CA         16.5750   -4.1640    9.9220 C.3       9 GLL5        0.0000 
     46 CA         16.2860   -5.4270    6.2550 C.3       6 GLP5        0.0000 
     47 CA         16.4460   -3.2327   11.4455 C.3       3 GLC5        0.0000 
     48 CA         15.9580   -1.8820   12.5290 C.3       6 GLP5        0.0000 
     49 CA         17.0720   -6.4785    9.2688 C.3       3 GLC5        0.0000 
     50 CA         17.2930   -5.0030   10.8020 C.3       9 GLL5        0.0000 
     51 CA         17.1920   -7.4730    7.3650 C.3       6 GLP5        0.0000 
     52 CA         14.1165   -6.3831    9.3515 C.3       3 GLC5        0.0000 
     53 CA         13.1760   -7.2650    7.9320 C.3       6 GLP5        0.0000 
     54 CA         15.5075   -3.6916   11.6500 C.3       3 GLC5        0.0000 
     55 CA         14.5460   -5.3540   10.4950 C.3       9 GLL5        0.0000 
     56 CA         12.1827   -8.3481   11.4984 C.3       3 GLC5        0.0000 
     57 CA         13.2580   -7.0680   12.7460 C.3       9 GLL5        0.0000 
     58 CA         12.1690   -8.7320    9.6900 C.3       6 GLP5        0.0000 
     59 CA         11.9840   -7.3625   11.3160 C.3       3 GLC5        0.0000 
     60 CA         12.4560   -5.9330   12.7370 C.3       9 GLL5        0.0000 
     61 CA         11.4810   -5.8185   14.8920 C.3       3 GLC5        0.0000 
@<TRIPOS>BOND
@<TRIPOS>SUBSTRUCTURE
     1 ALC1        4 GROUP        1 X    ALC  0     ROOT ALC X 1
     2 SEC2        1 GROUP        1 X    SEC  0     **** SEC X 2
     3 GLC5        7 GROUP        1 X    GLC  0     **** GLC X 6
     4 ALP1        6 GROUP        1 Y    ALP  0     ROOT ALP Y 8
     5 SEP2        3 GROUP        1 Y    SEP  0     **** SEP Y 9
     6 GLP5        9 GROUP        1 Y    GLP  0     **** GLP Y 13
     7 ALL1        5 GROUP        1 Z    ALL  0     ROOT ALL Z 15
     8 SEL2        2 GROUP        1 Z    SEL  0     **** SEL Z 16
     9 GLL5        8 GROUP        1 Z    GLL  0     **** GLL Z 20
@<TRIPOS>SET

