#    Name: 4ftu_7HK_1_ligand
#    Modification time : Mon Mar 24 20:46:23 2014

@<TRIPOS>MOLECULE
4ftu_7HK_1_ligand
   46    49     1     0     0
SMALL
NO_CHARGES


@<TRIPOS>ATOM
      1 O2         16.3360   -1.9990    9.0050 O.2       1 7HK301      0.0000 
      2 C18        17.1090   -2.9170    9.2840 C.2       1 7HK301      0.0000 
      3 N4         18.4230   -2.8040    9.0060 N.am      1 7HK301      0.0000 
      4 C19        19.5280   -3.6820    9.0610 C.ar      1 7HK301      0.0000 
      5 C6         19.6010   -4.7800    9.9260 C.ar      1 7HK301      0.0000 
      6 C5         20.6910   -5.6450    9.8400 C.ar      1 7HK301      0.0000 
      7 C4         21.7180   -5.3850    8.9480 C.ar      1 7HK301      0.0000 
      8 C20        20.5740   -3.4390    8.1740 C.ar      1 7HK301      0.0000 
      9 C3         21.6880   -4.2690    8.1250 C.ar      1 7HK301      0.0000 
     10 C2         22.8710   -3.9160    7.2500 C.3       1 7HK301      0.0000 
     11 C1         22.6870   -4.3430    5.8210 C.2       1 7HK301      0.0000 
     12 O3         22.1290   -5.5500    5.7540 O.3       1 7HK301      0.0000 
     13 C21        21.8700   -6.0900    4.4370 C.3       1 7HK301      0.0000 
     14 O1         23.0000   -3.6980    4.8550 O.2       1 7HK301      0.0000 
     15 C17        16.5750   -4.1640    9.9220 C.ar      1 7HK301      0.0000 
     16 C7         17.2930   -5.0030   10.8020 C.ar      1 7HK301      0.0000 
     17 N1         18.6890   -4.9600   10.9840 N.pl3     1 7HK301      0.0000 
     18 C16        15.2080   -4.3890    9.7610 C.ar      1 7HK301      0.0000 
     19 C15        14.5460   -5.3540   10.4950 C.ar      1 7HK301      0.0000 
     20 C9         15.2370   -6.1310   11.4140 C.ar      1 7HK301      0.0000 
     21 C8         16.6110   -5.9650   11.5430 C.ar      1 7HK301      0.0000 
     22 N2         14.5840   -7.0700   12.2500 N.pl3     1 7HK301      0.0000 
     23 C10        13.2580   -7.0680   12.7460 C.ar      1 7HK301      0.0000 
     24 C14        12.7240   -8.2590   13.2210 C.ar      1 7HK301      0.0000 
     25 C13        11.4020   -8.2650   13.6300 C.ar      1 7HK301      0.0000 
     26 N3         10.6030   -7.1910   13.5900 N.ar      1 7HK301      0.0000 
     27 C12        11.1420   -6.0530   13.1470 C.ar      1 7HK301      0.0000 
     28 C11        12.4560   -5.9330   12.7370 C.ar      1 7HK301      0.0000 
     29 H          18.7327   -1.7720    8.6421 H         1 7HK301      0.0000 
     30 H          20.7288   -6.4789   10.4435 H         1 7HK301      0.0000 
     31 H          22.5245   -6.0360    8.8937 H         1 7HK301      0.0000 
     32 H          20.5195   -2.6217    7.5374 H         1 7HK301      0.0000 
     33 H          23.7755   -4.3924    7.6607 H         1 7HK301      0.0000 
     34 H          23.0331   -2.8270    7.2886 H         1 7HK301      0.0000 
     35 H          19.0671   -5.0671   11.9531 H         1 7HK301      0.0000 
     36 H          14.6815   -3.8156    9.0729 H         1 7HK301      0.0000 
     37 H          13.5328   -5.5000   10.3614 H         1 7HK301      0.0000 
     38 H          17.1380   -6.5668   12.2015 H         1 7HK301      0.0000 
     39 H          15.1932   -7.9201   12.5567 H         1 7HK301      0.0000 
     40 H          13.2909   -9.1021   13.2660 H         1 7HK301      0.0000 
     41 H          11.0141   -9.1872   13.9953 H         1 7HK301      0.0000 
     42 H          10.5397   -5.1752   13.0995 H         1 7HK301      0.0000 
     43 H          12.8316   -5.0354   12.4346 H         1 7HK301      0.0000 
     44 H          22.7092   -6.1791    3.9005 H         1 7HK301      0.0000 
     45 H          21.4539   -6.9981    4.4832 H         1 7HK301      0.0000 
     46 H          21.2475   -5.5086    3.9131 H         1 7HK301      0.0000 
@<TRIPOS>BOND
     1    2    1 2    
     2    3    2 am   
     3   15    2 1    
     4    4    3 1    
     5   29    3 1    
     6    5    4 ar   
     7    8    4 ar   
     8    6    5 ar   
     9   17    5 1    
    10    7    6 ar   
    11   30    6 1    
    12    9    7 ar   
    13   31    7 1    
    14    9    8 ar   
    15   32    8 1    
    16   10    9 1    
    17   11   10 1    
    18   33   10 1    
    19   34   10 1    
    20   12   11 1    
    21   14   11 2    
    22   13   12 1    
    23   44   13 1    
    24   45   13 1    
    25   46   13 1    
    26   16   15 ar   
    27   18   15 ar   
    28   17   16 1    
    29   21   16 ar   
    30   35   17 1    
    31   19   18 ar   
    32   36   18 1    
    33   20   19 ar   
    34   37   19 1    
    35   21   20 ar   
    36   22   20 1    
    37   38   21 1    
    38   23   22 1    
    39   39   22 1    
    40   24   23 ar   
    41   28   23 ar   
    42   25   24 ar   
    43   40   24 1    
    44   26   25 ar   
    45   41   25 1    
    46   27   26 ar   
    47   28   27 ar   
    48   42   27 1    
    49   43   28 1    
@<TRIPOS>SUBSTRUCTURE
     1 7HK301      1 GROUP   
@<TRIPOS>SET

