#    Name: 4fa6_0TA_1_INTS_M
#    Modification time : Mon Mar 24 19:11:14 2014

@<TRIPOS>MOLECULE
4fa6_0TA_1_INTS_M
   56     0     9     0     0
SMALL
NO_CHARGES


@<TRIPOS>ATOM
      1 O          50.3235   13.4970   28.5625 O.2       1 ALC1        0.0000 
      2 O          49.2890   14.0420   29.4070 O.2       7 ALL1        0.0000 
      3 O          51.3580   12.9520   27.7180 O.2       4 ALP1        0.0000 
      4 CA         43.8570   17.3970   30.7235 C.3       3 GLC5        0.0000 
      5 CA         45.6700   17.8030   31.9730 C.3       9 GLL5        0.0000 
      6 CA         42.0440   16.9910   29.4740 C.3       6 GLP5        0.0000 
      7 CA         39.9715   14.4920   31.2450 C.3       3 GLC5        0.0000 
      8 CA         41.9240   13.5710   31.6270 C.3       9 GLL5        0.0000 
      9 CA         38.0190   15.4130   30.8630 C.3       6 GLP5        0.0000 
     10 CA         41.2170   13.9095   29.3465 C.3       3 GLC5        0.0000 
     11 CA         41.0500   12.7330   30.9130 C.3       9 GLL5        0.0000 
     12 CA         41.3840   15.0860   27.7800 C.3       6 GLP5        0.0000 
     13 CA         39.3475   13.5490   30.3520 C.3       3 GLC5        0.0000 
     14 CA         37.6450   14.3650   29.7910 C.3       6 GLP5        0.0000 
     15 CA         44.3695   10.4185   27.4675 C.3       3 GLC5        0.0000 
     16 CA         45.4610   11.5720   28.2550 C.3       9 GLL5        0.0000 
     17 CA         43.2780    9.2650   26.6800 C.3       6 GLP5        0.0000 
     18 CA         45.6285   12.7860   26.7450 C.3       3 GLC5        0.0000 
     19 CA         45.7960   14.0000   25.2350 C.3       6 GLP5        0.0000 
     20 CA         48.7055   11.9315   30.0715 C.3       3 GLC5        0.0000 
     21 CA         47.9670   13.9070   29.5320 C.3       9 GLL5        0.0000 
     22 CA         49.4440    9.9560   30.6110 C.3       6 GLP5        0.0000 
     23 CA         48.5900   12.7710   27.7430 C.3       3 GLC5        0.0000 
     24 CA         49.2130   11.6350   25.9540 C.3       6 GLP5        0.0000 
     25 CA         46.9985   15.3325   28.7390 C.3       3 GLC5        0.0000 
     26 CA         46.0300   16.7580   27.9460 C.3       6 GLP5        0.0000 
     27 N          48.4985   11.8680   28.5545 N.am      2 SEC2        0.0000 
     28 N          47.3690   12.9410   28.8000 N.am      8 SEL2        0.0000 
     29 N          49.6280   10.7950   28.3090 N.am      5 SEP2        0.0000 
     30 CA         48.0030   15.7815   33.3490 C.3       3 GLC5        0.0000 
     31 CA         46.1170   16.3830   32.3170 C.3       9 GLL5        0.0000 
     32 CA         49.8640   15.2540   33.6190 C.3       6 GLP5        0.0000 
     33 CA         46.2765   14.3920   33.2995 C.3       3 GLC5        0.0000 
     34 CA         46.1670   16.2350   33.8410 C.3       9 GLL5        0.0000 
     35 CA         46.4110   12.4750   33.5200 C.3       6 GLP5        0.0000 
     36 CA         46.7078   17.3385   30.2665 C.3       3 GLC5        0.0000 
     37 CA         47.5220   17.5840   28.3880 C.3       6 GLP5        0.0000 
     38 CA         46.9490   16.7942   35.6075 C.3       3 GLC5        0.0000 
     39 CA         47.9420   16.6840   37.1070 C.3       6 GLP5        0.0000 
     40 CA         44.9982   13.0640   32.1067 C.3       3 GLC5        0.0000 
     41 CA         43.2630   13.9970   31.1790 C.3       9 GLL5        0.0000 
     42 CA         42.3187   15.3875   30.4385 C.3       3 GLC5        0.0000 
     43 CA         42.7309   11.6402   31.3410 C.3       3 GLC5        0.0000 
     44 CA         43.6400   10.0220   31.5240 C.3       6 GLP5        0.0000 
     45 CA         44.1235   11.7157   30.7945 C.3       3 GLC5        0.0000 
     46 CA         43.9080   13.3090   30.2080 C.3       9 GLL5        0.0000 
     47 CA         43.6350   13.9362   28.6375 C.3       3 GLC5        0.0000 
     48 CA         42.6630   14.4630   27.2100 C.3       6 GLP5        0.0000 
     49 CA         46.0420   13.2440   31.8985 C.3       3 GLC5        0.0000 
     50 CA         45.3060   13.5100   29.9220 C.3       9 GLL5        0.0000 
     51 CA         44.7002   11.0865   30.0760 C.3       3 GLC5        0.0000 
     52 CA         46.0600   12.7300   29.0010 C.3       9 GLL5        0.0000 
     53 CA         46.8912   11.4395   27.1615 C.3       3 GLC5        0.0000 
     54 CA         48.0220   10.7280   25.6950 C.3       6 GLP5        0.0000 
     55 CA         44.2117   13.3070   27.9190 C.3       3 GLC5        0.0000 
     56 CA         45.9457   15.2880   28.9964 C.3       3 GLC5        0.0000 
@<TRIPOS>BOND
@<TRIPOS>SUBSTRUCTURE
     1 ALC1        1 GROUP        1 X    ALC  0     ROOT ALC X 1
     2 SEC2       27 GROUP        1 X    SEC  0     **** SEC X 2
     3 GLC5        4 GROUP        1 X    GLC  0     **** GLC X 6
     4 ALP1        3 GROUP        1 Y    ALP  0     ROOT ALP Y 8
     5 SEP2       29 GROUP        1 Y    SEP  0     **** SEP Y 9
     6 GLP5        6 GROUP        1 Y    GLP  0     **** GLP Y 13
     7 ALL1        2 GROUP        1 Z    ALL  0     ROOT ALL Z 15
     8 SEL2       28 GROUP        1 Z    SEL  0     **** SEL Z 16
     9 GLL5        5 GROUP        1 Z    GLL  0     **** GLL Z 20
@<TRIPOS>SET

