#    Name: 4fa6_0TA_1_ligand
#    Modification time : Mon Mar 24 19:11:14 2014

@<TRIPOS>MOLECULE
4fa6_0TA_1_ligand
   41    44     1     0     0
SMALL
NO_CHARGES


@<TRIPOS>ATOM
      1 N1         49.2890   14.0420   29.4070 N.pl3     1 0TA1201     0.0000 
      2 N3         45.3790   15.3080   31.6160 N.am      1 0TA1201     0.0000 
      3 C4         46.1170   16.3830   32.3170 C.3       1 0TA1201     0.0000 
      4 C5         46.1670   16.2350   33.8410 C.3       1 0TA1201     0.0000 
      5 C6         45.7450   17.5740   34.3750 C.3       1 0TA1201     0.0000 
      6 C7         45.0890   18.3330   33.2560 C.3       1 0TA1201     0.0000 
      7 C8         45.6700   17.8030   31.9730 C.3       1 0TA1201     0.0000 
      8 C10        43.2630   13.9970   31.1790 C.2       1 0TA1201     0.0000 
      9 C13        41.9240   13.5710   31.6270 C.2       1 0TA1201     0.0000 
     10 C15        41.1780   13.9110   32.7410 C.2       1 0TA1201     0.0000 
     11 O          43.4290   15.7570   32.7620 O.2       1 0TA1201     0.0000 
     12 C9         43.9540   15.0470   31.9140 C.2       1 0TA1201     0.0000 
     13 N5         39.9840   13.3280   32.6460 N.2       1 0TA1201     0.0000 
     14 N4         39.8850   12.5900   31.5240 N.pl3     1 0TA1201     0.0000 
     15 C14        41.0500   12.7330   30.9130 C.2       1 0TA1201     0.0000 
     16 C11        43.9080   13.3090   30.2080 C.2       1 0TA1201     0.0000 
     17 C12        45.3060   13.5100   29.9220 C.ar      1 0TA1201     0.0000 
     18 C1         46.0600   12.7300   29.0010 C.ar      1 0TA1201     0.0000 
     19 C          45.4610   11.5720   28.2550 C.3       1 0TA1201     0.0000 
     20 C3         46.0400   14.5160   30.6320 C.ar      1 0TA1201     0.0000 
     21 N2         47.3540   14.7020   30.4290 N.ar      1 0TA1201     0.0000 
     22 C2         47.9670   13.9070   29.5320 C.ar      1 0TA1201     0.0000 
     23 N          47.3690   12.9410   28.8000 N.ar      1 0TA1201     0.0000 
     24 H          49.7207   14.7179   30.0043 H         1 0TA1201     0.0000 
     25 H          49.7289   13.4551   28.7273 H         1 0TA1201     0.0000 
     26 H          47.2038   16.3303   31.9859 H         1 0TA1201     0.0000 
     27 H          47.1671   16.0125   34.1401 H         1 0TA1201     0.0000 
     28 H          45.4775   15.4785   34.1437 H         1 0TA1201     0.0000 
     29 H          46.6124   18.1179   34.7262 H         1 0TA1201     0.0000 
     30 H          45.0417   17.4392   35.1867 H         1 0TA1201     0.0000 
     31 H          45.3074   19.3839   33.3488 H         1 0TA1201     0.0000 
     32 H          44.0253   18.1631   33.2724 H         1 0TA1201     0.0000 
     33 H          44.9223   17.7652   31.2153 H         1 0TA1201     0.0000 
     34 H          46.5168   18.3805   31.6832 H         1 0TA1201     0.0000 
     35 H          41.4962   14.4781   33.4523 H         1 0TA1201     0.0000 
     36 H          39.1327   12.0805   31.2439 H         1 0TA1201     0.0000 
     37 H          41.3160   12.3204   30.0591 H         1 0TA1201     0.0000 
     38 H          43.4090   12.6015   29.6268 H         1 0TA1201     0.0000 
     39 H          46.1261   11.1374   27.6478 H         1 0TA1201     0.0000 
     40 H          45.1248   10.8641   28.8761 H         1 0TA1201     0.0000 
     41 H          44.6878   11.8556   27.6878 H         1 0TA1201     0.0000 
@<TRIPOS>BOND
     1   22    1 1    
     2   24    1 1    
     3   25    1 1    
     4    3    2 1    
     5   12    2 am   
     6   20    2 1    
     7    4    3 1    
     8    7    3 1    
     9   26    3 1    
    10    5    4 1    
    11   27    4 1    
    12   28    4 1    
    13    6    5 1    
    14   29    5 1    
    15   30    5 1    
    16    7    6 1    
    17   31    6 1    
    18   32    6 1    
    19   33    7 1    
    20   34    7 1    
    21    9    8 1    
    22   12    8 1    
    23   16    8 2    
    24   10    9 1    
    25   15    9 2    
    26   13   10 2    
    27   35   10 1    
    28   12   11 2    
    29   14   13 1    
    30   15   14 1    
    31   36   14 1    
    32   37   15 1    
    33   17   16 1    
    34   38   16 1    
    35   18   17 ar   
    36   20   17 ar   
    37   19   18 1    
    38   23   18 ar   
    39   39   19 1    
    40   40   19 1    
    41   41   19 1    
    42   21   20 ar   
    43   22   21 ar   
    44   23   22 ar   
@<TRIPOS>SUBSTRUCTURE
     1 0TA1201     1 GROUP   
@<TRIPOS>SET

