#    Name: 3oht_1N1_4_INTS_M
#    Modification time : Tue Mar 25 04:39:44 2014

@<TRIPOS>MOLECULE
3oht_1N1_4_INTS_M
   67     0     6     0     0
SMALL
NO_CHARGES


@<TRIPOS>ATOM
      1 CA         18.1975   13.3775    3.2625 C.3       2 GLC5        0.0000 
      2 CA         17.9570   15.1070    3.8750 C.3       6 GLL5        0.0000 
      3 CA         18.4380   11.6480    2.6500 C.3       4 GLP5        0.0000 
      4 CA         18.8680   16.5920    5.0520 C.3       2 GLC5        0.0000 
      5 CA         19.7790   18.0770    6.2290 C.3       4 GLP5        0.0000 
      6 CA         18.3670   17.1600   -5.0160 C.3       2 GLC5        0.0000 
      7 CA         17.9840   16.8880   -2.8690 C.3       6 GLL5        0.0000 
      8 CA         18.7500   17.4320   -7.1630 C.3       4 GLP5        0.0000 
      9 CA         18.9235   18.4625   -3.8280 C.3       2 GLC5        0.0000 
     10 CA         19.8630   20.0370   -4.7870 C.3       4 GLP5        0.0000 
     11 CA         18.9610   19.2750   -2.6820 C.3       2 GLC5        0.0000 
     12 CA         17.8410   17.9570   -1.9850 C.3       6 GLL5        0.0000 
     13 CA         20.0810   20.5930   -3.3790 C.3       4 GLP5        0.0000 
     14 CA         16.6600   17.7215    7.1395 C.3       2 GLC5        0.0000 
     15 CA         15.6620   16.0790    7.7240 C.3       6 GLL5        0.0000 
     16 CA         17.6580   19.3640    6.5550 C.3       4 GLP5        0.0000 
     17 CA         15.7085   18.3905    7.1020 C.3       2 GLC5        0.0000 
     18 CA         13.7590   17.4170    7.6490 C.3       6 GLL5        0.0000 
     19 CA         13.3960   15.8465    6.6950 C.3       2 GLC5        0.0000 
     20 CA         13.0330   14.2760    5.7410 C.3       4 GLP5        0.0000 
     21 CA         12.3080   16.6390    6.0300 C.3       2 GLC5        0.0000 
     22 CA         12.8530   18.3330    6.8440 C.3       6 GLL5        0.0000 
     23 CA         11.7630   14.9450    5.2160 C.3       4 GLP5        0.0000 
     24 CA         12.8055   19.1935    5.2720 C.3       2 GLC5        0.0000 
     25 CA         12.7580   20.0540    3.7000 C.3       4 GLP5        0.0000 
     26 CA         12.3825   20.0420    7.2815 C.3       2 GLC5        0.0000 
     27 CA         11.9120   21.7510    7.7190 C.3       4 GLP5        0.0000 
     28 CA         14.5900   13.7415   10.9850 C.3       2 GLC5        0.0000 
     29 CA         14.9610   15.3390   11.8530 C.3       6 GLL5        0.0000 
     30 CA         14.2190   12.1440   10.1170 C.3       4 GLP5        0.0000 
     31 CA         12.3115   15.2125    9.8305 C.3       2 GLC5        0.0000 
     32 CA         12.6620   16.3640   11.5990 C.3       6 GLL5        0.0000 
     33 CA         11.9610   14.0610    8.0620 C.3       4 GLP5        0.0000 
     34 CA         16.8595   17.8955    5.6110 C.3       2 GLC5        0.0000 
     35 CA         16.0610   16.4270    4.6670 C.3       6 GLL5        0.0000 
     36 CA         14.5470   15.3515    5.2040 C.3       2 GLC5        0.0000 
     37 CA         15.0165   17.8680    3.9130 C.3       2 GLC5        0.0000 
     38 CA         13.9720   19.3090    3.1590 C.3       4 GLP5        0.0000 
     39 O          19.2010   15.5770    1.6605 O.2       1 ALC1        0.0000 
     40 O          17.8810   16.1650    1.1850 O.2       5 ALL1        0.0000 
     41 O          20.5210   14.9890    2.1360 O.2       3 ALP1        0.0000 
     42 CA         17.9860   13.5175   -3.2150 C.3       2 GLC5        0.0000 
     43 CA         18.0880   15.5920   -2.3750 C.3       6 GLL5        0.0000 
     44 CA         17.8840   11.4430   -4.0550 C.3       4 GLP5        0.0000 
     45 CA         20.0320   15.0315   -2.2735 C.3       2 GLC5        0.0000 
     46 CA         21.9760   14.4710   -2.1720 C.3       4 GLP5        0.0000 
     47 CA         18.3060   12.7015    1.1320 C.3       2 GLC5        0.0000 
     48 CA         18.1740   13.7550   -0.3860 C.3       6 GLL5        0.0000 
     49 CA         18.0385   12.0185   -1.1035 C.3       2 GLC5        0.0000 
     50 CA         17.9030   10.2820   -1.8210 C.3       4 GLP5        0.0000 
     51 CA         19.9765   13.4020   -0.2390 C.3       2 GLC5        0.0000 
     52 CA         21.7790   13.0490   -0.0920 C.3       4 GLP5        0.0000 
     53 CA         16.5470   13.3760   -0.9855 C.3       2 GLC5        0.0000 
     54 CA         14.9200   12.9970   -1.5850 C.3       4 GLP5        0.0000 
     55 CA         11.3460   17.9170   14.1425 C.3       2 GLC5        0.0000 
     56 CA         12.8760   17.1160   12.9240 C.3       6 GLL5        0.0000 
     57 CA          9.8160   18.7180   15.3610 C.3       4 GLP5        0.0000 
     58 CA         16.6760   15.7100   -3.7970 C.3       2 GLC5        0.0000 
     59 CA         15.3160   15.1800   -4.9720 C.3       4 GLP5        0.0000 
     60 CA         14.2817   15.1028    7.0652 C.3       2 GLC5        0.0000 
     61 CA         11.1770   17.5665   11.2797 C.3       2 GLC5        0.0000 
     62 CA          9.5850   18.3930   10.2980 C.3       4 GLP5        0.0000 
     63 CA         19.7402   15.8969   -0.3167 C.3       2 GLC5        0.0000 
     64 CA         17.9040   16.4380   -0.1140 C.3       6 GLL5        0.0000 
     65 CA         21.5290   15.5620    0.0450 C.3       4 GLP5        0.0000 
     66 CA         16.4943   14.2393   -1.6358 C.3       2 GLC5        0.0000 
     67 CA         18.0490   15.3710   -0.9980 C.3       6 GLL5        0.0000 
@<TRIPOS>BOND
@<TRIPOS>SUBSTRUCTURE
     1 ALC1       39 GROUP        1 X    ALC  0     ROOT ALC X 1
     2 GLC5        1 GROUP        1 X    GLC  0     **** GLC X 6
     3 ALP1       41 GROUP        1 Y    ALP  0     ROOT ALP Y 8
     4 GLP5        3 GROUP        1 Y    GLP  0     **** GLP Y 13
     5 ALL1       40 GROUP        1 Z    ALL  0     ROOT ALL Z 15
     6 GLL5        2 GROUP        1 Z    GLL  0     **** GLL Z 20
@<TRIPOS>SET

