#    Name: 3oht_1N1_4_ligand
#    Modification time : Tue Mar 25 04:39:44 2014

@<TRIPOS>MOLECULE
3oht_1N1_4_ligand
   60    63     1     0     0
SMALL
NO_CHARGES


@<TRIPOS>ATOM
      1 C1         17.9570   15.1070    3.8750 C.2       1 1N12000     0.0000 
      2 C2         17.0020   15.9130    3.4050 C.2       1 1N12000     0.0000 
      3 C3         16.7900   16.2950    1.9430 C.2       1 1N12000     0.0000 
      4 N6         13.8810   16.4540   13.7990 N.4       1 1N12000     0.0000 
      5 C7         17.9840   16.8880   -2.8690 C.ar      1 1N12000     0.0000 
      6 C8         17.8410   17.9570   -1.9850 C.ar      1 1N12000     0.0000 
      7 C9         17.8040   17.7470   -0.6040 C.ar      1 1N12000     0.0000 
      8 C10        17.6460   18.9650    0.3270 C.3       1 1N12000     0.0000 
      9 C11        15.6620   16.0790    7.7240 C.ar      1 1N12000     0.0000 
     10 C12        15.3990   15.7800    9.0550 C.ar      1 1N12000     0.0000 
     11 C13        14.2760   16.3380    9.6610 C.ar      1 1N12000     0.0000 
     12 C14        13.7590   17.4170    7.6490 C.ar      1 1N12000     0.0000 
     13 C15        12.8530   18.3330    6.8440 C.3       1 1N12000     0.0000 
     14 C16        14.9610   15.3390   11.8530 C.3       1 1N12000     0.0000 
     15 C19        12.6620   16.3640   11.5990 C.3       1 1N12000     0.0000 
     16 C20        14.1830   17.4120   14.8790 C.3       1 1N12000     0.0000 
     17 C21        14.7960   16.6830   16.0800 C.3       1 1N12000     0.0000 
     18 N          16.7370   15.5550    7.1380 N.pl3     1 1N12000     0.0000 
     19 C          16.9500   15.5900    5.8250 C.2       1 1N12000     0.0000 
     20 N1         17.9340   14.9330    5.2110 N.2       1 1N12000     0.0000 
     21 S          16.0610   16.4270    4.6670 S.3       1 1N12000     0.0000 
     22 N2         17.8810   16.1650    1.1850 N.am      1 1N12000     0.0000 
     23 C4         17.9040   16.4380   -0.1140 C.ar      1 1N12000     0.0000 
     24 C5         18.0490   15.3710   -0.9980 C.ar      1 1N12000     0.0000 
     25 C6         18.0880   15.5920   -2.3750 C.ar      1 1N12000     0.0000 
     26 CL         18.1740   13.7550   -0.3860 Cl        1 1N12000     0.0000 
     27 O          15.7000   16.7210    1.5510 O.2       1 1N12000     0.0000 
     28 N3         13.4800   17.1510    8.9380 N.ar      1 1N12000     0.0000 
     29 N4         14.8350   16.8920    7.0560 N.ar      1 1N12000     0.0000 
     30 N5         13.9790   16.0420   11.0020 N.3       1 1N12000     0.0000 
     31 C17        15.1680   16.1610   13.1240 C.3       1 1N12000     0.0000 
     32 C18        12.8760   17.1160   12.9240 C.3       1 1N12000     0.0000 
     33 O1         15.2650   17.6710   17.0020 O.3       1 1N12000     0.0000 
     34 H          18.6420   14.6621    3.2841 H         1 1N12000     0.0000 
     35 H          13.4722   15.5679   14.2303 H         1 1N12000     0.0000 
     36 H          18.0122   17.0587   -3.8804 H         1 1N12000     0.0000 
     37 H          17.7612   18.9182   -2.3551 H         1 1N12000     0.0000 
     38 H          16.0174   15.1620    9.5813 H         1 1N12000     0.0000 
     39 H          15.9122   15.2432   11.3424 H         1 1N12000     0.0000 
     40 H          14.5953   14.3570   12.1300 H         1 1N12000     0.0000 
     41 H          12.1019   15.4565   11.8061 H         1 1N12000     0.0000 
     42 H          12.0835   16.9988   10.9338 H         1 1N12000     0.0000 
     43 H          13.2738   17.9175   15.2113 H         1 1N12000     0.0000 
     44 H          14.8931   18.1676   14.5366 H         1 1N12000     0.0000 
     45 H          15.6033   16.0537   15.7115 H         1 1N12000     0.0000 
     46 H          14.0246   16.0521   16.5163 H         1 1N12000     0.0000 
     47 H          17.4706   15.0791    7.7585 H         1 1N12000     0.0000 
     48 H          18.7821   15.8229    1.6513 H         1 1N12000     0.0000 
     49 H          18.1930   14.8006   -3.0189 H         1 1N12000     0.0000 
     50 H          15.8305   15.6011   13.7957 H         1 1N12000     0.0000 
     51 H          15.6770   17.0947   12.8547 H         1 1N12000     0.0000 
     52 H          13.1944   18.1417   12.6889 H         1 1N12000     0.0000 
     53 H          11.9080   17.1827   13.4409 H         1 1N12000     0.0000 
     54 H          17.6356   18.6972    1.2904 H         1 1N12000     0.0000 
     55 H          18.3936   19.6193    0.2127 H         1 1N12000     0.0000 
     56 H          16.7946   19.4591    0.1509 H         1 1N12000     0.0000 
     57 H          12.8014   19.2485    7.2429 H         1 1N12000     0.0000 
     58 H          13.1750   18.4408    5.9034 H         1 1N12000     0.0000 
     59 H          11.9181   17.9814    6.7953 H         1 1N12000     0.0000 
     60 H          15.8424   18.2484   17.5794 H         1 1N12000     0.0000 
@<TRIPOS>BOND
     1    2    1 2    
     2   20    1 1    
     3   34    1 1    
     4    3    2 1    
     5   21    2 1    
     6   22    3 am   
     7   27    3 2    
     8   16    4 1    
     9   31    4 1    
    10   32    4 1    
    11   35    4 1    
    12    6    5 ar   
    13   25    5 ar   
    14   36    5 1    
    15    7    6 ar   
    16   37    6 1    
    17    8    7 1    
    18   23    7 ar   
    19   54    8 1    
    20   55    8 1    
    21   56    8 1    
    22   10    9 ar   
    23   18    9 1    
    24   29    9 ar   
    25   11   10 ar   
    26   38   10 1    
    27   28   11 ar   
    28   30   11 1    
    29   13   12 1    
    30   28   12 ar   
    31   29   12 ar   
    32   57   13 1    
    33   58   13 1    
    34   59   13 1    
    35   30   14 1    
    36   31   14 1    
    37   39   14 1    
    38   40   14 1    
    39   30   15 1    
    40   32   15 1    
    41   41   15 1    
    42   42   15 1    
    43   17   16 1    
    44   43   16 1    
    45   44   16 1    
    46   33   17 1    
    47   45   17 1    
    48   46   17 1    
    49   19   18 1    
    50   47   18 1    
    51   20   19 2    
    52   21   19 1    
    53   23   22 1    
    54   48   22 1    
    55   24   23 ar   
    56   25   24 ar   
    57   26   24 1    
    58   49   25 1    
    59   50   31 1    
    60   51   31 1    
    61   52   32 1    
    62   53   32 1    
    63   60   33 1    
@<TRIPOS>SUBSTRUCTURE
     1 1N12000     1 GROUP   
@<TRIPOS>SET

