#    Name: 1ki3_PE2_2_INTS_M
#    Modification time : Tue Mar 25 10:02:37 2014

@<TRIPOS>MOLECULE
1ki3_PE2_2_INTS_M
   42     0     9     0     0
SMALL
NO_CHARGES


@<TRIPOS>ATOM
      1 CA         21.9030   95.9025   46.0990 C.3       3 GLC5        0.0000 
      2 CA         22.2070   96.8390   44.4260 C.3       9 GLL5        0.0000 
      3 CA         21.5990   94.9660   47.7720 C.3       6 GLP5        0.0000 
      4 CA         17.0825   94.9065   46.1910 C.3       3 GLC5        0.0000 
      5 CA         16.7320   96.4120   44.6480 C.3       9 GLL5        0.0000 
      6 CA         17.4330   93.4010   47.7340 C.3       6 GLP5        0.0000 
      7 O          15.6600   94.4905   45.8805 O.2       1 ALC1        0.0000 
      8 O          16.6430   95.5310   45.7600 O.2       7 ALL1        0.0000 
      9 O          14.6770   93.4500   46.0010 O.2       4 ALP1        0.0000 
     10 CA         17.4805   99.0530   42.5290 C.3       3 GLC5        0.0000 
     11 CA         17.6540   98.5360   43.9530 C.3       9 GLL5        0.0000 
     12 CA         17.3070   99.5700   41.1050 C.3       6 GLP5        0.0000 
     13 N          19.0260  100.8455   44.2050 N.am      2 SEC2        0.0000 
     14 N          18.6100   99.5320   44.2130 N.am      8 SEL2        0.0000 
     15 N          19.4420  102.1590   44.1970 N.am      5 SEP2        0.0000 
     16 CA         20.7425   97.0470   42.4765 C.3       3 GLC5        0.0000 
     17 CA         19.6770   96.8060   44.1440 C.3       9 GLL5        0.0000 
     18 CA         21.8080   97.2880   40.8090 C.3       6 GLP5        0.0000 
     19 O          25.3470   94.2900   44.8180 O.2       1 ALC1        0.0000 
     20 O          23.8080   93.9400   44.7750 O.2       7 ALL1        0.0000 
     21 O          26.8860   94.6400   44.8610 O.2       4 ALP1        0.0000 
     22 O          25.7565   95.3850   44.7920 O.2       1 ALC1        0.0000 
     23 O          24.6270   96.1300   44.7230 O.2       7 ALL1        0.0000 
     24 N          26.4720   97.4205   45.2785 N.am      2 SEC2        0.0000 
     25 N          25.6150   98.2070   44.7220 N.am      8 SEL2        0.0000 
     26 N          27.3290   96.6340   45.8350 N.am      5 SEP2        0.0000 
     27 N          25.9025   99.6160   44.3005 N.am      2 SEC2        0.0000 
     28 N          26.1900  101.0250   43.8790 N.am      5 SEP2        0.0000 
     29 CA         23.4315   97.4850   46.3755 C.3       3 GLC5        0.0000 
     30 CA         23.1810   97.8190   44.4520 C.3       9 GLL5        0.0000 
     31 CA         24.1690   97.6410   48.3120 C.3       6 GLP5        0.0000 
     32 CA         23.7600   96.2435   42.9625 C.3       3 GLC5        0.0000 
     33 CA         24.8260   95.1580   41.4860 C.3       6 GLP5        0.0000 
     34 CA         16.7582   97.7043   43.0325 C.3       3 GLC5        0.0000 
     35 CA         17.5470   97.6070   45.1220 C.3       9 GLL5        0.0000 
     36 CA         16.3770   98.3990   41.1800 C.3       6 GLP5        0.0000 
     37 CA         15.8048   97.6288   46.1740 C.3       3 GLC5        0.0000 
     38 CA         14.4700   98.2480   47.4630 C.3       6 GLP5        0.0000 
     39 CA         18.2455   97.0210   47.1635 C.3       3 GLC5        0.0000 
     40 CA         18.2380   96.6470   49.0620 C.3       6 GLP5        0.0000 
     41 CA         20.4585   95.9802   46.2740 C.3       3 GLC5        0.0000 
     42 CA         18.9590   97.1830   45.4080 C.3       9 GLL5        0.0000 
@<TRIPOS>BOND
@<TRIPOS>SUBSTRUCTURE
     1 ALC1        7 GROUP        1 X    ALC  0     ROOT ALC X 1
     2 SEC2       13 GROUP        1 X    SEC  0     **** SEC X 2
     3 GLC5        1 GROUP        1 X    GLC  0     **** GLC X 6
     4 ALP1        9 GROUP        1 Y    ALP  0     ROOT ALP Y 8
     5 SEP2       15 GROUP        1 Y    SEP  0     **** SEP Y 9
     6 GLP5        3 GROUP        1 Y    GLP  0     **** GLP Y 13
     7 ALL1        8 GROUP        1 Z    ALL  0     ROOT ALL Z 15
     8 SEL2       14 GROUP        1 Z    SEL  0     **** SEL Z 16
     9 GLL5        2 GROUP        1 Z    GLL  0     **** GLL Z 20
@<TRIPOS>SET

