#    Name: 1ki3_PE2_2_ligand
#    Modification time : Tue Mar 25 10:02:37 2014

@<TRIPOS>MOLECULE
1ki3_PE2_2_ligand
   33    34     1     0     0
SMALL
NO_CHARGES


@<TRIPOS>ATOM
      1 C2         23.5730   95.2450   44.6590 C.2       1 PE22        0.0000 
      2 C4         22.2070   96.8390   44.4260 C.2       1 PE22        0.0000 
      3 C5         23.1810   97.8190   44.4520 C.2       1 PE22        0.0000 
      4 C4'        16.7320   96.4120   44.6480 C.3       1 PE22        0.0000 
      5 O4'        16.6430   95.5310   45.7600 O.3       1 PE22        0.0000 
      6 C3'        17.6540   98.5360   43.9530 C.3       1 PE22        0.0000 
      7 O3'        18.6100   99.5320   44.2130 O.3       1 PE22        0.0000 
      8 C2'        17.5470   97.6070   45.1220 C.3       1 PE22        0.0000 
      9 C12        18.9590   97.1830   45.4080 C.3       1 PE22        0.0000 
     10 C1'        19.6770   96.8060   44.1440 C.3       1 PE22        0.0000 
     11 N9         20.9920   97.4560   44.2730 N.pl3     1 PE22        0.0000 
     12 N3         22.3140   95.5410   44.5270 N.2       1 PE22        0.0000 
     13 N2         23.8080   93.9400   44.7750 N.pl3     1 PE22        0.0000 
     14 N1         24.6270   96.1300   44.7230 N.am      1 PE22        0.0000 
     15 C6         24.5750   97.4900   44.6340 C.2       1 PE22        0.0000 
     16 O6         25.6150   98.2070   44.7220 O.2       1 PE22        0.0000 
     17 N7         22.5710   99.0850   44.3310 N.2       1 PE22        0.0000 
     18 C8         21.3140   98.7820   44.2300 C.2       1 PE22        0.0000 
     19 H          15.7610   96.7710   44.3309 H         1 PE22        0.0000 
     20 H          17.2493   95.9628   43.8097 H         1 PE22        0.0000 
     21 H          17.9167   97.9380   43.0633 H         1 PE22        0.0000 
     22 H          16.6551   98.9659   43.7646 H         1 PE22        0.0000 
     23 H          17.1114   98.0717   45.9282 H         1 PE22        0.0000 
     24 H          18.9513   96.3271   46.0921 H         1 PE22        0.0000 
     25 H          19.4934   98.0032   45.9001 H         1 PE22        0.0000 
     26 H          19.1437   97.1911   43.2994 H         1 PE22        0.0000 
     27 H          19.7821   95.7418   44.0944 H         1 PE22        0.0000 
     28 H          23.0024   93.3478   44.7937 H         1 PE22        0.0000 
     29 H          24.7689   93.6694   44.8330 H         1 PE22        0.0000 
     30 H          25.6112   95.6885   44.8603 H         1 PE22        0.0000 
     31 H          20.5695   99.4829   44.1216 H         1 PE22        0.0000 
     32 H          15.8818   94.9191   45.5450 H         1 PE22        0.0000 
     33 H          18.9181   99.3571   45.1482 H         1 PE22        0.0000 
@<TRIPOS>BOND
     1   12    1 2    
     2   13    1 1    
     3   14    1 1    
     4    3    2 2    
     5   11    2 1    
     6   12    2 1    
     7   15    3 1    
     8   17    3 1    
     9    5    4 1    
    10    8    4 1    
    11   19    4 1    
    12   20    4 1    
    13   32    5 1    
    14    7    6 1    
    15    8    6 1    
    16   21    6 1    
    17   22    6 1    
    18   33    7 1    
    19    9    8 1    
    20   23    8 1    
    21   10    9 1    
    22   24    9 1    
    23   25    9 1    
    24   11   10 1    
    25   26   10 1    
    26   27   10 1    
    27   18   11 1    
    28   28   13 1    
    29   29   13 1    
    30   15   14 am   
    31   30   14 1    
    32   16   15 2    
    33   18   17 2    
    34   31   18 1    
@<TRIPOS>SUBSTRUCTURE
     1 PE22        1 GROUP   
@<TRIPOS>SET

