#    Name: 4b6l_9ZP_1_INTS_M
#    Modification time : Tue Mar 25 06:47:54 2014

@<TRIPOS>MOLECULE
4b6l_9ZP_1_INTS_M
   73     0     9     0     0
SMALL
NO_CHARGES


@<TRIPOS>ATOM
      1 O          59.2365   -7.7825   -8.1325 O.2       1 ALC1        0.0000 
      2 O          60.0800   -7.0320   -8.9500 O.2       7 ALL1        0.0000 
      3 O          58.3930   -8.5330   -7.3150 O.2       4 ALP1        0.0000 
      4 CA         59.1940   -9.2750   -9.1765 C.3       3 GLC5        0.0000 
      5 CA         61.3140   -9.2980   -9.1710 C.3       9 GLL5        0.0000 
      6 CA         57.0740   -9.2520   -9.1820 C.3       6 GLP5        0.0000 
      7 CA         54.8395   -4.2795  -12.1410 C.3       3 GLC5        0.0000 
      8 CA         56.8220   -4.2160  -11.1110 C.3       9 GLL5        0.0000 
      9 CA         52.8570   -4.3430  -13.1710 C.3       6 GLP5        0.0000 
     10 CA         56.5540   -5.9230  -12.6690 C.3       3 GLC5        0.0000 
     11 CA         57.0540   -3.9960  -13.5080 C.3       9 GLL5        0.0000 
     12 CA         56.0540   -7.8500  -11.8300 C.3       6 GLP5        0.0000 
     13 CA         54.9555   -4.1695  -13.3395 C.3       3 GLC5        0.0000 
     14 CA         56.6060   -2.0665  -13.7430 C.3       3 GLC5        0.0000 
     15 CA         56.1580   -0.1370  -13.9780 C.3       6 GLP5        0.0000 
     16 CA         55.0190   -5.6810  -10.2800 C.3       3 GLC5        0.0000 
     17 CA         56.0890   -4.0240   -9.9370 C.3       9 GLL5        0.0000 
     18 CA         53.9490   -7.3380  -10.6230 C.3       6 GLP5        0.0000 
     19 CA         58.9030   -3.6515   -9.1210 C.3       3 GLC5        0.0000 
     20 CA         57.8100   -5.1340   -8.6490 C.3       9 GLL5        0.0000 
     21 CA         59.9960   -2.1690   -9.5930 C.3       6 GLP5        0.0000 
     22 O          55.0400   -2.0565  -10.7155 O.2       1 ALC1        0.0000 
     23 O          54.9240   -3.2830  -10.0510 O.2       7 ALL1        0.0000 
     24 O          55.1560   -0.8300  -11.3800 O.2       4 ALP1        0.0000 
     25 CA         53.8915   -5.3295   -9.9155 C.3       3 GLC5        0.0000 
     26 CA         53.8340   -3.3210   -9.2080 C.3       9 GLL5        0.0000 
     27 CA         52.0430   -4.3535   -9.8390 C.3       3 GLC5        0.0000 
     28 CA         50.2520   -5.3860  -10.4700 C.3       6 GLP5        0.0000 
     29 CA         53.3455   -3.8320  -11.1895 C.3       3 GLC5        0.0000 
     30 CA         51.1040   -2.3600  -10.7465 C.3       3 GLC5        0.0000 
     31 CA         51.6860   -2.5450   -8.8050 C.3       9 GLL5        0.0000 
     32 CA         50.5220   -2.1750  -12.6880 C.3       6 GLP5        0.0000 
     33 CA         52.3650   -0.7480   -9.5690 C.3       3 GLC5        0.0000 
     34 CA         53.0440    1.0490  -10.3330 C.3       6 GLP5        0.0000 
     35 CA         52.1600   -0.6985   -7.6730 C.3       3 GLC5        0.0000 
     36 CA         52.6340    1.1480   -6.5410 C.3       6 GLP5        0.0000 
     37 N          52.5365   -1.6875  -10.7120 N.am      2 SEC2        0.0000 
     38 N          52.7730   -2.6210   -9.5910 N.am      8 SEL2        0.0000 
     39 N          52.3000   -0.7540  -11.8330 N.am      5 SEP2        0.0000 
     40 CA         48.5795   -4.7285   -5.9350 C.3       3 GLC5        0.0000 
     41 CA         50.5000   -4.0010   -5.6370 C.3       9 GLL5        0.0000 
     42 CA         46.6590   -5.4560   -6.2330 C.3       6 GLP5        0.0000 
     43 CA         50.4470   -5.9845   -8.8285 C.3       3 GLC5        0.0000 
     44 CA         50.6420   -6.5830   -7.1870 C.3       9 GLL5        0.0000 
     45 CA         53.5770   -8.3550   -4.7510 C.3       3 GLC5        0.0000 
     46 CA         55.2430   -6.9710   -4.1740 C.3       9 GLL5        0.0000 
     47 CA         51.9110   -9.7390   -5.3280 C.3       6 GLP5        0.0000 
     48 CA         56.7338   -6.2050  -11.4595 C.3       3 GLC5        0.0000 
     49 CA         58.0050   -4.9040  -11.0670 C.3       9 GLL5        0.0000 
     50 CA         58.7684   -3.4236  -10.1883 C.3       3 GLC5        0.0000 
     51 CA         57.1255   -2.5773   -9.0107 C.3       3 GLC5        0.0000 
     52 CA         57.8980   -0.9280   -8.7050 C.3       6 GLP5        0.0000 
     53 CA         56.6457   -6.5611   -9.1502 C.3       3 GLC5        0.0000 
     54 CA         56.6170   -4.4290   -8.6960 C.3       9 GLL5        0.0000 
     55 CA         55.9020   -8.2800   -9.3290 C.3       6 GLP5        0.0000 
     56 CA         51.1019   -4.2441   -9.3009 C.3       3 GLC5        0.0000 
     57 CA         51.9252   -3.3510   -4.6475 C.3       3 GLC5        0.0000 
     58 CA         52.8200   -2.1680   -3.8070 C.3       6 GLP5        0.0000 
     59 CA         51.3667   -8.1333   -5.8813 C.3       3 GLC5        0.0000 
     60 CA         51.0030   -6.4720   -5.6820 C.3       9 GLL5        0.0000 
     61 CA         49.5228   -7.6498   -5.8768 C.3       3 GLC5        0.0000 
     62 CA         48.2230   -8.7720   -5.3190 C.3       6 GLP5        0.0000 
     63 CA         48.7408   -5.9918   -6.3338 C.3       3 GLC5        0.0000 
     64 CA         53.9450   -3.8518   -4.8732 C.3       3 GLC5        0.0000 
     65 CA         54.0890   -5.4670   -5.6990 C.3       9 GLL5        0.0000 
     66 CA         53.7740   -2.0300   -4.7970 C.3       6 GLP5        0.0000 
     67 CA         56.2670   -8.9357   -5.2263 C.3       3 GLC5        0.0000 
     68 CA         57.3500  -10.5360   -5.5930 C.3       6 GLP5        0.0000 
     69 CA         55.3085   -7.7613   -7.6695 C.3       3 GLC5        0.0000 
     70 CA         55.1250   -7.7000   -5.5450 C.3       9 GLL5        0.0000 
     71 CA         53.6855   -8.5762   -6.4870 C.3       3 GLC5        0.0000 
     72 CA         54.3050   -6.7850   -6.4750 C.3       9 GLL5        0.0000 
     73 CA         52.6560   -9.9100   -6.9640 C.3       6 GLP5        0.0000 
@<TRIPOS>BOND
@<TRIPOS>SUBSTRUCTURE
     1 ALC1        1 GROUP        1 X    ALC  0     ROOT ALC X 1
     2 SEC2       37 GROUP        1 X    SEC  0     **** SEC X 2
     3 GLC5        4 GROUP        1 X    GLC  0     **** GLC X 6
     4 ALP1        3 GROUP        1 Y    ALP  0     ROOT ALP Y 8
     5 SEP2       39 GROUP        1 Y    SEP  0     **** SEP Y 9
     6 GLP5        6 GROUP        1 Y    GLP  0     **** GLP Y 13
     7 ALL1        2 GROUP        1 Z    ALL  0     ROOT ALL Z 15
     8 SEL2       38 GROUP        1 Z    SEL  0     **** SEL Z 16
     9 GLL5        5 GROUP        1 Z    GLL  0     **** GLL Z 20
@<TRIPOS>SET

