#    Name: 4b6l_9ZP_1_ligand
#    Modification time : Tue Mar 25 06:47:54 2014

@<TRIPOS>MOLECULE
4b6l_9ZP_1_ligand
   66    71     1     0     0
SMALL
NO_CHARGES


@<TRIPOS>ATOM
      1 N2         60.0800   -7.0320   -8.9500 N.am      1 9ZP1333     0.0000 
      2 C3         61.3520   -7.7760   -9.0200 C.3       1 9ZP1333     0.0000 
      3 C4         61.7020   -8.6700   -7.8300 C.3       1 9ZP1333     0.0000 
      4 C5         61.3140   -9.2980   -9.1710 C.3       1 9ZP1333     0.0000 
      5 C6         59.8190   -6.0660   -9.8490 C.2       1 9ZP1333     0.0000 
      6 O7         60.4900   -6.0150  -10.8780 O.2       1 9ZP1333     0.0000 
      7 C8         58.5140   -5.3770   -9.8450 C.ar      1 9ZP1333     0.0000 
      8 C9         58.0050   -4.9040  -11.0670 C.ar      1 9ZP1333     0.0000 
      9 C10        56.8220   -4.2160  -11.1110 C.ar      1 9ZP1333     0.0000 
     10 O11        56.3070   -3.7700  -12.3060 O.3       1 9ZP1333     0.0000 
     11 C12        57.0540   -3.9960  -13.5080 C.3       1 9ZP1333     0.0000 
     12 C13        56.0890   -4.0240   -9.9370 C.ar      1 9ZP1333     0.0000 
     13 C14        56.6170   -4.4290   -8.6960 C.ar      1 9ZP1333     0.0000 
     14 C15        57.8100   -5.1340   -8.6490 C.ar      1 9ZP1333     0.0000 
     15 N16        54.9240   -3.2830  -10.0510 N.pl3     1 9ZP1333     0.0000 
     16 C18        53.8340   -3.3210   -9.2080 C.ar      1 9ZP1333     0.0000 
     17 N19        53.8570   -4.0270   -8.0750 N.ar      1 9ZP1333     0.0000 
     18 C20        52.7850   -4.0620   -7.2730 C.ar      1 9ZP1333     0.0000 
     19 C21        51.6500   -3.2570   -7.6440 C.ar      1 9ZP1333     0.0000 
     20 C22        51.6860   -2.5450   -8.8050 C.ar      1 9ZP1333     0.0000 
     21 N23        52.7730   -2.6210   -9.5910 N.ar      1 9ZP1333     0.0000 
     22 N24        50.5450   -3.2020   -6.7700 N.pl3     1 9ZP1333     0.0000 
     23 C25        49.4720   -2.4090   -6.7110 C.2       1 9ZP1333     0.0000 
     24 N26        48.8080   -2.7410   -5.6370 N.2       1 9ZP1333     0.0000 
     25 N27        49.4150   -3.6960   -5.0200 N.4       1 9ZP1333     0.0000 
     26 C28        50.5000   -4.0010   -5.6370 C.3       1 9ZP1333     0.0000 
     27 C29        51.5610   -5.0670   -5.3390 C.3       1 9ZP1333     0.0000 
     28 C31        51.0030   -6.4720   -5.6820 C.3       1 9ZP1333     0.0000 
     29 C32        50.6420   -6.5830   -7.1870 C.3       1 9ZP1333     0.0000 
     30 N33        52.8130   -4.7740   -6.0830 N.3       1 9ZP1333     0.0000 
     31 C34        54.0890   -5.4670   -5.6990 C.3       1 9ZP1333     0.0000 
     32 C35        54.1430   -5.8800   -4.2000 C.3       1 9ZP1333     0.0000 
     33 C36        55.2430   -6.9710   -4.1740 C.3       1 9ZP1333     0.0000 
     34 C37        55.1250   -7.7000   -5.5450 C.3       1 9ZP1333     0.0000 
     35 C38        54.3050   -6.7850   -6.4750 C.3       1 9ZP1333     0.0000 
     36 H          59.4372   -7.2931   -8.1992 H         1 9ZP1333     0.0000 
     37 H          62.1996   -7.4938   -9.3900 H         1 9ZP1333     0.0000 
     38 H          60.9426   -8.7074   -7.2695 H         1 9ZP1333     0.0000 
     39 H          62.6439   -8.7007   -7.7648 H         1 9ZP1333     0.0000 
     40 H          62.1122   -9.5602   -9.6023 H         1 9ZP1333     0.0000 
     41 H          60.4109   -9.5669   -9.1070 H         1 9ZP1333     0.0000 
     42 H          58.5412   -5.0857  -11.9322 H         1 9ZP1333     0.0000 
     43 H          56.1125   -4.1981   -7.8336 H         1 9ZP1333     0.0000 
     44 H          58.1826   -5.4774   -7.7629 H         1 9ZP1333     0.0000 
     45 H          54.8662   -2.6050  -10.8893 H         1 9ZP1333     0.0000 
     46 H          50.8782   -1.9529   -9.0717 H         1 9ZP1333     0.0000 
     47 H          49.2448   -1.7211   -7.3542 H         1 9ZP1333     0.0000 
     48 H          51.2425   -3.0119   -4.9240 H         1 9ZP1333     0.0000 
     49 H          51.7577   -5.0458   -4.2683 H         1 9ZP1333     0.0000 
     50 H          50.1111   -6.6535   -5.0902 H         1 9ZP1333     0.0000 
     51 H          51.7529   -7.2196   -5.4422 H         1 9ZP1333     0.0000 
     52 H          54.9465   -4.8393   -5.8881 H         1 9ZP1333     0.0000 
     53 H          53.2200   -6.2997   -3.9185 H         1 9ZP1333     0.0000 
     54 H          54.4465   -5.0561   -3.6201 H         1 9ZP1333     0.0000 
     55 H          55.0440   -7.6589   -3.3928 H         1 9ZP1333     0.0000 
     56 H          56.1963   -6.5139   -4.1008 H         1 9ZP1333     0.0000 
     57 H          54.6106   -8.6260   -5.4049 H         1 9ZP1333     0.0000 
     58 H          56.1034   -7.8423   -5.9501 H         1 9ZP1333     0.0000 
     59 H          54.8609   -6.5871   -7.3629 H         1 9ZP1333     0.0000 
     60 H          53.3607   -7.2359   -6.6785 H         1 9ZP1333     0.0000 
     61 H          57.9538   -3.5610  -13.4734 H         1 9ZP1333     0.0000 
     62 H          57.2058   -4.9705  -13.6733 H         1 9ZP1333     0.0000 
     63 H          56.5832   -3.6322  -14.3118 H         1 9ZP1333     0.0000 
     64 H          51.4386   -6.4314   -7.7722 H         1 9ZP1333     0.0000 
     65 H          50.2777   -7.4857   -7.4159 H         1 9ZP1333     0.0000 
     66 H          49.9505   -5.9116   -7.4535 H         1 9ZP1333     0.0000 
@<TRIPOS>BOND
     1    2    1 1    
     2    5    1 am   
     3   36    1 1    
     4    3    2 1    
     5    4    2 1    
     6   37    2 1    
     7    4    3 1    
     8   38    3 1    
     9   39    3 1    
    10   40    4 1    
    11   41    4 1    
    12    6    5 2    
    13    7    5 1    
    14    8    7 ar   
    15   14    7 ar   
    16    9    8 ar   
    17   42    8 1    
    18   10    9 1    
    19   12    9 ar   
    20   11   10 1    
    21   61   11 1    
    22   62   11 1    
    23   63   11 1    
    24   13   12 ar   
    25   15   12 1    
    26   14   13 ar   
    27   43   13 1    
    28   44   14 1    
    29   16   15 1    
    30   45   15 1    
    31   17   16 ar   
    32   21   16 ar   
    33   18   17 ar   
    34   19   18 ar   
    35   30   18 1    
    36   20   19 ar   
    37   22   19 1    
    38   21   20 ar   
    39   46   20 1    
    40   23   22 1    
    41   26   22 1    
    42   24   23 2    
    43   47   23 1    
    44   25   24 1    
    45   26   25 1    
    46   27   26 1    
    47   48   26 1    
    48   28   27 1    
    49   30   27 1    
    50   49   27 1    
    51   29   28 1    
    52   50   28 1    
    53   51   28 1    
    54   64   29 1    
    55   65   29 1    
    56   66   29 1    
    57   31   30 1    
    58   32   31 1    
    59   35   31 1    
    60   52   31 1    
    61   33   32 1    
    62   53   32 1    
    63   54   32 1    
    64   34   33 1    
    65   55   33 1    
    66   56   33 1    
    67   35   34 1    
    68   57   34 1    
    69   58   34 1    
    70   59   35 1    
    71   60   35 1    
@<TRIPOS>SUBSTRUCTURE
     1 9ZP1333     1 GROUP   
@<TRIPOS>SET

