#    Name: 1mqb_ANP_2_INTS_M
#    Modification time : Mon Apr  7 14:44:43 2014

@<TRIPOS>MOLECULE
1mqb_ANP_2_INTS_M
   51     0    15     0     0
SMALL
NO_CHARGES


@<TRIPOS>ATOM
      1 N          48.3825   -2.6985   81.9415 N.am      2 SEC2        0.0000 
      2 N          47.6190   -2.0620   83.2000 N.am     12 SEL2        0.0000 
      3 N          49.1460   -3.3350   80.6830 N.am      7 SEP2        0.0000 
      4 NZ         49.4455   -2.4910   86.4425 N.4       4 LYC4        0.0000 
      5 NZ         49.2000   -1.7580   85.0580 N.4      14 LYL4        0.0000 
      6 NZ         49.6910   -3.2240   87.8270 N.4       9 LYP4        0.0000 
      7 N          49.4455   -2.4910   86.4425 N.am      2 SEC2        0.0000 
      8 N          49.2000   -1.7580   85.0580 N.am     12 SEL2        0.0000 
      9 N          49.6910   -3.2240   87.8270 N.am      7 SEP2        0.0000 
     10 OD1        47.1425    1.0200   85.5875 O.co2     3 ASC3        0.0000 
     11 OD1        47.0780   -0.1200   84.7750 O.co2    13 ASL3        0.0000 
     12 OD1        47.2070    2.1600   86.4000 O.co2     8 ASP3        0.0000 
     13 OD1        48.0865    0.7465   86.0720 O.co2     3 ASC3        0.0000 
     14 OD1        49.0950    1.6130   87.3690 O.co2     8 ASP3        0.0000 
     15 NZ         47.9415   -3.2940   87.8670 N.4       4 LYC4        0.0000 
     16 NZ         46.1920   -3.3640   87.9070 N.4      14 LYL4        0.0000 
     17 CA         40.6665   -3.0645   88.8535 C.3       5 GLC5        0.0000 
     18 CA         40.8550   -3.8570   86.9230 C.3      15 GLL5        0.0000 
     19 CA         40.4780   -2.2720   90.7840 C.3      10 GLP5        0.0000 
     20 CA         41.2400   -7.2390   87.7925 C.3       5 GLC5        0.0000 
     21 CA         41.5360   -5.2190   87.0410 C.3      15 GLL5        0.0000 
     22 CA         40.9440   -9.2590   88.5440 C.3      10 GLP5        0.0000 
     23 CA         42.9955   -6.7195   87.0965 C.3       5 GLC5        0.0000 
     24 CA         44.4550   -8.2200   87.1520 C.3      10 GLP5        0.0000 
     25 O          43.0655   -6.3280   94.2470 O.2       1 ALC1        0.0000 
     26 O          43.2460   -5.6450   92.9270 O.2      11 ALL1        0.0000 
     27 O          42.8850   -7.0110   95.5670 O.2       6 ALP1        0.0000 
     28 N          40.3640   -6.7030   93.3940 N.am      2 SEC2        0.0000 
     29 N          41.1940   -6.4170   92.1330 N.am     12 SEL2        0.0000 
     30 N          39.5340   -6.9890   94.6550 N.am      7 SEP2        0.0000 
     31 CA         40.5755   -7.8825   89.8590 C.3       5 GLC5        0.0000 
     32 CA         40.2070   -6.5060   91.1740 C.3      15 GLL5        0.0000 
     33 CA         42.0680   -7.5710   91.3990 C.3       5 GLC5        0.0000 
     34 CA         43.9290   -8.6360   91.6240 C.3      10 GLP5        0.0000 
     35 CA         39.6055   -5.5655   92.8695 C.3       5 GLC5        0.0000 
     36 CA         39.0040   -4.6250   94.5650 C.3      10 GLP5        0.0000 
     37 CA         38.5040   -5.2105   90.5840 C.3       5 GLC5        0.0000 
     38 CA         36.8010   -3.9150   89.9940 C.3      10 GLP5        0.0000 
     39 CA         40.3425   -4.3890   90.9790 C.3       5 GLC5        0.0000 
     40 CA         41.3355   -7.4780   89.0525 C.3       5 GLC5        0.0000 
     41 CA         41.7270   -5.6970   89.5610 C.3      15 GLL5        0.0000 
     42 CA         43.0910   -6.9585   88.3565 C.3       5 GLC5        0.0000 
     43 CA         41.1025   -3.9845   90.1725 C.3       5 GLC5        0.0000 
     44 CA         44.5695   -5.5360   85.2945 C.3       5 GLC5        0.0000 
     45 CA         42.6670   -4.0150   85.3710 C.3      15 GLL5        0.0000 
     46 CA         45.7240   -7.2210   85.2670 C.3      10 GLP5        0.0000 
     47 CA         42.4223   -4.2242   91.8270 C.3       5 GLC5        0.0000 
     48 CA         42.4510   -5.9470   91.8720 C.3      15 GLL5        0.0000 
     49 CA         42.2530   -2.6820   92.4460 C.3      10 GLP5        0.0000 
     50 CA         43.0441   -7.1839   91.0042 C.3       5 GLC5        0.0000 
     51 CA         42.7320   -5.5860   90.5440 C.3      15 GLL5        0.0000 
@<TRIPOS>BOND
@<TRIPOS>SUBSTRUCTURE
     1 ALC1       25 GROUP        1 X    ALC  0     ROOT ALC X 1
     2 SEC2        1 GROUP        1 X    SEC  0     **** SEC X 2
     3 ASC3       10 GROUP        1 X    ASC  0     **** ASC X 3
     4 LYC4        4 GROUP        1 X    LYC  0     **** LYC X 4
     5 GLC5       17 GROUP        1 X    GLC  0     **** GLC X 6
     6 ALP1       27 GROUP        1 Y    ALP  0     ROOT ALP Y 8
     7 SEP2        3 GROUP        1 Y    SEP  0     **** SEP Y 9
     8 ASP3       12 GROUP        1 Y    ASP  0     **** ASP Y 10
     9 LYP4        6 GROUP        1 Y    LYP  0     **** LYP Y 11
    10 GLP5       19 GROUP        1 Y    GLP  0     **** GLP Y 13
    11 ALL1       26 GROUP        1 Z    ALL  0     ROOT ALL Z 15
    12 SEL2        2 GROUP        1 Z    SEL  0     **** SEL Z 16
    13 ASL3       11 GROUP        1 Z    ASL  0     **** ASL Z 17
    14 LYL4        5 GROUP        1 Z    LYL  0     **** LYL Z 18
    15 GLL5       18 GROUP        1 Z    GLL  0     **** GLL Z 20
@<TRIPOS>SET

