#    Name: 1mqb_ANP_2_ligand
#    Modification time : Mon Apr  7 14:44:43 2014

@<TRIPOS>MOLECULE
1mqb_ANP_2_ligand
   43    45     1     0     0
SMALL
NO_CHARGES


@<TRIPOS>ATOM
      1 PG         45.5280    0.4580   84.6580 P.3       1 ANP1001     0.0000 
      2 O1G        44.6620   -0.4970   83.9010 O.co2     1 ANP1001     0.0000 
      3 O2G        44.9380    0.6760   86.0680 O.co2     1 ANP1001     0.0000 
      4 O3G        45.5050    1.8470   83.9680 O.co2     1 ANP1001     0.0000 
      5 PB         47.7110   -1.6450   84.6240 P.3       1 ANP1001     0.0000 
      6 O1B        47.6190   -2.0620   83.2000 O.co2     1 ANP1001     0.0000 
      7 O2B        49.2000   -1.7580   85.0580 O.co2     1 ANP1001     0.0000 
      8 N3B        47.0780   -0.1200   84.7750 N.4       1 ANP1001     0.0000 
      9 PA         45.9160   -2.3770   86.8360 P.3       1 ANP1001     0.0000 
     10 O1A        46.1920   -3.3640   87.9070 O.co2     1 ANP1001     0.0000 
     11 O2A        46.0400   -0.9850   87.5060 O.co2     1 ANP1001     0.0000 
     12 O3A        46.8560   -2.6910   85.5420 O.3       1 ANP1001     0.0000 
     13 O5'        44.4790   -2.5960   86.1250 O.3       1 ANP1001     0.0000 
     14 C5'        44.1630   -3.6870   85.2730 C.3       1 ANP1001     0.0000 
     15 C4'        42.6670   -4.0150   85.3710 C.3       1 ANP1001     0.0000 
     16 O4'        42.4130   -5.3190   85.9130 O.3       1 ANP1001     0.0000 
     17 C3'        41.9220   -3.0090   86.2670 C.3       1 ANP1001     0.0000 
     18 O3'        41.4090   -1.9150   85.5410 O.3       1 ANP1001     0.0000 
     19 C2'        40.8550   -3.8570   86.9230 C.3       1 ANP1001     0.0000 
     20 O2'        39.7040   -3.9010   86.1200 O.3       1 ANP1001     0.0000 
     21 C1'        41.5360   -5.2190   87.0410 C.3       1 ANP1001     0.0000 
     22 N9         42.2590   -5.2750   88.3500 N.pl3     1 ANP1001     0.0000 
     23 C8         43.5700   -4.9030   88.6010 C.2       1 ANP1001     0.0000 
     24 N7         43.8480   -5.1030   89.9190 N.2       1 ANP1001     0.0000 
     25 C5         42.7320   -5.5860   90.5440 C.ar      1 ANP1001     0.0000 
     26 C6         42.4510   -5.9470   91.8720 C.ar      1 ANP1001     0.0000 
     27 N6         43.2460   -5.6450   92.9270 N.pl3     1 ANP1001     0.0000 
     28 N1         41.1940   -6.4170   92.1330 N.ar      1 ANP1001     0.0000 
     29 C2         40.2070   -6.5060   91.1740 C.ar      1 ANP1001     0.0000 
     30 N3         40.4780   -6.1400   89.8790 N.ar      1 ANP1001     0.0000 
     31 C4         41.7270   -5.6970   89.5610 C.ar      1 ANP1001     0.0000 
     32 H          44.7171   -4.5952   85.5437 H         1 ANP1001     0.0000 
     33 H          44.3826   -3.4650   84.2205 H         1 ANP1001     0.0000 
     34 H          42.2299   -3.9297   84.3752 H         1 ANP1001     0.0000 
     35 H          42.6230   -2.7191   87.0424 H         1 ANP1001     0.0000 
     36 H          40.6957   -3.4826   87.9041 H         1 ANP1001     0.0000 
     37 H          40.7679   -5.9636   87.0110 H         1 ANP1001     0.0000 
     38 H          44.1770   -4.5593   87.9394 H         1 ANP1001     0.0000 
     39 H          44.0700   -5.1174   92.7202 H         1 ANP1001     0.0000 
     40 H          42.9383   -5.9764   93.8189 H         1 ANP1001     0.0000 
     41 H          39.2678   -6.8473   91.4321 H         1 ANP1001     0.0000 
     42 H          42.0296   -1.8060   84.7645 H         1 ANP1001     0.0000 
     43 H          39.8796   -3.2513   85.3804 H         1 ANP1001     0.0000 
@<TRIPOS>BOND
     1    2    1 ar   
     2    3    1 ar   
     3    4    1 ar   
     4    8    1 1    
     5    6    5 ar   
     6    7    5 ar   
     7    8    5 1    
     8   12    5 1    
     9   10    9 ar   
    10   11    9 ar   
    11   12    9 1    
    12   13    9 1    
    13   14   13 1    
    14   15   14 1    
    15   32   14 1    
    16   33   14 1    
    17   16   15 1    
    18   17   15 1    
    19   34   15 1    
    20   21   16 1    
    21   18   17 1    
    22   19   17 1    
    23   35   17 1    
    24   42   18 1    
    25   20   19 1    
    26   21   19 1    
    27   36   19 1    
    28   43   20 1    
    29   22   21 1    
    30   37   21 1    
    31   23   22 1    
    32   31   22 1    
    33   24   23 2    
    34   38   23 1    
    35   25   24 1    
    36   26   25 ar   
    37   31   25 ar   
    38   27   26 1    
    39   28   26 ar   
    40   39   27 1    
    41   40   27 1    
    42   29   28 ar   
    43   30   29 ar   
    44   41   29 1    
    45   31   30 ar   
@<TRIPOS>SUBSTRUCTURE
     1 ANP1001     1 GROUP   
@<TRIPOS>SET

