#    Name: 1yw8_A75_1_INTS_M
#    Modification time : Mon Apr  7 15:56:15 2014

@<TRIPOS>MOLECULE
1yw8_A75_1_INTS_M
   51     0     9     0     0
SMALL
NO_CHARGES


@<TRIPOS>ATOM
      1 CA         21.3310   35.1155   16.7255 C.3       3 GLC5        0.0000 
      2 CA         19.9950   33.6860   15.9840 C.3       9 GLL5        0.0000 
      3 CA         22.6670   36.5450   17.4670 C.3       6 GLP5        0.0000 
      4 CA         21.4850   31.9130   13.8185 C.3       3 GLC5        0.0000 
      5 CA         20.5540   32.3390   15.4920 C.3       9 GLL5        0.0000 
      6 CA         22.4160   31.4870   12.1450 C.3       6 GLP5        0.0000 
      7 CA         13.8050   30.9290   15.7300 C.3       3 GLC5        0.0000 
      8 CA         15.5450   31.5600   16.8640 C.3       9 GLL5        0.0000 
      9 CA         12.0650   30.2980   14.5960 C.3       6 GLP5        0.0000 
     10 Zn         17.9680   26.6035   16.3850 Zn        2 ZIC7        0.0000 
     11 Zn         17.8100   27.7650   16.1510 Zn        8 ZIL7        0.0000 
     12 Zn         18.1260   25.4420   16.6190 Zn        5 ZIP7        0.0000 
     13 N          19.4040   29.8515   18.5890 N.am      1 SEC2        0.0000 
     14 N          19.0090   28.5400   17.8610 N.am      7 SEL2        0.0000 
     15 N          19.7990   31.1630   19.3170 N.am      4 SEP2        0.0000 
     16 Zn         18.3540   27.4175   16.8660 Zn        2 ZIC7        0.0000 
     17 Zn         15.3100   29.1880   17.4440 Zn        8 ZIL7        0.0000 
     18 Zn         21.3980   25.6470   16.2880 Zn        5 ZIP7        0.0000 
     19 Zn         16.7180   27.3150   17.0315 Zn        2 ZIC7        0.0000 
     20 CA         19.4455   30.3710   20.6435 C.3       3 GLC5        0.0000 
     21 CA         17.7760   29.3800   21.6450 C.3       9 GLL5        0.0000 
     22 CA         21.1150   31.3620   19.6420 C.3       6 GLP5        0.0000 
     23 CA         17.8175   24.7600   20.5445 C.3       3 GLC5        0.0000 
     24 CA         17.6830   26.9370   21.0250 C.3       9 GLL5        0.0000 
     25 CA         17.9520   22.5830   20.0640 C.3       6 GLP5        0.0000 
     26 CA         15.7985   26.4495   18.3845 C.3       3 GLC5        0.0000 
     27 CA         16.5640   27.1980   20.1400 C.3       9 GLL5        0.0000 
     28 CA         15.0330   25.7010   16.6290 C.3       6 GLP5        0.0000 
     29 CA         20.6947   32.1872   17.6900 C.3       3 GLC5        0.0000 
     30 CA         18.5790   35.1453   17.0232 C.3       3 GLC5        0.0000 
     31 CA         17.9230   36.5420   18.1630 C.3       6 GLP5        0.0000 
     32 CA         16.4262   32.0823   14.6195 C.3       3 GLC5        0.0000 
     33 CA         16.3040   32.6770   16.4650 C.3       9 GLL5        0.0000 
     34 CA         15.8520   31.5420   12.8990 C.3       6 GLP5        0.0000 
     35 CA         20.1090   31.2782   17.9452 C.3       3 GLC5        0.0000 
     36 CA         18.3490   31.2780   16.3780 C.3       9 GLL5        0.0000 
     37 CA         17.5183   30.0392   14.7408 C.3       3 GLC5        0.0000 
     38 CA         17.0860   29.3600   12.8990 C.3       6 GLP5        0.0000 
     39 CA         20.2078   33.9919   14.0504 C.3       3 GLC5        0.0000 
     40 CA         20.5210   34.9400   12.4130 C.3       6 GLP5        0.0000 
     41 CA         16.2520   34.0031   14.8275 C.3       3 GLC5        0.0000 
     42 CA         18.4750   33.8110   15.7830 C.3       9 GLL5        0.0000 
     43 CA         15.3090   35.0730   13.4230 C.3       6 GLP5        0.0000 
     44 CA         15.8533   31.2385   14.9217 C.3       3 GLC5        0.0000 
     45 CA         19.8938   28.7860   22.2662 C.3       3 GLC5        0.0000 
     46 CA         21.7540   28.8690   22.8210 C.3       6 GLP5        0.0000 
     47 CA         18.0871   30.2161   22.8815 C.3       3 GLC5        0.0000 
     48 CA         18.2910   28.0260   21.7780 C.3       9 GLL5        0.0000 
     49 CA         18.4210   31.6620   24.2730 C.3       6 GLP5        0.0000 
     50 CA         17.6036   27.9965   23.2151 C.3       3 GLC5        0.0000 
     51 CA         17.3490   28.1730   25.0620 C.3       6 GLP5        0.0000 
@<TRIPOS>BOND
@<TRIPOS>SUBSTRUCTURE
     1 SEC2       13 GROUP        1 X    SEC  0     ROOT SEC X 2
     2 ZIC7       10 GROUP        1 X    ZIC  0     **** ZIC X 5
     3 GLC5        1 GROUP        1 X    GLC  0     **** GLC X 6
     4 SEP2       15 GROUP        1 Y    SEP  0     ROOT SEP Y 9
     5 ZIP7       12 GROUP        1 Y    ZIP  0     **** ZIP Y 12
     6 GLP5        3 GROUP        1 Y    GLP  0     **** GLP Y 13
     7 SEL2       14 GROUP        1 Z    SEL  0     ROOT SEL Z 16
     8 ZIL7       11 GROUP        1 Z    ZIL  0     **** ZIL Z 19
     9 GLL5        2 GROUP        1 Z    GLL  0     **** GLL Z 20
@<TRIPOS>SET

