#    Name: 1yw8_A75_1_ligand
#    Modification time : Mon Apr  7 15:56:15 2014

@<TRIPOS>MOLECULE
1yw8_A75_1_ligand
   39    41     1     0     0
SMALL
NO_CHARGES


@<TRIPOS>ATOM
      1 C1         19.9950   33.6860   15.9840 C.3       1 A75104      0.0000 
      2 C2         18.4750   33.8110   15.7830 C.3       1 A75104      0.0000 
      3 C3         17.6970   32.5680   16.2150 C.ar      1 A75104      0.0000 
      4 C4         18.3490   31.2780   16.3780 C.ar      1 A75104      0.0000 
      5 C5         19.8570   31.1110   16.1190 C.3       1 A75104      0.0000 
      6 C6         20.5540   32.3390   15.4920 C.3       1 A75104      0.0000 
      7 C7         16.3040   32.6770   16.4650 C.ar      1 A75104      0.0000 
      8 C8         15.5450   31.5600   16.8640 C.ar      1 A75104      0.0000 
      9 C9         16.1640   30.3100   17.0250 C.ar      1 A75104      0.0000 
     10 C10        17.5520   30.1590   16.7870 C.ar      1 A75104      0.0000 
     11 C11        18.2050   28.7390   16.9860 C.2       1 A75104      0.0000 
     12 O12        17.8100   27.7650   16.1510 O.co2     1 A75104      0.0000 
     13 O13        19.0090   28.5400   17.8610 O.co2     1 A75104      0.0000 
     14 N14        15.3100   29.1880   17.4440 N.pl3     1 A75104      0.0000 
     15 S15        14.6710   28.8650   18.9180 S.o2      1 A75104      0.0000 
     16 C16        16.0490   28.5550   20.0060 C.ar      1 A75104      0.0000 
     17 O17        13.9090   27.6410   18.7820 O.2       1 A75104      0.0000 
     18 O18        13.9740   30.0600   19.3630 O.2       1 A75104      0.0000 
     19 C19        16.6550   29.6490   20.7590 C.ar      1 A75104      0.0000 
     20 C20        17.7760   29.3800   21.6450 C.ar      1 A75104      0.0000 
     21 C21        18.2910   28.0260   21.7780 C.ar      1 A75104      0.0000 
     22 C22        17.6830   26.9370   21.0250 C.ar      1 A75104      0.0000 
     23 C23        16.5640   27.1980   20.1400 C.ar      1 A75104      0.0000 
     24 H          20.2240   33.7984   17.0489 H         1 A75104      0.0000 
     25 H          20.4938   34.4970   15.4430 H         1 A75104      0.0000 
     26 H          18.2745   34.0100   14.7205 H         1 A75104      0.0000 
     27 H          18.1135   34.6783   16.3537 H         1 A75104      0.0000 
     28 H          20.0099   30.2424   15.4543 H         1 A75104      0.0000 
     29 H          20.3577   30.8719   17.0738 H         1 A75104      0.0000 
     30 H          21.6265   32.2919   15.7231 H         1 A75104      0.0000 
     31 H          20.4475   32.2858   14.4003 H         1 A75104      0.0000 
     32 H          15.8449   33.5910   16.3512 H         1 A75104      0.0000 
     33 H          14.5411   31.6612   17.0364 H         1 A75104      0.0000 
     34 H          15.0386   28.4585   16.7392 H         1 A75104      0.0000 
     35 H          16.2973   30.5824   20.6637 H         1 A75104      0.0000 
     36 H          18.1967   30.1317   22.1674 H         1 A75104      0.0000 
     37 H          19.0682   27.8403   22.3906 H         1 A75104      0.0000 
     38 H          18.0434   25.9999   21.1214 H         1 A75104      0.0000 
     39 H          16.1429   26.4480   19.6196 H         1 A75104      0.0000 
@<TRIPOS>BOND
     1    2    1 1    
     2    6    1 1    
     3   24    1 1    
     4   25    1 1    
     5    3    2 1    
     6   26    2 1    
     7   27    2 1    
     8    4    3 ar   
     9    7    3 ar   
    10    5    4 1    
    11   10    4 ar   
    12    6    5 1    
    13   28    5 1    
    14   29    5 1    
    15   30    6 1    
    16   31    6 1    
    17    8    7 ar   
    18   32    7 1    
    19    9    8 ar   
    20   33    8 1    
    21   10    9 ar   
    22   14    9 1    
    23   11   10 1    
    24   12   11 ar   
    25   13   11 ar   
    26   15   14 1    
    27   34   14 1    
    28   16   15 1    
    29   17   15 2    
    30   18   15 2    
    31   19   16 ar   
    32   23   16 ar   
    33   20   19 ar   
    34   35   19 1    
    35   21   20 ar   
    36   36   20 1    
    37   22   21 ar   
    38   37   21 1    
    39   23   22 ar   
    40   38   22 1    
    41   39   23 1    
@<TRIPOS>SUBSTRUCTURE
     1 A75104      1 GROUP   
@<TRIPOS>SET

