#    Name: 3ioe_A7D_2_INTS_M
#    Modification time : Tue Mar 25 17:01:10 2014

@<TRIPOS>MOLECULE
3ioe_A7D_2_INTS_M
   76     0     9     0     0
SMALL
NO_CHARGES


@<TRIPOS>ATOM
      1 N          -1.6065   -8.1300   43.6785 N.am      2 SEC2        0.0000 
      2 N          -1.2350   -8.5180   42.2800 N.am      8 SEL2        0.0000 
      3 N          -1.9780   -7.7420   45.0770 N.am      5 SEP2        0.0000 
      4 CA         -2.7845   -9.1300   41.3255 C.3       3 GLC5        0.0000 
      5 CA         -1.3700   -7.6360   41.2720 C.3       9 GLL5        0.0000 
      6 CA         -4.1990  -10.6240   41.3790 C.3       6 GLP5        0.0000 
      7 CA         -0.4365   -6.4050   39.9725 C.3       3 GLC5        0.0000 
      8 CA          0.4970   -5.1740   38.6730 C.3       6 GLP5        0.0000 
      9 CA         -0.8035   -6.8715   42.9865 C.3       3 GLC5        0.0000 
     10 CA         -0.2370   -6.1070   44.7010 C.3       6 GLP5        0.0000 
     11 CA         -3.0370   -7.7775   42.7105 C.3       3 GLC5        0.0000 
     12 CA         -4.7040   -7.9190   44.1490 C.3       6 GLP5        0.0000 
     13 CA          0.0070   -7.1735   39.2175 C.3       3 GLC5        0.0000 
     14 CA         -0.4830   -9.1730   39.7620 C.3       9 GLL5        0.0000 
     15 CA          0.3075   -8.8260   43.7525 C.3       3 GLC5        0.0000 
     16 CA         -0.7080   -9.7370   42.0660 C.3       9 GLL5        0.0000 
     17 CA          1.3230   -7.9150   45.4390 C.3       6 GLP5        0.0000 
     18 CA         -2.3660   -9.4035   43.4845 C.3       3 GLC5        0.0000 
     19 CA         -4.0240   -9.0700   44.9030 C.3       6 GLP5        0.0000 
     20 O          -0.9040  -10.3975   44.5890 O.2       1 ALC1        0.0000 
     21 O          -0.5490  -10.5920   43.0670 O.2       7 ALL1        0.0000 
     22 O          -1.2590  -10.2030   46.1110 O.2       4 ALP1        0.0000 
     23 O           0.1845  -11.8305   43.1200 O.2       1 ALC1        0.0000 
     24 O           0.9180  -13.0690   43.1730 O.2       4 ALP1        0.0000 
     25 O           4.9595  -11.1525   28.2960 O.2       1 ALC1        0.0000 
     26 O           3.6450  -10.7270   28.3870 O.2       7 ALL1        0.0000 
     27 O           6.2740  -11.5780   28.2050 O.2       4 ALP1        0.0000 
     28 N           5.5025  -11.0625   30.6560 N.am      2 SEC2        0.0000 
     29 N           4.6640   -9.9470   30.9340 N.am      8 SEL2        0.0000 
     30 N           6.3410  -12.1780   30.3780 N.am      5 SEP2        0.0000 
     31 O           5.4480   -9.0315   31.8850 O.2       1 ALC1        0.0000 
     32 O           4.6640   -9.9470   30.9340 O.2       7 ALL1        0.0000 
     33 O           6.2320   -8.1160   32.8360 O.2       4 ALP1        0.0000 
     34 N           0.5770   -6.1555   36.2780 N.am      2 SEC2        0.0000 
     35 N           0.7090   -7.2370   35.3260 N.am      8 SEL2        0.0000 
     36 N           0.4450   -5.0740   37.2300 N.am      5 SEP2        0.0000 
     37 O           0.0145   -7.0415   34.1880 O.2       1 ALC1        0.0000 
     38 O           0.7090   -7.2370   35.3260 O.2       7 ALL1        0.0000 
     39 O          -0.6800   -6.8460   33.0500 O.2       4 ALP1        0.0000 
     40 N           1.3220   -6.4630   37.3945 N.am      2 SEC2        0.0000 
     41 N           2.1990   -7.8520   37.5590 N.am      8 SEL2        0.0000 
     42 O           3.2565   -8.5955   37.8650 O.2       1 ALC1        0.0000 
     43 O           2.1990   -7.8520   37.5590 O.2       7 ALL1        0.0000 
     44 O           4.3140   -9.3390   38.1710 O.2       4 ALP1        0.0000 
     45 CA          4.1795   -9.4455   27.1025 C.3       3 GLC5        0.0000 
     46 CA          3.6110   -9.3490   28.8450 C.3       9 GLL5        0.0000 
     47 CA          4.7480   -9.5420   25.3600 C.3       6 GLP5        0.0000 
     48 CA          0.6530   -8.7925   29.8125 C.3       3 GLC5        0.0000 
     49 CA          2.2270  -10.0500   30.7900 C.3       9 GLL5        0.0000 
     50 CA         -0.9210   -7.5350   28.8350 C.3       6 GLP5        0.0000 
     51 CA          2.1455  -12.0440   30.5065 C.3       3 GLC5        0.0000 
     52 CA          2.0640  -14.0380   30.2230 C.3       6 GLP5        0.0000 
     53 CA         -0.4075  -11.5115   31.9610 C.3       3 GLC5        0.0000 
     54 CA          1.0510  -11.3860   32.9720 C.3       9 GLL5        0.0000 
     55 CA         -1.8660  -11.6370   30.9500 C.3       6 GLP5        0.0000 
     56 CA          1.5575  -12.7120   31.5975 C.3       3 GLC5        0.0000 
     57 CA         -1.3625  -10.5885   36.7280 C.3       3 GLC5        0.0000 
     58 CA         -0.0300   -9.0700   37.3720 C.3       9 GLL5        0.0000 
     59 CA         -2.6950  -12.1070   36.0840 C.3       6 GLP5        0.0000 
     60 CA         -1.5025   -8.1020   36.5265 C.3       3 GLC5        0.0000 
     61 CA         -2.9750   -7.1340   35.6810 C.3       6 GLP5        0.0000 
     62 CA          1.4160   -9.0615   41.7037 C.3       3 GLC5        0.0000 
     63 CA         -0.3200  -10.1150   40.7770 C.3       9 GLL5        0.0000 
     64 CA          3.3460   -8.1970   41.9860 C.3       6 GLP5        0.0000 
     65 CA         -2.3769  -10.1573   41.2734 C.3       3 GLC5        0.0000 
     66 CA          5.4345   -8.2442   29.6268 C.3       3 GLC5        0.0000 
     67 CA          3.5050   -9.3060   30.3640 C.3       9 GLL5        0.0000 
     68 CA          7.3110   -7.1610   29.6490 C.3       6 GLP5        0.0000 
     69 CA          3.7205   -7.6087   28.5707 C.3       3 GLC5        0.0000 
     70 CA          3.8830   -5.8900   27.5370 C.3       6 GLP5        0.0000 
     71 CA          0.1415  -10.8308   31.2535 C.3       3 GLC5        0.0000 
     72 CA         -1.0897  -11.2470   35.5117 C.3       3 GLC5        0.0000 
     73 CA          0.8670  -11.0630   34.7680 C.3       9 GLL5        0.0000 
     74 CA         -1.1378   -8.1448   35.4838 C.3       3 GLC5        0.0000 
     75 CA          0.1640   -9.7110   35.1110 C.3       9 GLL5        0.0000 
     76 CA          0.6050   -7.0838   37.9112 C.3       3 GLC5        0.0000 
@<TRIPOS>BOND
@<TRIPOS>SUBSTRUCTURE
     1 ALC1       20 GROUP        1 X    ALC  0     ROOT ALC X 1
     2 SEC2        1 GROUP        1 X    SEC  0     **** SEC X 2
     3 GLC5        4 GROUP        1 X    GLC  0     **** GLC X 6
     4 ALP1       22 GROUP        1 Y    ALP  0     ROOT ALP Y 8
     5 SEP2        3 GROUP        1 Y    SEP  0     **** SEP Y 9
     6 GLP5        6 GROUP        1 Y    GLP  0     **** GLP Y 13
     7 ALL1       21 GROUP        1 Z    ALL  0     ROOT ALL Z 15
     8 SEL2        2 GROUP        1 Z    SEL  0     **** SEL Z 16
     9 GLL5        5 GROUP        1 Z    GLL  0     **** GLL Z 20
@<TRIPOS>SET

