#    Name: 3ioe_A7D_2_ligand
#    Modification time : Tue Mar 25 17:01:10 2014

@<TRIPOS>MOLECULE
3ioe_A7D_2_ligand
   46    48     1     0     0
SMALL
NO_CHARGES


@<TRIPOS>ATOM
      1 N1         -1.2350   -8.5180   42.2800 N.ar      1 A7D902      0.0000 
      2 C2         -1.3700   -7.6360   41.2720 C.ar      1 A7D902      0.0000 
      3 N3         -0.9930   -7.9580   40.0300 N.ar      1 A7D902      0.0000 
      4 C4         -0.4830   -9.1730   39.7620 C.ar      1 A7D902      0.0000 
      5 C5         -0.3200  -10.1150   40.7770 C.ar      1 A7D902      0.0000 
      6 C6         -0.7080   -9.7370   42.0660 C.ar      1 A7D902      0.0000 
      7 N6         -0.5490  -10.5920   43.0670 N.pl3     1 A7D902      0.0000 
      8 N7          0.2220  -11.2350   40.2550 N.2       1 A7D902      0.0000 
      9 C8          0.4000  -10.9790   38.9510 C.2       1 A7D902      0.0000 
     10 N9         -0.0460   -9.7360   38.6530 N.pl3     1 A7D902      0.0000 
     11 OAB         3.6450  -10.7270   28.3870 O.3       1 A7D902      0.0000 
     12 OAC         4.6640   -9.9470   30.9340 O.3       1 A7D902      0.0000 
     13 OAD         0.7090   -7.2370   35.3260 O.3       1 A7D902      0.0000 
     14 OAE         2.1990   -7.8520   37.5590 O.3       1 A7D902      0.0000 
     15 CAH         3.6110   -9.3490   28.8450 C.3       1 A7D902      0.0000 
     16 CAI         2.0710   -9.9990   32.3240 C.3       1 A7D902      0.0000 
     17 CAJ         2.2270  -10.0500   30.7900 C.3       1 A7D902      0.0000 
     18 CAK         0.8670  -11.0630   34.7680 C.3       1 A7D902      0.0000 
     19 OAO        -0.6240   -9.9410   36.3170 O.3       1 A7D902      0.0000 
     20 SAP         1.0510  -11.3860   32.9720 S.3       1 A7D902      0.0000 
     21 CAT         3.5050   -9.3060   30.3640 C.3       1 A7D902      0.0000 
     22 CAU         1.2350   -8.6000   35.4620 C.3       1 A7D902      0.0000 
     23 CAV         1.4560   -8.9170   36.9270 C.3       1 A7D902      0.0000 
     24 CAW         0.1640   -9.7110   35.1110 C.3       1 A7D902      0.0000 
     25 CAX        -0.0300   -9.0700   37.3720 C.3       1 A7D902      0.0000 
     26 H          -1.7751   -6.6884   41.4666 H         1 A7D902      0.0000 
     27 H          -0.1835  -11.4906   42.8242 H         1 A7D902      0.0000 
     28 H          -0.8090  -10.2608   43.9740 H         1 A7D902      0.0000 
     29 H           0.7943  -11.5961   38.3027 H         1 A7D902      0.0000 
     30 H           2.7512   -8.8160   28.4264 H         1 A7D902      0.0000 
     31 H           4.5189   -8.8134   28.5497 H         1 A7D902      0.0000 
     32 H           1.5302   -9.1457   32.6702 H         1 A7D902      0.0000 
     33 H           2.9896  -10.1343   32.8515 H         1 A7D902      0.0000 
     34 H           1.3680   -9.5784   30.3297 H         1 A7D902      0.0000 
     35 H           2.2922  -11.0834   30.4737 H         1 A7D902      0.0000 
     36 H           1.8832  -11.1050   35.1137 H         1 A7D902      0.0000 
     37 H           0.3095  -11.9195   35.0990 H         1 A7D902      0.0000 
     38 H           3.4230   -8.2873   30.6730 H         1 A7D902      0.0000 
     39 H           2.0973   -8.8007   34.9300 H         1 A7D902      0.0000 
     40 H           1.9071   -9.8707   36.9815 H         1 A7D902      0.0000 
     41 H          -0.4154   -9.3948   34.3092 H         1 A7D902      0.0000 
     42 H          -0.4679   -8.1286   37.3731 H         1 A7D902      0.0000 
     43 H           4.6148  -10.9705   28.3712 H         1 A7D902      0.0000 
     44 H           5.3093   -9.2040   31.1116 H         1 A7D902      0.0000 
     45 H          -0.1337   -7.3365   34.7968 H         1 A7D902      0.0000 
     46 H           3.0703   -8.2657   37.8230 H         1 A7D902      0.0000 
@<TRIPOS>BOND
     1    2    1 ar   
     2    6    1 ar   
     3    3    2 ar   
     4   26    2 1    
     5    4    3 ar   
     6    5    4 ar   
     7   10    4 1    
     8    6    5 ar   
     9    8    5 1    
    10    7    6 1    
    11   27    7 1    
    12   28    7 1    
    13    9    8 2    
    14   10    9 1    
    15   29    9 1    
    16   25   10 1    
    17   15   11 1    
    18   43   11 1    
    19   21   12 1    
    20   44   12 1    
    21   22   13 1    
    22   45   13 1    
    23   23   14 1    
    24   46   14 1    
    25   21   15 1    
    26   30   15 1    
    27   31   15 1    
    28   17   16 1    
    29   20   16 1    
    30   32   16 1    
    31   33   16 1    
    32   21   17 1    
    33   34   17 1    
    34   35   17 1    
    35   20   18 1    
    36   24   18 1    
    37   36   18 1    
    38   37   18 1    
    39   24   19 1    
    40   25   19 1    
    41   38   21 1    
    42   23   22 1    
    43   24   22 1    
    44   39   22 1    
    45   25   23 1    
    46   40   23 1    
    47   41   24 1    
    48   42   25 1    
@<TRIPOS>SUBSTRUCTURE
     1 A7D902      1 GROUP   
@<TRIPOS>SET

