#    Name: 1mui_AB1_1_INTS_M
#    Modification time : Tue Mar 25 12:03:13 2014

@<TRIPOS>MOLECULE
1mui_AB1_1_INTS_M
   92     0     9     0     0
SMALL
NO_CHARGES


@<TRIPOS>ATOM
      1 CA         -9.7830   12.3080   31.9960 C.3       3 GLC5        0.0000 
      2 CA        -10.6950   13.4560   33.6930 C.3       9 GLL5        0.0000 
      3 CA         -8.8710   11.1600   30.2990 C.3       6 GLP5        0.0000 
      4 O         -14.7050   14.7655   35.0270 O.2       1 ALC1        0.0000 
      5 O         -13.3030   14.1780   34.4780 O.2       7 ALL1        0.0000 
      6 O         -16.1070   15.3530   35.5760 O.2       4 ALP1        0.0000 
      7 CA         -1.8355   17.2570   27.1270 C.3       3 GLC5        0.0000 
      8 CA         -3.5830   17.4290   26.7450 C.3       9 GLL5        0.0000 
      9 CA         -0.0880   17.0850   27.5090 C.3       6 GLP5        0.0000 
     10 CA         -2.6800   16.3375   28.5180 C.3       3 GLC5        0.0000 
     11 CA         -4.2660   16.6810   27.7290 C.3       9 GLL5        0.0000 
     12 CA         -1.0940   15.9940   29.3070 C.3       6 GLP5        0.0000 
     13 CA         -4.6920   14.8505   26.5065 C.3       3 GLC5        0.0000 
     14 CA         -5.1180   13.0200   25.2840 C.3       6 GLP5        0.0000 
     15 N         -13.3150   17.3295   34.1375 N.am      2 SEC2        0.0000 
     16 N         -13.1160   16.1860   33.5160 N.am      8 SEL2        0.0000 
     17 N         -13.5140   18.4730   34.7590 N.am      5 SEP2        0.0000 
     18 CA        -11.4820   17.5870   32.6745 C.3       3 GLC5        0.0000 
     19 CA        -10.5260   15.8120   32.5870 C.3       9 GLL5        0.0000 
     20 CA        -12.4380   19.3620   32.7620 C.3       6 GLP5        0.0000 
     21 O         -12.4720   16.9520   30.4880 O.2       1 ALC1        0.0000 
     22 O         -11.2180   15.9240   30.2550 O.2       7 ALL1        0.0000 
     23 O         -13.7260   17.9800   30.7210 O.2       4 ALP1        0.0000 
     24 CA         -6.6890   17.8365   33.5605 C.3       3 GLC5        0.0000 
     25 CA         -8.3090   17.1860   32.5040 C.3       9 GLL5        0.0000 
     26 CA         -5.0690   18.4870   34.6170 C.3       6 GLP5        0.0000 
     27 CA         -7.0640   18.2410   31.8310 C.3       3 GLC5        0.0000 
     28 CA         -5.8190   19.2960   31.1580 C.3       6 GLP5        0.0000 
     29 CA         -9.9600   17.2175   36.7165 C.3       3 GLC5        0.0000 
     30 CA         -9.3490   16.6480   34.7180 C.3       9 GLL5        0.0000 
     31 CA        -10.5710   17.7870   38.7150 C.3       6 GLP5        0.0000 
     32 CA        -13.0800    9.6385   28.4870 C.3       3 GLC5        0.0000 
     33 CA        -12.7040   11.1390   29.1350 C.3       9 GLL5        0.0000 
     34 CA        -13.4560    8.1380   27.8390 C.3       6 GLP5        0.0000 
     35 CA        -14.1315    9.7725   29.2675 C.3       3 GLC5        0.0000 
     36 CA        -13.3650   11.1000   30.3860 C.3       9 GLL5        0.0000 
     37 CA        -14.8980    8.4450   28.1490 C.3       6 GLP5        0.0000 
     38 CA        -15.6625   12.0770   29.8390 C.3       3 GLC5        0.0000 
     39 CA        -13.7730   12.3060   31.0020 C.3       9 GLL5        0.0000 
     40 CA        -17.5520   11.8480   28.6760 C.3       6 GLP5        0.0000 
     41 CA        -12.8685   10.5850   27.5000 C.3       3 GLC5        0.0000 
     42 CA        -12.4510   12.3790   28.5010 C.3       9 GLL5        0.0000 
     43 CA        -13.2860    8.7910   26.4990 C.3       6 GLP5        0.0000 
     44 CA        -13.1725   14.8080   26.4825 C.3       3 GLC5        0.0000 
     45 CA        -12.5910   14.9100   28.4420 C.3       9 GLL5        0.0000 
     46 CA        -13.7540   14.7060   24.5230 C.3       6 GLP5        0.0000 
     47 CA         -6.7585   14.4135   24.7425 C.3       3 GLC5        0.0000 
     48 CA         -8.3990   15.8070   24.2010 C.3       9 GLL5        0.0000 
     49 N         -11.6260   19.7865   27.1625 N.am      2 SEC2        0.0000 
     50 N         -10.4330   19.0340   27.2710 N.am      8 SEL2        0.0000 
     51 N         -12.8190   20.5390   27.0540 N.am      5 SEP2        0.0000 
     52 O         -11.3920   19.0070   26.4265 O.2       1 ALC1        0.0000 
     53 O         -10.4330   19.0340   27.2710 O.2       7 ALL1        0.0000 
     54 O         -12.3510   18.9800   25.5820 O.2       4 ALP1        0.0000 
     55 CA        -11.8360   14.6600   21.1615 C.3       3 GLC5        0.0000 
     56 CA        -10.3740   15.9150   21.3830 C.3       9 GLL5        0.0000 
     57 CA        -13.2980   13.4050   20.9400 C.3       6 GLP5        0.0000 
     58 CA         -9.4512   12.5800   35.4453 C.3       3 GLC5        0.0000 
     59 CA        -11.2960   12.7740   34.9400 C.3       9 GLL5        0.0000 
     60 CA         -7.9070   12.0450   36.5740 C.3       6 GLP5        0.0000 
     61 CA         -4.5158   19.7353   27.7932 C.3       3 GLC5        0.0000 
     62 CA         -6.2280   18.1490   27.5220 C.3       9 GLL5        0.0000 
     63 CA         -3.1510   20.9500   28.5570 C.3       6 GLP5        0.0000 
     64 CA         -3.6171   19.1408   27.8225 C.3       3 GLC5        0.0000 
     65 CA         -4.9428   15.7020   29.4132 C.3       3 GLC5        0.0000 
     66 CA         -4.9630   14.5450   30.9040 C.3       6 GLP5        0.0000 
     67 CA         -7.7965   15.1148   34.8425 C.3       3 GLC5        0.0000 
     68 CA         -9.1410   16.1410   33.2720 C.3       9 GLL5        0.0000 
     69 CA         -6.3480   13.8350   35.6900 C.3       6 GLP5        0.0000 
     70 CA        -10.0475   18.3174   33.3640 C.3       3 GLC5        0.0000 
     71 CA        -11.0580   19.9790   32.9250 C.3       6 GLP5        0.0000 
     72 CA        -12.0147   11.7570   26.9465 C.3       3 GLC5        0.0000 
     73 CA        -11.4520   11.7550   25.0750 C.3       6 GLP5        0.0000 
     74 CA        -10.8069   11.4546   29.7149 C.3       3 GLC5        0.0000 
     75 CA        -14.5670   13.6376   27.7993 C.3       3 GLC5        0.0000 
     76 CA        -16.5120   13.3280   26.9750 C.3       6 GLP5        0.0000 
     77 CA         -9.0275   19.0258   22.4668 C.3       3 GLC5        0.0000 
     78 CA         -8.2970   17.1830   22.2520 C.3       9 GLL5        0.0000 
     79 CA        -10.3760   20.5260   22.8230 C.3       6 GLP5        0.0000 
     80 CA         -6.2946   18.6832   29.5128 C.3       3 GLC5        0.0000 
     81 CA         -7.6370   18.5480   27.9160 C.3       9 GLL5        0.0000 
     82 CA        -10.6477   17.9312   22.0420 C.3       3 GLC5        0.0000 
     83 CA         -9.0670   16.6400   21.1650 C.3       9 GLL5        0.0000 
     84 CA        -11.5750   19.5850   22.8100 C.3       6 GLP5        0.0000 
     85 CA         -9.0988   17.6103   18.2895 C.3       3 GLC5        0.0000 
     86 CA         -8.5870   16.7880   19.8360 C.3       9 GLL5        0.0000 
     87 CA        -10.2170   18.0970   16.8740 C.3       6 GLP5        0.0000 
     88 CA         -7.2460   19.6655   19.5805 C.3       3 GLC5        0.0000 
     89 CA         -7.3740   17.4590   19.5740 C.3       9 GLL5        0.0000 
     90 CA         -7.4980   21.6030   19.0580 C.3       6 GLP5        0.0000 
     91 CA         -9.2007   14.4352   20.3794 C.3       3 GLC5        0.0000 
     92 CA         -8.8010   12.5560   19.8170 C.3       6 GLP5        0.0000 
@<TRIPOS>BOND
@<TRIPOS>SUBSTRUCTURE
     1 ALC1        4 GROUP        1 X    ALC  0     ROOT ALC X 1
     2 SEC2       15 GROUP        1 X    SEC  0     **** SEC X 2
     3 GLC5        1 GROUP        1 X    GLC  0     **** GLC X 6
     4 ALP1        6 GROUP        1 Y    ALP  0     ROOT ALP Y 8
     5 SEP2       17 GROUP        1 Y    SEP  0     **** SEP Y 9
     6 GLP5        3 GROUP        1 Y    GLP  0     **** GLP Y 13
     7 ALL1        5 GROUP        1 Z    ALL  0     ROOT ALL Z 15
     8 SEL2       16 GROUP        1 Z    SEL  0     **** SEL Z 16
     9 GLL5        2 GROUP        1 Z    GLL  0     **** GLL Z 20
@<TRIPOS>SET

