#    Name: 1mui_AB1_1_ligand
#    Modification time : Tue Mar 25 12:03:13 2014

@<TRIPOS>MOLECULE
1mui_AB1_1_ligand
   94    97     1     0     0
SMALL
NO_CHARGES


@<TRIPOS>ATOM
      1 C1        -12.8260   12.8350   34.8630 C.3       1 AB1100      0.0000 
      2 C2        -10.6950   13.4560   33.6930 C.3       1 AB1100      0.0000 
      3 N1        -11.3120   14.7950   33.3690 N.am      1 AB1100      0.0000 
      4 C3        -12.6020   15.1110   33.7730 C.2       1 AB1100      0.0000 
      5 N2        -13.3030   14.1780   34.4780 N.am      1 AB1100      0.0000 
      6 C4         -6.2280   18.1490   27.5220 C.ar      1 AB1100      0.0000 
      7 C5         -5.5330   18.8920   26.5370 C.ar      1 AB1100      0.0000 
      8 C6         -4.2180   18.5350   26.1490 C.ar      1 AB1100      0.0000 
      9 C7         -3.5830   17.4290   26.7450 C.ar      1 AB1100      0.0000 
     10 C8         -4.2660   16.6810   27.7290 C.ar      1 AB1100      0.0000 
     11 C9         -5.5790   17.0370   28.1160 C.ar      1 AB1100      0.0000 
     12 O1        -13.1160   16.1860   33.5160 O.2       1 AB1100      0.0000 
     13 C10       -10.5260   15.8120   32.5870 C.3       1 AB1100      0.0000 
     14 C11       -10.3560   15.3130   31.1260 C.2       1 AB1100      0.0000 
     15 N3        -11.2180   15.9240   30.2550 N.am      1 AB1100      0.0000 
     16 C12       -11.2830   15.6520   28.8020 C.3       1 AB1100      0.0000 
     17 C13        -9.1410   16.1410   33.2720 C.3       1 AB1100      0.0000 
     18 C14        -8.3090   17.1860   32.5040 C.3       1 AB1100      0.0000 
     19 C15        -9.3490   16.6480   34.7180 C.3       1 AB1100      0.0000 
     20 O2         -9.5230   14.4560   30.8260 O.2       1 AB1100      0.0000 
     21 C16       -12.7040   11.1390   29.1350 C.ar      1 AB1100      0.0000 
     22 C17       -13.3650   11.1000   30.3860 C.ar      1 AB1100      0.0000 
     23 C18       -13.7730   12.3060   31.0020 C.ar      1 AB1100      0.0000 
     24 C19       -13.5190   13.5420   30.3650 C.ar      1 AB1100      0.0000 
     25 C20       -12.8550   13.5900   29.1090 C.ar      1 AB1100      0.0000 
     26 C21       -12.4510   12.3790   28.5010 C.ar      1 AB1100      0.0000 
     27 C22       -12.5910   14.9100   28.4420 C.3       1 AB1100      0.0000 
     28 C23       -11.2870   16.9600   27.9810 C.3       1 AB1100      0.0000 
     29 C24       -10.1160   17.9510   28.1120 C.3       1 AB1100      0.0000 
     30 C25        -8.7120   17.4430   27.6950 C.3       1 AB1100      0.0000 
     31 N4         -8.7530   17.0970   26.2550 N.am      1 AB1100      0.0000 
     32 C26        -8.2660   15.9270   25.7320 C.2       1 AB1100      0.0000 
     33 C27        -8.3990   15.8070   24.2010 C.3       1 AB1100      0.0000 
     34 O3         -8.7210   17.0700   23.5900 O.3       1 AB1100      0.0000 
     35 C28        -8.2970   17.1830   22.2520 C.ar      1 AB1100      0.0000 
     36 O4        -10.4330   19.0340   27.2710 O.3       1 AB1100      0.0000 
     37 C29        -7.6370   18.5480   27.9160 C.3       1 AB1100      0.0000 
     38 O5         -7.7420   15.0210   26.3890 O.2       1 AB1100      0.0000 
     39 C30        -9.0670   16.6400   21.1650 C.ar      1 AB1100      0.0000 
     40 C31        -8.5870   16.7880   19.8360 C.ar      1 AB1100      0.0000 
     41 C32        -7.3740   17.4590   19.5740 C.ar      1 AB1100      0.0000 
     42 C33        -6.6140   17.9970   20.6320 C.ar      1 AB1100      0.0000 
     43 C34        -7.0610   17.8680   21.9690 C.ar      1 AB1100      0.0000 
     44 C35        -6.2340   18.4510   23.0640 C.3       1 AB1100      0.0000 
     45 C36       -10.3740   15.9150   21.3830 C.3       1 AB1100      0.0000 
     46 C37       -11.2960   12.7740   34.9400 C.3       1 AB1100      0.0000 
     47 H         -13.1630   12.0845   34.1353 H         1 AB1100      0.0000 
     48 H         -13.2304   12.5503   35.8437 H         1 AB1100      0.0000 
     49 H          -9.6109   13.5777   33.8544 H         1 AB1100      0.0000 
     50 H         -10.8170   12.7751   32.8341 H         1 AB1100      0.0000 
     51 H         -14.2935   14.3981   34.8016 H         1 AB1100      0.0000 
     52 H          -5.9879   19.7003   26.0979 H         1 AB1100      0.0000 
     53 H          -3.7337   19.0830   25.4360 H         1 AB1100      0.0000 
     54 H          -2.6376   17.1684   26.4698 H         1 AB1100      0.0000 
     55 H          -3.8088   15.8758   28.1656 H         1 AB1100      0.0000 
     56 H          -6.0657   16.4888   28.8301 H         1 AB1100      0.0000 
     57 H         -11.0981   16.7425   32.5486 H         1 AB1100      0.0000 
     58 H         -11.9012   16.6460   30.6017 H         1 AB1100      0.0000 
     59 H         -10.4623   15.0531   28.4747 H         1 AB1100      0.0000 
     60 H          -8.5682   15.2193   33.3277 H         1 AB1100      0.0000 
     61 H         -12.4085   10.2692   28.6881 H         1 AB1100      0.0000 
     62 H         -13.5459   10.2068   30.8404 H         1 AB1100      0.0000 
     63 H         -14.2490   12.2835   31.9031 H         1 AB1100      0.0000 
     64 H         -13.8156   14.4157   30.8110 H         1 AB1100      0.0000 
     65 H         -11.9725   12.3985   27.5966 H         1 AB1100      0.0000 
     66 H         -12.6070   14.7724   27.3298 H         1 AB1100      0.0000 
     67 H         -13.4438   15.6069   28.6501 H         1 AB1100      0.0000 
     68 H         -12.2411   17.5124   28.2131 H         1 AB1100      0.0000 
     69 H         -11.3946   16.6867   26.8934 H         1 AB1100      0.0000 
     70 H         -10.0665   18.2875   29.1406 H         1 AB1100      0.0000 
     71 H          -8.4617   16.5942   28.2794 H         1 AB1100      0.0000 
     72 H          -9.1893   17.8192   25.6350 H         1 AB1100      0.0000 
     73 H          -9.1740   15.0505   23.9958 H         1 AB1100      0.0000 
     74 H          -7.4469   15.4048   23.8180 H         1 AB1100      0.0000 
     75 H          -7.9428   19.4400   27.3422 H         1 AB1100      0.0000 
     76 H          -7.6561   18.8331   28.9822 H         1 AB1100      0.0000 
     77 H          -9.1335   16.3998   19.0587 H         1 AB1100      0.0000 
     78 H          -7.0441   17.5555   18.6089 H         1 AB1100      0.0000 
     79 H          -5.7357   18.4830   20.4359 H         1 AB1100      0.0000 
     80 H         -10.9768   11.7426   34.9675 H         1 AB1100      0.0000 
     81 H         -10.9581   13.2934   35.8246 H         1 AB1100      0.0000 
     82 H          -7.4385   17.3746   32.9586 H         1 AB1100      0.0000 
     83 H          -8.0950   16.8812   31.5759 H         1 AB1100      0.0000 
     84 H          -8.7919   18.0579   32.4221 H         1 AB1100      0.0000 
     85 H          -8.4805   16.8629   35.1648 H         1 AB1100      0.0000 
     86 H          -9.9053   17.4786   34.7439 H         1 AB1100      0.0000 
     87 H          -9.8110   15.9679   35.2872 H         1 AB1100      0.0000 
     88 H          -5.9355   17.7536   23.7156 H         1 AB1100      0.0000 
     89 H          -5.4100   18.8944   22.7113 H         1 AB1100      0.0000 
     90 H          -6.7385   19.1407   23.5835 H         1 AB1100      0.0000 
     91 H         -10.2581   15.1053   21.9582 H         1 AB1100      0.0000 
     92 H         -11.0519   16.4980   21.8308 H         1 AB1100      0.0000 
     93 H         -10.7761   15.6069   20.5208 H         1 AB1100      0.0000 
     94 H         -11.2035   18.7158   26.7187 H         1 AB1100      0.0000 
@<TRIPOS>BOND
     1    5    1 1    
     2   46    1 1    
     3   47    1 1    
     4   48    1 1    
     5    3    2 1    
     6   46    2 1    
     7   49    2 1    
     8   50    2 1    
     9    4    3 am   
    10   13    3 1    
    11    5    4 am   
    12   12    4 2    
    13   51    5 1    
    14    7    6 ar   
    15   11    6 ar   
    16   37    6 1    
    17    8    7 ar   
    18   52    7 1    
    19    9    8 ar   
    20   53    8 1    
    21   10    9 ar   
    22   54    9 1    
    23   11   10 ar   
    24   55   10 1    
    25   56   11 1    
    26   14   13 1    
    27   17   13 1    
    28   57   13 1    
    29   15   14 am   
    30   20   14 2    
    31   16   15 1    
    32   58   15 1    
    33   27   16 1    
    34   28   16 1    
    35   59   16 1    
    36   18   17 1    
    37   19   17 1    
    38   60   17 1    
    39   82   18 1    
    40   83   18 1    
    41   84   18 1    
    42   85   19 1    
    43   86   19 1    
    44   87   19 1    
    45   22   21 ar   
    46   26   21 ar   
    47   61   21 1    
    48   23   22 ar   
    49   62   22 1    
    50   24   23 ar   
    51   63   23 1    
    52   25   24 ar   
    53   64   24 1    
    54   26   25 ar   
    55   27   25 1    
    56   65   26 1    
    57   66   27 1    
    58   67   27 1    
    59   29   28 1    
    60   68   28 1    
    61   69   28 1    
    62   30   29 1    
    63   36   29 1    
    64   70   29 1    
    65   31   30 1    
    66   37   30 1    
    67   71   30 1    
    68   32   31 am   
    69   72   31 1    
    70   33   32 1    
    71   38   32 2    
    72   34   33 1    
    73   73   33 1    
    74   74   33 1    
    75   35   34 1    
    76   39   35 ar   
    77   43   35 ar   
    78   94   36 1    
    79   75   37 1    
    80   76   37 1    
    81   40   39 ar   
    82   45   39 1    
    83   41   40 ar   
    84   77   40 1    
    85   42   41 ar   
    86   78   41 1    
    87   43   42 ar   
    88   79   42 1    
    89   44   43 1    
    90   88   44 1    
    91   89   44 1    
    92   90   44 1    
    93   91   45 1    
    94   92   45 1    
    95   93   45 1    
    96   80   46 1    
    97   81   46 1    
@<TRIPOS>SUBSTRUCTURE
     1 AB1100      1 GROUP   
@<TRIPOS>SET

