#    Name: 4ea3_0NN_1_INTS_M
#    Modification time : Tue Mar 25 10:48:08 2014

@<TRIPOS>MOLECULE
4ea3_0NN_1_INTS_M
   69     0     9     0     0
SMALL
NO_CHARGES


@<TRIPOS>ATOM
      1 OD1         9.3035  -53.3580    2.5965 O.co2     2 ASC3        0.0000 
      2 OD1        10.4950  -54.5090    2.0090 O.co2     8 ASL3        0.0000 
      3 OD1         8.1120  -52.2070    3.1840 O.co2     5 ASP3        0.0000 
      4 OD1         9.1585  -54.3855    2.2345 O.co2     2 ASC3        0.0000 
      5 OD1         7.8220  -54.2620    2.4600 O.co2     5 ASP3        0.0000 
      6 O           9.1585  -54.3855    2.2345 O.2       1 ALC1        0.0000 
      7 O          10.4950  -54.5090    2.0090 O.2       7 ALL1        0.0000 
      8 O           7.8220  -54.2620    2.4600 O.2       4 ALP1        0.0000 
      9 CA         13.0225  -53.3705    0.4460 C.3       3 GLC5        0.0000 
     10 CA         11.0960  -53.2540    1.4660 C.3       9 GLL5        0.0000 
     11 CA         14.9490  -53.4870   -0.5740 C.3       6 GLP5        0.0000 
     12 CA         10.0165  -59.6710   10.9900 C.3       3 GLC5        0.0000 
     13 CA         10.0660  -59.0180    8.9990 C.3       9 GLL5        0.0000 
     14 CA          9.9670  -60.3240   12.9810 C.3       6 GLP5        0.0000 
     15 CA          7.2455  -58.7845   10.3230 C.3       3 GLC5        0.0000 
     16 CA          8.6070  -58.6660    8.7480 C.3       9 GLL5        0.0000 
     17 CA          5.8840  -58.9030   11.8980 C.3       6 GLP5        0.0000 
     18 CA          6.3200  -56.6340    7.3985 C.3       3 GLC5        0.0000 
     19 CA          7.8240  -57.8290    6.5830 C.3       9 GLL5        0.0000 
     20 CA          4.8160  -55.4390    8.2140 C.3       6 GLP5        0.0000 
     21 CA          6.7690  -55.2135    3.7950 C.3       3 GLC5        0.0000 
     22 CA          7.5840  -57.2540    4.1460 C.3       9 GLL5        0.0000 
     23 CA          5.9540  -53.1730    3.4440 C.3       6 GLP5        0.0000 
     24 CA          5.1340  -57.6915    2.4780 C.3       3 GLC5        0.0000 
     25 CA          7.2910  -57.6190    2.7100 C.3       9 GLL5        0.0000 
     26 CA          2.9770  -57.7640    2.2460 C.3       6 GLP5        0.0000 
     27 CA          5.6785  -60.3825    6.1675 C.3       3 GLC5        0.0000 
     28 CA          7.1640  -59.6300    4.7700 C.3       9 GLL5        0.0000 
     29 CA          4.1930  -61.1350    7.5650 C.3       6 GLP5        0.0000 
     30 CA         13.0565  -53.6105   -1.6125 C.3       3 GLC5        0.0000 
     31 CA         11.1640  -53.7340   -2.6510 C.3       9 GLL5        0.0000 
     32 CA         12.4175  -55.1810   -2.4450 C.3       3 GLC5        0.0000 
     33 CA         13.6710  -56.6280   -2.2390 C.3       6 GLP5        0.0000 
     34 CA          7.5740  -55.8360   -0.8505 C.3       3 GLC5        0.0000 
     35 CA          9.4350  -55.0380   -0.1110 C.3       9 GLL5        0.0000 
     36 CA          5.7130  -56.6340   -1.5900 C.3       6 GLP5        0.0000 
     37 CA          7.8555  -51.4147   -5.9120 C.3       3 GLC5        0.0000 
     38 CA          7.9640  -52.2470   -4.4300 C.3       9 GLL5        0.0000 
     39 CA          7.0970  -50.3580   -7.4310 C.3       6 GLP5        0.0000 
     40 CA          5.7767  -52.1938   -1.5277 C.3       3 GLC5        0.0000 
     41 CA          7.1050  -52.2540   -3.2070 C.3       9 GLL5        0.0000 
     42 CA          4.1960  -51.9070   -0.4490 C.3       6 GLP5        0.0000 
     43 CA          7.4082  -50.8417   -2.4378 C.3       3 GLC5        0.0000 
     44 CA          7.6100  -52.7070   -2.0060 C.3       9 GLL5        0.0000 
     45 CA          7.4590  -49.2030   -2.2690 C.3       6 GLP5        0.0000 
     46 CA         10.0517  -51.2254   -0.7278 C.3       3 GLC5        0.0000 
     47 CA         10.2280  -52.6930    0.3050 C.3       9 GLL5        0.0000 
     48 CA         10.2640  -49.3680   -0.9360 C.3       6 GLP5        0.0000 
     49 CA         11.8135  -51.5742    1.0437 C.3       3 GLC5        0.0000 
     50 CA         12.9650  -50.1750    1.2020 C.3       6 GLP5        0.0000 
     51 CA         10.8912  -53.6162    4.7887 C.3       3 GLC5        0.0000 
     52 CA         11.3050  -54.9870    3.1150 C.3       9 GLL5        0.0000 
     53 CA         10.8860  -51.8210    5.9860 C.3       6 GLP5        0.0000 
     54 CA         12.8464  -55.0614    4.6164 C.3       3 GLC5        0.0000 
     55 CA         14.5470  -54.2190    4.8590 C.3       6 GLP5        0.0000 
     56 CA          9.0437  -56.9340    9.4662 C.3       3 GLC5        0.0000 
     57 CA          8.7510  -55.0260   10.0590 C.3       6 GLP5        0.0000 
     58 CA          5.4838  -60.0200    1.5837 C.3       3 GLC5        0.0000 
     59 CA          6.9000  -59.9590    3.4640 C.3       9 GLL5        0.0000 
     60 CA          4.0340  -60.6080    0.2410 C.3       6 GLP5        0.0000 
     61 CA          6.4490  -61.6123    3.9685 C.3       3 GLC5        0.0000 
     62 CA          5.8660  -63.4300    3.8200 C.3       6 GLP5        0.0000 
     63 CA          7.8281  -53.4531   -5.5111 C.3       3 GLC5        0.0000 
     64 CA          7.2570  -54.4330   -6.9350 C.3       6 GLP5        0.0000 
     65 CA          8.9420  -51.0131   -3.4497 C.3       3 GLC5        0.0000 
     66 CA          9.2640  -52.6960   -4.3560 C.3       9 GLL5        0.0000 
     67 CA          8.6690  -49.1940   -3.1840 C.3       6 GLP5        0.0000 
     68 CA          5.3011  -58.8954    4.1553 C.3       3 GLC5        0.0000 
     69 CA          3.4560  -58.7340    4.4960 C.3       6 GLP5        0.0000 
@<TRIPOS>BOND
@<TRIPOS>SUBSTRUCTURE
     1 ALC1        6 GROUP        1 X    ALC  0     ROOT ALC X 1
     2 ASC3        1 GROUP        1 X    ASC  0     **** ASC X 3
     3 GLC5        9 GROUP        1 X    GLC  0     **** GLC X 6
     4 ALP1        8 GROUP        1 Y    ALP  0     ROOT ALP Y 8
     5 ASP3        3 GROUP        1 Y    ASP  0     **** ASP Y 10
     6 GLP5       11 GROUP        1 Y    GLP  0     **** GLP Y 13
     7 ALL1        7 GROUP        1 Z    ALL  0     ROOT ALL Z 15
     8 ASL3        2 GROUP        1 Z    ASL  0     **** ASL Z 17
     9 GLL5       10 GROUP        1 Z    GLL  0     **** GLL Z 20
@<TRIPOS>SET

