#    Name: 4ea3_0NN_1_ligand
#    Modification time : Tue Mar 25 10:48:08 2014

@<TRIPOS>MOLECULE
4ea3_0NN_1_ligand
   69    73     1     0     0
SMALL
NO_CHARGES


@<TRIPOS>ATOM
      1 C4          7.9640  -52.2470   -4.4300 C.ar      1 0NN1501     0.0000 
      2 C3          7.1050  -52.2540   -3.2070 C.ar      1 0NN1501     0.0000 
      3 C2          7.6100  -52.7070   -2.0060 C.ar      1 0NN1501     0.0000 
      4 O2         10.7760  -59.0970    4.7240 O.2       1 0NN1501     0.0000 
      5 C1          9.0350  -53.1980   -1.9250 C.ar      1 0NN1501     0.0000 
      6 O1         10.9150  -54.3840   -1.4420 O.3       1 0NN1501     0.0000 
      7 N1         10.4950  -54.5090    2.0090 N.4       1 0NN1501     0.0000 
      8 C10        10.4080  -55.5080    0.9330 C.3       1 0NN1501     0.0000 
      9 C11        10.2280  -52.6930    0.3050 C.3       1 0NN1501     0.0000 
     10 C12        11.0960  -53.2540    1.4660 C.3       1 0NN1501     0.0000 
     11 C13        11.3050  -54.9870    3.1150 C.3       1 0NN1501     0.0000 
     12 C14        10.4880  -55.8360    4.0680 C.3       1 0NN1501     0.0000 
     13 C15        11.3950  -56.3960    5.1560 C.3       1 0NN1501     0.0000 
     14 C16        10.3720  -58.6420    5.7750 C.2       1 0NN1501     0.0000 
     15 C17         9.5890  -59.5630    6.7530 C.3       1 0NN1501     0.0000 
     16 C18        10.4290  -59.9690    7.9000 C.3       1 0NN1501     0.0000 
     17 C19        10.0660  -59.0180    8.9990 C.3       1 0NN1501     0.0000 
     18 N2         10.6430  -57.2350    6.1080 N.am      1 0NN1501     0.0000 
     19 C20         8.6070  -58.6660    8.7480 C.3       1 0NN1501     0.0000 
     20 C21         7.8240  -57.8290    6.5830 C.3       1 0NN1501     0.0000 
     21 C22         7.5230  -58.2130    5.1250 C.ar      1 0NN1501     0.0000 
     22 C23         7.5840  -57.2540    4.1460 C.ar      1 0NN1501     0.0000 
     23 C24         7.2910  -57.6190    2.7100 C.ar      1 0NN1501     0.0000 
     24 C25         6.9670  -58.9050    2.3890 C.ar      1 0NN1501     0.0000 
     25 C26         6.9000  -59.9590    3.4640 C.ar      1 0NN1501     0.0000 
     26 C27         7.1640  -59.6300    4.7700 C.ar      1 0NN1501     0.0000 
     27 N3          8.3820  -58.9780    7.3330 N.4       1 0NN1501     0.0000 
     28 C5          9.2640  -52.6960   -4.3560 C.ar      1 0NN1501     0.0000 
     29 C6          9.8160  -53.1930   -3.0380 C.ar      1 0NN1501     0.0000 
     30 C7         11.1640  -53.7340   -2.6510 C.3       1 0NN1501     0.0000 
     31 C8          9.8670  -53.7470   -0.7630 C.3       1 0NN1501     0.0000 
     32 C9          9.4350  -55.0380   -0.1110 C.3       1 0NN1501     0.0000 
     33 H           7.5435  -51.9033   -5.2852 H         1 0NN1501     0.0000 
     34 H           6.1536  -51.9141   -3.3128 H         1 0NN1501     0.0000 
     35 H           7.0729  -52.7331   -1.1492 H         1 0NN1501     0.0000 
     36 H           9.4928  -54.2742    2.3606 H         1 0NN1501     0.0000 
     37 H          10.0690  -56.4672    1.3312 H         1 0NN1501     0.0000 
     38 H          11.3865  -55.6538    0.4695 H         1 0NN1501     0.0000 
     39 H          10.7737  -51.8714   -0.1739 H         1 0NN1501     0.0000 
     40 H           9.3038  -52.2809    0.7271 H         1 0NN1501     0.0000 
     41 H          12.0953  -53.4453    1.0794 H         1 0NN1501     0.0000 
     42 H          11.1563  -52.4928    2.2417 H         1 0NN1501     0.0000 
     43 H          11.7305  -54.1445    3.6813 H         1 0NN1501     0.0000 
     44 H          12.1483  -55.5926    2.7494 H         1 0NN1501     0.0000 
     45 H          10.0310  -56.6565    3.5245 H         1 0NN1501     0.0000 
     46 H           9.7133  -55.2285    4.5244 H         1 0NN1501     0.0000 
     47 H          11.8697  -55.5554    5.6795 H         1 0NN1501     0.0000 
     48 H          12.1916  -56.9810    4.6774 H         1 0NN1501     0.0000 
     49 H           9.3169  -60.4754    6.2050 H         1 0NN1501     0.0000 
     50 H          11.4702  -59.8648    7.6597 H         1 0NN1501     0.0000 
     51 H          10.1977  -60.9738    8.1991 H         1 0NN1501     0.0000 
     52 H          10.6612  -58.1323    8.9371 H         1 0NN1501     0.0000 
     53 H          10.1579  -59.4958    9.9507 H         1 0NN1501     0.0000 
     54 H          10.3218  -56.8501    6.9696 H         1 0NN1501     0.0000 
     55 H           8.4625  -57.6213    8.9426 H         1 0NN1501     0.0000 
     56 H           7.9889  -59.2714    9.3818 H         1 0NN1501     0.0000 
     57 H           6.8941  -57.4846    7.0457 H         1 0NN1501     0.0000 
     58 H           8.5316  -56.9943    6.5785 H         1 0NN1501     0.0000 
     59 H           7.8199  -56.2842    4.3238 H         1 0NN1501     0.0000 
     60 H           7.3519  -56.8653    2.0351 H         1 0NN1501     0.0000 
     61 H           6.7601  -59.2152    1.4438 H         1 0NN1501     0.0000 
     62 H           6.6541  -60.8961    3.1616 H         1 0NN1501     0.0000 
     63 H           7.1328  -60.2947    5.5328 H         1 0NN1501     0.0000 
     64 H           7.5884  -59.7917    7.3178 H         1 0NN1501     0.0000 
     65 H           9.8952  -52.7174   -5.1455 H         1 0NN1501     0.0000 
     66 H          11.4964  -54.4048   -3.4263 H         1 0NN1501     0.0000 
     67 H          11.8460  -52.9058   -2.5484 H         1 0NN1501     0.0000 
     68 H           8.4455  -54.8957    0.3494 H         1 0NN1501     0.0000 
     69 H           9.3260  -55.8135   -0.8844 H         1 0NN1501     0.0000 
@<TRIPOS>BOND
     1    2    1 ar   
     2   28    1 ar   
     3   33    1 1    
     4    3    2 ar   
     5   34    2 1    
     6    5    3 ar   
     7   35    3 1    
     8   14    4 2    
     9   29    5 ar   
    10   31    5 1    
    11   30    6 1    
    12   31    6 1    
    13    8    7 1    
    14   10    7 1    
    15   11    7 1    
    16   36    7 1    
    17   32    8 1    
    18   37    8 1    
    19   38    8 1    
    20   10    9 1    
    21   31    9 1    
    22   39    9 1    
    23   40    9 1    
    24   41   10 1    
    25   42   10 1    
    26   12   11 1    
    27   43   11 1    
    28   44   11 1    
    29   13   12 1    
    30   45   12 1    
    31   46   12 1    
    32   18   13 1    
    33   47   13 1    
    34   48   13 1    
    35   15   14 1    
    36   18   14 am   
    37   16   15 1    
    38   27   15 1    
    39   49   15 1    
    40   17   16 1    
    41   50   16 1    
    42   51   16 1    
    43   19   17 1    
    44   52   17 1    
    45   53   17 1    
    46   54   18 1    
    47   27   19 1    
    48   55   19 1    
    49   56   19 1    
    50   21   20 1    
    51   27   20 1    
    52   57   20 1    
    53   58   20 1    
    54   22   21 ar   
    55   26   21 ar   
    56   23   22 ar   
    57   59   22 1    
    58   24   23 ar   
    59   60   23 1    
    60   25   24 ar   
    61   61   24 1    
    62   26   25 ar   
    63   62   25 1    
    64   63   26 1    
    65   64   27 1    
    66   29   28 ar   
    67   65   28 1    
    68   30   29 1    
    69   66   30 1    
    70   67   30 1    
    71   32   31 1    
    72   68   32 1    
    73   69   32 1    
@<TRIPOS>SUBSTRUCTURE
     1 0NN1501     1 GROUP   
@<TRIPOS>SET

