#    Name: 1G8O_1_CAVITY_N1_ALL.mol2
#    Modification time : Tue Mar 11 01:04:52 2014

@<TRIPOS>MOLECULE
1G8O_1_CAVITY_N1_ALL.mol2
   68     0     7     0     0
SMALL
NO_CHARGES


@<TRIPOS>ATOM
      1 O          78.4770    7.5953   51.5769 O.2       2 ALA2        0.0000 
      2 N          78.8097    9.9630   52.5935 N.2       2 ALA2        0.0000 
      3 CA         79.7912    8.8329   52.6910 C.3       6 GLY6        0.0000 
      4 N          77.6310   10.7961   51.0389 N.2       2 ALA2        0.0000 
      5 O          78.6125    9.6660   51.1364 O.2       2 ALA2        0.0000 
      6 N          76.4523   11.6292   49.4843 N.2       2 ALA2        0.0000 
      7 O          77.4339   10.4991   49.5819 O.2       2 ALA2        0.0000 
      8 CA         80.9082    9.7735   52.3481 C.3       6 GLY6        0.0000 
      9 CA         78.7480   11.7367   50.6960 C.3       6 GLY6        0.0000 
     10 O          79.7296   10.6066   50.7936 O.2       2 ALA2        0.0000 
     11 N          77.5694   12.5698   49.1415 N.2       2 ALA2        0.0000 
     12 O          78.5509   11.4397   49.2390 O.2       2 ALA2        0.0000 
     13 CA         77.3722   12.2728   47.6844 C.3       6 GLY6        0.0000 
     14 O          78.3537   11.1427   47.7820 O.2       2 ALA2        0.0000 
     15 O          78.1566   10.8457   46.3250 O.2       2 ALA2        0.0000 
     16 CA         79.6679   12.3803   48.8961 C.3       6 GLY6        0.0000 
     17 O          79.4707   12.0833   47.4391 O.2       2 ALA2        0.0000 
     18 CA         78.2921   12.9164   45.8845 C.3       6 GLY6        0.0000 
     19 O          79.2736   11.7863   45.9821 O.2       2 ALA2        0.0000 
     20 NZ         79.0764   11.4893   44.5251 N.2       4 LYS4        0.0000 
     21 CZ         80.0579   10.3592   44.6226 C.ar      5 PHE5        0.0000 
     22 CA         81.7665   12.1907   48.6508 C.3       6 GLY6        0.0000 
     23 CA         80.5878   13.0238   47.0962 C.3       6 GLY6        0.0000 
     24 CZ         81.5693   11.8937   47.1938 C.ar      5 PHE5        0.0000 
     25 OG         80.3906   12.7268   45.6392 O.2       1 SER1        0.0000 
     26 CA         81.9020   14.2614   48.2104 C.3       6 GLY6        0.0000 
     27 CA         82.8835   13.1313   48.3079 C.3       6 GLY6        0.0000 
     28 CA         83.8650   12.0012   48.4055 C.3       6 GLY6        0.0000 
     29 CA         81.7048   13.9644   46.7534 C.3       6 GLY6        0.0000 
     30 CZ         82.6863   12.8343   46.8509 C.ar      5 PHE5        0.0000 
     31 CA         85.1792   13.2388   49.5196 C.3       6 GLY6        0.0000 
     32 CA         83.0190   15.2020   47.8675 C.3       6 GLY6        0.0000 
     33 CA         84.0005   14.0719   47.9650 C.3       6 GLY6        0.0000 
     34 CZ         84.9820   12.9418   48.0626 C.ar      5 PHE5        0.0000 
     35 N          81.8403   16.0351   46.3129 N.2       2 ALA2        0.0000 
     36 OG         82.8218   14.9050   46.4105 O.2       1 SER1        0.0000 
     37 CZ         83.8034   13.7749   46.5080 C.ar      5 PHE5        0.0000 
     38 OG         82.6247   14.6080   44.9535 O.2       1 SER1        0.0000 
     39 CA         85.3147   15.3095   49.0792 C.3       6 GLY6        0.0000 
     40 CA         86.2962   14.1794   49.1767 C.3       6 GLY6        0.0000 
     41 CA         84.1360   16.1426   47.5246 C.3       6 GLY6        0.0000 
     42 CA         85.1175   15.0125   47.6222 C.3       6 GLY6        0.0000 
     43 N          86.0991   13.8824   47.7197 N.2       2 ALA2        0.0000 
     44 CA         82.9573   16.9757   45.9701 C.3       6 GLY6        0.0000 
     45 CA         83.9389   15.8456   46.0676 C.3       6 GLY6        0.0000 
     46 CZ         84.9204   14.7155   46.1651 C.ar      5 PHE5        0.0000 
     47 CZ         85.9019   13.5854   46.2627 C.ar      5 PHE5        0.0000 
     48 CA         82.7602   16.6787   44.5130 C.3       6 GLY6        0.0000 
     49 OG         83.7417   15.5486   44.6106 O.2       1 SER1        0.0000 
     50 CZ         84.7232   14.4185   44.7081 C.ar      5 PHE5        0.0000 
     51 CA         83.5445   15.2516   43.1536 C.3       6 GLY6        0.0000 
     52 CA         86.4317   16.2500   48.7363 C.3       6 GLY6        0.0000 
     53 CA         87.4132   15.1199   48.8339 C.3       6 GLY6        0.0000 
     54 CA         85.2531   17.0831   47.1818 C.3       6 GLY6        0.0000 
     55 O          86.2346   15.9530   47.2793 O.2       2 ALA2        0.0000 
     56 N          87.2161   14.8230   47.3768 N.2       2 ALA2        0.0000 
     57 OG         84.0744   17.9162   45.6272 O.2       1 SER1        0.0000 
     58 OG         85.0559   16.7861   45.7247 O.2       1 SER1        0.0000 
     59 DU         86.0374   15.6561   45.8223 H         7 CUB7        0.0000 
     60 CA         87.0189   14.5260   45.9198 C.3       6 GLY6        0.0000 
     61 OD1        84.8587   16.4892   44.2677 O.3       3 ASP3        0.0000 
     62 OD1        85.8403   15.3591   44.3652 O.3       3 ASP3        0.0000 
     63 NZ         86.8218   14.2290   44.4628 N.2       4 LYS4        0.0000 
     64 OD1        84.6616   16.1922   42.8107 O.3       3 ASP3        0.0000 
     65 O          88.3331   15.7635   47.0340 O.2       2 ALA2        0.0000 
     66 NZ         86.1729   17.7267   45.3819 N.2       4 LYS4        0.0000 
     67 NZ         87.1544   16.5966   45.4794 N.2       4 LYS4        0.0000 
     68 O          88.1360   15.4665   45.5769 O.2       2 ALA2        0.0000 
@<TRIPOS>BOND
@<TRIPOS>SUBSTRUCTURE
     1 SER1       25 GROUP   
     2 ALA2        1 GROUP   
     3 ASP3       61 GROUP   
     4 LYS4       20 GROUP   
     5 PHE5       21 GROUP   
     6 GLY6        3 GROUP   
     7 CUB7       59 GROUP   
@<TRIPOS>SET

