#    Name: 1g8o_U5P_1_INTS_M
#    Modification time : Tue Mar 25 02:50:22 2014

@<TRIPOS>MOLECULE
1g8o_U5P_1_INTS_M
   50     0     9     0     0
SMALL
NO_CHARGES


@<TRIPOS>ATOM
      1 O          83.6665   10.5750   48.8765 O.2       1 ALC1        0.0000 
      2 O          83.6380   12.0500   48.2480 O.2       7 ALL1        0.0000 
      3 O          83.6950    9.1000   49.5050 O.2       4 ALP1        0.0000 
      4 CA         82.8370   12.7415   45.6560 C.3       3 GLC5        0.0000 
      5 CA         82.5220   13.8300   47.1350 C.3       9 GLL5        0.0000 
      6 CA         83.1520   11.6530   44.1770 C.3       6 GLP5        0.0000 
      7 CA         80.4215   14.4800   47.1020 C.3       3 GLC5        0.0000 
      8 CA         78.3210   15.1300   47.0690 C.3       6 GLP5        0.0000 
      9 CA         84.0940   13.1770   45.6980 C.3       3 GLC5        0.0000 
     10 CA         83.6560   14.4950   47.1880 C.3       9 GLL5        0.0000 
     11 CA         84.5320   11.8590   44.2080 C.3       6 GLP5        0.0000 
     12 N          85.9945   11.1490   49.6925 N.am      2 SEC2        0.0000 
     13 N          85.8450   12.2500   48.8360 N.am      8 SEL2        0.0000 
     14 N          86.1440   10.0480   50.5490 N.am      5 SEP2        0.0000 
     15 N          80.9235   10.5870   48.1925 N.am      2 SEC2        0.0000 
     16 N          81.4670   11.7890   47.6970 N.am      8 SEL2        0.0000 
     17 N          80.3800    9.3850   48.6880 N.am      5 SEP2        0.0000 
     18 CA         87.6330   14.7305   49.4005 C.3       3 GLC5        0.0000 
     19 CA         86.1230   14.8110   47.7890 C.3       9 GLL5        0.0000 
     20 CA         89.1430   14.6500   51.0120 C.3       6 GLP5        0.0000 
     21 CA         84.6330   14.9630   49.1890 C.3       3 GLC5        0.0000 
     22 CA         83.1430   15.1150   50.5890 C.3       6 GLP5        0.0000 
     23 CA         87.0400   16.5005   48.8595 C.3       3 GLC5        0.0000 
     24 CA         87.9570   18.1900   49.9300 C.3       6 GLP5        0.0000 
     25 CA         86.2385   12.6325   45.8745 C.3       3 GLC5        0.0000 
     26 CA         87.1440   14.2490   46.7810 C.3       9 GLL5        0.0000 
     27 CA         85.3330   11.0160   44.9680 C.3       6 GLP5        0.0000 
     28 N          89.6035   14.2705   45.9875 N.am      2 SEC2        0.0000 
     29 N          88.5420   14.4390   47.1850 N.am      8 SEL2        0.0000 
     30 N          90.6650   14.1020   44.7900 N.am      5 SEP2        0.0000 
     31 O          89.0230   13.5255   47.9270 O.2       1 ALC1        0.0000 
     32 O          88.5420   14.4390   47.1850 O.2       7 ALL1        0.0000 
     33 O          89.5040   12.6120   48.6690 O.2       4 ALP1        0.0000 
     34 CA         85.6340   13.4100   44.8630 C.3       3 GLC5        0.0000 
     35 CA         86.7360   14.9610   45.5180 C.3       9 GLL5        0.0000 
     36 CA         88.3200   15.9525   44.3400 C.3       3 GLC5        0.0000 
     37 CA         89.9040   16.9440   43.1620 C.3       6 GLP5        0.0000 
     38 CA         87.2405   17.2810   48.0065 C.3       3 GLC5        0.0000 
     39 CA         86.5240   16.3720   46.0830 C.3       9 GLL5        0.0000 
     40 N          89.1700   14.4565   44.6010 N.am      2 SEC2        0.0000 
     41 N          87.6750   14.8110   44.4120 N.am      8 SEL2        0.0000 
     42 CA         84.3665   18.2510   46.5060 C.3       3 GLC5        0.0000 
     43 CA         85.5490   17.2550   45.2970 C.3       9 GLL5        0.0000 
     44 CA         83.1840   19.2470   47.7150 C.3       6 GLP5        0.0000 
     45 N          84.3475   17.2235   40.8715 N.am      2 SEC2        0.0000 
     46 N          84.1400   15.9290   41.8900 N.am      8 SEL2        0.0000 
     47 N          84.5550   18.5180   39.8530 N.am      5 SEP2        0.0000 
     48 CA         83.1160   14.6387   48.8752 C.3       3 GLC5        0.0000 
     49 CA         88.0005   13.1175   45.8422 C.3       3 GLC5        0.0000 
     50 CA         89.0610   11.6300   45.5350 C.3       6 GLP5        0.0000 
@<TRIPOS>BOND
@<TRIPOS>SUBSTRUCTURE
     1 ALC1        1 GROUP        1 X    ALC  0     ROOT ALC X 1
     2 SEC2       12 GROUP        1 X    SEC  0     **** SEC X 2
     3 GLC5        4 GROUP        1 X    GLC  0     **** GLC X 6
     4 ALP1        3 GROUP        1 Y    ALP  0     ROOT ALP Y 8
     5 SEP2       14 GROUP        1 Y    SEP  0     **** SEP Y 9
     6 GLP5        6 GROUP        1 Y    GLP  0     **** GLP Y 13
     7 ALL1        2 GROUP        1 Z    ALL  0     ROOT ALL Z 15
     8 SEL2       13 GROUP        1 Z    SEL  0     **** SEL Z 16
     9 GLL5        5 GROUP        1 Z    GLL  0     **** GLL Z 20
@<TRIPOS>SET

