#    Name: 1g8o_U5P_1_ligand
#    Modification time : Tue Mar 25 02:50:23 2014

@<TRIPOS>MOLECULE
1g8o_U5P_1_ligand
   32    33     1     0     0
SMALL
NO_CHARGES


@<TRIPOS>ATOM
      1 N1         84.8490   13.9900   47.7690 N.am      1 U5P474      0.0000 
      2 C2         84.8450   12.7090   48.3280 C.2       1 U5P474      0.0000 
      3 N3         83.6380   12.0500   48.2480 N.am      1 U5P474      0.0000 
      4 C4         82.4380   12.5160   47.6780 C.2       1 U5P474      0.0000 
      5 C5         82.5220   13.8300   47.1350 C.2       1 U5P474      0.0000 
      6 C6         83.6560   14.4950   47.1880 C.2       1 U5P474      0.0000 
      7 O2         85.8450   12.2500   48.8360 O.2       1 U5P474      0.0000 
      8 O4         81.4670   11.7890   47.6970 O.2       1 U5P474      0.0000 
      9 C1'        86.1230   14.8110   47.7890 C.3       1 U5P474      0.0000 
     10 C2'        87.1440   14.2490   46.7810 C.3       1 U5P474      0.0000 
     11 O2'        88.5420   14.4390   47.1850 O.3       1 U5P474      0.0000 
     12 C3'        86.7360   14.9610   45.5180 C.3       1 U5P474      0.0000 
     13 C4'        86.5240   16.3720   46.0830 C.3       1 U5P474      0.0000 
     14 O3'        87.6750   14.8110   44.4120 O.3       1 U5P474      0.0000 
     15 O4'        85.8310   16.1070   47.3510 O.3       1 U5P474      0.0000 
     16 C5'        85.5490   17.2550   45.2970 C.3       1 U5P474      0.0000 
     17 O5'        85.4000   16.7890   43.9330 O.3       1 U5P474      0.0000 
     18 P          83.9730   16.4110   43.2900 P.3       1 U5P474      0.0000 
     19 O1P        83.1510   15.3380   43.9360 O.co2     1 U5P474      0.0000 
     20 O2P        84.1400   15.9290   41.8900 O.co2     1 U5P474      0.0000 
     21 O3P        83.2800   17.9240   43.1240 O.co2     1 U5P474      0.0000 
     22 H          83.5956   11.0539   48.6708 H         1 U5P474      0.0000 
     23 H          81.6613   14.2202   46.7078 H         1 U5P474      0.0000 
     24 H          83.7269   15.4773   46.7811 H         1 U5P474      0.0000 
     25 H          86.5553   14.7910   48.7525 H         1 U5P474      0.0000 
     26 H          86.8923   13.1986   46.6557 H         1 U5P474      0.0000 
     27 H          85.7364   14.5848   45.2724 H         1 U5P474      0.0000 
     28 H          87.4245   16.8483   46.2571 H         1 U5P474      0.0000 
     29 H          85.9307   18.2857   45.3249 H         1 U5P474      0.0000 
     30 H          84.5856   17.2470   45.8267 H         1 U5P474      0.0000 
     31 H          88.9137   13.5148   47.2731 H         1 U5P474      0.0000 
     32 H          87.7069   15.7104   43.9759 H         1 U5P474      0.0000 
@<TRIPOS>BOND
     1    2    1 1    
     2    6    1 1    
     3    9    1 1    
     4    3    2 1    
     5    7    2 2    
     6    4    3 1    
     7   22    3 1    
     8    5    4 1    
     9    8    4 2    
    10    6    5 2    
    11   23    5 1    
    12   24    6 1    
    13   10    9 1    
    14   15    9 1    
    15   25    9 1    
    16   11   10 1    
    17   12   10 1    
    18   26   10 1    
    19   31   11 1    
    20   13   12 1    
    21   14   12 1    
    22   27   12 1    
    23   15   13 1    
    24   16   13 1    
    25   28   13 1    
    26   32   14 1    
    27   17   16 1    
    28   29   16 1    
    29   30   16 1    
    30   18   17 1    
    31   19   18 ar   
    32   20   18 ar   
    33   21   18 ar   
@<TRIPOS>SUBSTRUCTURE
     1 U5P474      1 GROUP   
@<TRIPOS>SET

