#    Name: 1qkn_RAL_1_INTS_M
#    Modification time : Mon Mar 24 23:37:15 2014

@<TRIPOS>MOLECULE
1qkn_RAL_1_INTS_M
   80     0    12     0     0
SMALL
NO_CHARGES


@<TRIPOS>ATOM
      1 CA         14.5765   28.7115    7.4285 C.3       4 GLC5        0.0000 
      2 CA         15.8390   30.1280    8.1030 C.3      12 GLL5        0.0000 
      3 CA         13.3140   27.2950    6.7540 C.3       8 GLP5        0.0000 
      4 N          12.5580   31.6680    8.3260 N.am      2 SEC2        0.0000 
      5 N          14.0660   31.7180    8.1660 N.am     10 SEL2        0.0000 
      6 N          11.0500   31.6180    8.4860 N.am      6 SEP2        0.0000 
      7 O          13.4825   32.1975    6.6490 O.2       1 ALC1        0.0000 
      8 O          14.0660   31.7180    8.1660 O.2       9 ALL1        0.0000 
      9 O          12.8990   32.6770    5.1320 O.2       5 ALP1        0.0000 
     10 O          14.0980   31.3190    6.9300 O.2       1 ALC1        0.0000 
     11 O          14.1300   30.9200    5.6940 O.2       5 ALP1        0.0000 
     12 CA         17.5275   33.2370   12.6400 C.3       4 GLC5        0.0000 
     13 CA         17.3610   31.2370   12.1470 C.3      12 GLL5        0.0000 
     14 CA         17.6940   35.2370   13.1330 C.3       8 GLP5        0.0000 
     15 CA         15.4770   31.2145   12.7500 C.3       4 GLC5        0.0000 
     16 CA         13.5930   31.1920   13.3530 C.3       8 GLP5        0.0000 
     17 CA         17.7515   30.5460   15.5385 C.3       4 GLC5        0.0000 
     18 CA         19.2300   29.5540   14.4130 C.3      12 GLL5        0.0000 
     19 CA         16.2730   31.5380   16.6640 C.3       8 GLP5        0.0000 
     20 O          23.3930   28.2915   16.2875 O.2       1 ALC1        0.0000 
     21 O          22.4470   29.2040   16.1390 O.2       9 ALL1        0.0000 
     22 O          24.3390   27.3790   16.4360 O.2       5 ALP1        0.0000 
     23 CA         19.6185   26.0900    9.1085 C.3       4 GLC5        0.0000 
     24 CA         21.1230   27.5080    8.9700 C.3      12 GLL5        0.0000 
     25 CA         18.1140   24.6720    9.2470 C.3       8 GLP5        0.0000 
     26 CA         23.0345   26.6190    4.7555 C.3       4 GLC5        0.0000 
     27 CA         23.4640   28.3530    5.4320 C.3      12 GLL5        0.0000 
     28 CA         22.6050   24.8850    4.0790 C.3       8 GLP5        0.0000 
     29 OD1        23.4315   29.2995    2.6885 O.co2     3 ASC3        0.0000 
     30 OD1        24.7430   29.7120    3.6430 O.co2    11 ASL3        0.0000 
     31 OD1        22.1200   28.8870    1.7340 O.co2     7 ASP3        0.0000 
     32 O          23.4315   29.2995    2.6885 O.2       1 ALC1        0.0000 
     33 O          24.7430   29.7120    3.6430 O.2       9 ALL1        0.0000 
     34 O          22.1200   28.8870    1.7340 O.2       5 ALP1        0.0000 
     35 CA         24.1960   32.3225    5.6615 C.3       4 GLC5        0.0000 
     36 CA         24.5390   31.1170    4.0200 C.3      12 GLL5        0.0000 
     37 CA         23.8530   33.5280    7.3030 C.3       8 GLP5        0.0000 
     38 CA         17.7660   29.7583    6.8915 C.3       4 GLC5        0.0000 
     39 CA         16.9310   29.5250    8.7290 C.3      12 GLL5        0.0000 
     40 CA         19.1470   29.6900    5.3670 C.3       8 GLP5        0.0000 
     41 CA         17.5235   31.4682    7.7375 C.3       4 GLC5        0.0000 
     42 CA         18.6620   33.1100    7.0590 C.3       8 GLP5        0.0000 
     43 CA         14.8525   31.2150   11.8570 C.3       4 GLC5        0.0000 
     44 CA         15.5780   31.5290   10.0650 C.3      12 GLL5        0.0000 
     45 CA         16.5821   32.8954    9.1465 C.3       4 GLC5        0.0000 
     46 CA         16.6460   30.9470   10.6570 C.3      12 GLL5        0.0000 
     47 CA         17.1580   34.6520    8.2540 C.3       8 GLP5        0.0000 
     48 CA         19.4080   32.1365   11.5200 C.3       4 GLC5        0.0000 
     49 CA         20.8360   33.5990   10.9330 C.3       8 GLP5        0.0000 
     50 CA         20.1463   32.0005   13.6425 C.3       4 GLC5        0.0000 
     51 CA         20.9610   29.9850   12.8660 C.3      12 GLL5        0.0000 
     52 CA         20.0100   34.0680   14.2820 C.3       8 GLP5        0.0000 
     53 CA         20.8605   27.6885   16.2598 C.3       4 GLC5        0.0000 
     54 CA         20.1620   29.3210   15.4300 C.3      12 GLL5        0.0000 
     55 CA         20.8840   26.0030   17.2330 C.3       8 GLP5        0.0000 
     56 CA         20.4150   30.2606   16.6891 C.3       4 GLC5        0.0000 
     57 CA         21.5120   29.4270   15.1430 C.3      12 GLL5        0.0000 
     58 CA         20.2260   31.0890   18.3460 C.3       8 GLP5        0.0000 
     59 CA         22.6755   31.1088   15.1165 C.3       4 GLC5        0.0000 
     60 CA         23.6380   32.6240   15.7330 C.3       8 GLP5        0.0000 
     61 CA         21.7006   31.2112   12.0970 C.3       4 GLC5        0.0000 
     62 CA         21.9140   29.7600   13.8570 C.3      12 GLL5        0.0000 
     63 CA         22.3030   32.5760   10.7640 C.3       8 GLP5        0.0000 
     64 CA         22.8023   28.7672   12.6418 C.3       4 GLC5        0.0000 
     65 CA         24.1670   27.6620   11.9220 C.3       8 GLP5        0.0000 
     66 CA         22.5820   28.7990    9.7570 C.3       4 GLC5        0.0000 
     67 CA         20.3630   28.5880    9.4140 C.3      12 GLL5        0.0000 
     68 CA         24.4210   29.5500   10.3220 C.3       8 GLP5        0.0000 
     69 CA         21.0660   26.3595    6.9808 C.3       4 GLC5        0.0000 
     70 CA         20.5090   25.1590    5.4910 C.3       8 GLP5        0.0000 
     71 CA         23.3225   28.8972    9.0150 C.3       4 GLC5        0.0000 
     72 CA         22.3250   28.8770    7.4450 C.3      12 GLL5        0.0000 
     73 CA         21.6960   31.2328    9.5685 C.3       4 GLC5        0.0000 
     74 CA         21.5720   29.9490    7.8960 C.3      12 GLL5        0.0000 
     75 CA         19.8755   31.4997    7.7160 C.3       4 GLC5        0.0000 
     76 CA         20.6060   29.8300    8.8500 C.3      12 GLL5        0.0000 
     77 CA         22.7550   29.7197    9.3475 C.3       4 GLC5        0.0000 
     78 CA         22.9222   32.1857    3.2177 C.3       4 GLC5        0.0000 
     79 CA         21.2730   32.7920    3.0270 C.3       8 GLP5        0.0000 
     80 CA         20.3866   29.3009    6.7390 C.3       4 GLC5        0.0000 
@<TRIPOS>BOND
@<TRIPOS>SUBSTRUCTURE
     1 ALC1        7 GROUP        1 X    ALC  0     ROOT ALC X 1
     2 SEC2        4 GROUP        1 X    SEC  0     **** SEC X 2
     3 ASC3       29 GROUP        1 X    ASC  0     **** ASC X 3
     4 GLC5        1 GROUP        1 X    GLC  0     **** GLC X 6
     5 ALP1        9 GROUP        1 Y    ALP  0     ROOT ALP Y 8
     6 SEP2        6 GROUP        1 Y    SEP  0     **** SEP Y 9
     7 ASP3       31 GROUP        1 Y    ASP  0     **** ASP Y 10
     8 GLP5        3 GROUP        1 Y    GLP  0     **** GLP Y 13
     9 ALL1        8 GROUP        1 Z    ALL  0     ROOT ALL Z 15
    10 SEL2        5 GROUP        1 Z    SEL  0     **** SEL Z 16
    11 ASL3       30 GROUP        1 Z    ASL  0     **** ASL Z 17
    12 GLL5        2 GROUP        1 Z    GLL  0     **** GLL Z 20
@<TRIPOS>SET

