#    Name: 1qkn_RAL_1_ligand
#    Modification time : Mon Mar 24 23:37:15 2014

@<TRIPOS>MOLECULE
1qkn_RAL_1_ligand
   62    66     1     0     0
SMALL
NO_CHARGES


@<TRIPOS>ATOM
      1 C1         16.9310   29.5250    8.7290 C.ar      1 RAL600      0.0000 
      2 C2         15.8390   30.1280    8.1030 C.ar      1 RAL600      0.0000 
      3 C3         15.1550   31.1320    8.7770 C.ar      1 RAL600      0.0000 
      4 O3         14.0660   31.7180    8.1660 O.3       1 RAL600      0.0000 
      5 C4         15.5780   31.5290   10.0650 C.ar      1 RAL600      0.0000 
      6 C5         16.6460   30.9470   10.6570 C.ar      1 RAL600      0.0000 
      7 S6         17.3610   31.2370   12.1470 S.3       1 RAL600      0.0000 
      8 C7         18.5990   30.1110   12.0670 C.2       1 RAL600      0.0000 
      9 C8         19.6040   29.8810   13.1400 C.ar      1 RAL600      0.0000 
     10 C9         19.2300   29.5540   14.4130 C.ar      1 RAL600      0.0000 
     11 C10        20.1620   29.3210   15.4300 C.ar      1 RAL600      0.0000 
     12 C11        21.5120   29.4270   15.1430 C.ar      1 RAL600      0.0000 
     13 O11        22.4470   29.2040   16.1390 O.3       1 RAL600      0.0000 
     14 C12        21.9140   29.7600   13.8570 C.ar      1 RAL600      0.0000 
     15 C13        20.9610   29.9850   12.8660 C.ar      1 RAL600      0.0000 
     16 C14        17.3510   29.9080    9.9890 C.ar      1 RAL600      0.0000 
     17 C15        18.4770   29.4450   10.8130 C.2       1 RAL600      0.0000 
     18 C16        19.3470   28.4220   10.4480 C.2       1 RAL600      0.0000 
     19 O16        19.2450   27.3330   11.0420 O.2       1 RAL600      0.0000 
     20 C17        20.3630   28.5880    9.4140 C.ar      1 RAL600      0.0000 
     21 C18        21.1230   27.5080    8.9700 C.ar      1 RAL600      0.0000 
     22 C19        22.1230   27.6120    7.9710 C.ar      1 RAL600      0.0000 
     23 C20        22.3250   28.8770    7.4450 C.ar      1 RAL600      0.0000 
     24 C21        21.5720   29.9490    7.8960 C.ar      1 RAL600      0.0000 
     25 C22        20.6060   29.8300    8.8500 C.ar      1 RAL600      0.0000 
     26 O23        23.2300   29.2790    6.4660 O.3       1 RAL600      0.0000 
     27 C24        23.4640   28.3530    5.4320 C.3       1 RAL600      0.0000 
     28 C25        24.7760   28.7900    4.7940 C.3       1 RAL600      0.0000 
     29 N26        24.7430   29.7120    3.6430 N.4       1 RAL600      0.0000 
     30 C27        26.0710   29.5940    2.9850 C.3       1 RAL600      0.0000 
     31 C28        26.1790   30.4500    1.7240 C.3       1 RAL600      0.0000 
     32 C29        25.9590   31.9320    2.0940 C.3       1 RAL600      0.0000 
     33 C30        24.6040   32.0420    2.7970 C.3       1 RAL600      0.0000 
     34 C31        24.5390   31.1170    4.0200 C.3       1 RAL600      0.0000 
     35 H          17.4395   28.7664    8.2284 H         1 RAL600      0.0000 
     36 H          15.5516   29.8358    7.1707 H         1 RAL600      0.0000 
     37 H          15.0442   32.2804   10.5424 H         1 RAL600      0.0000 
     38 H          18.2131   29.4715   14.6495 H         1 RAL600      0.0000 
     39 H          19.8438   29.0763   16.3695 H         1 RAL600      0.0000 
     40 H          22.9143   29.8412   13.6334 H         1 RAL600      0.0000 
     41 H          21.2721   30.2338   11.9099 H         1 RAL600      0.0000 
     42 H          20.9534   26.5629    9.3917 H         1 RAL600      0.0000 
     43 H          22.6410   26.8134    7.6757 H         1 RAL600      0.0000 
     44 H          21.7624   30.8978    7.4755 H         1 RAL600      0.0000 
     45 H          20.0588   30.6454    9.1544 H         1 RAL600      0.0000 
     46 H          22.6982   28.3776    4.6692 H         1 RAL600      0.0000 
     47 H          23.5913   27.3434    5.7974 H         1 RAL600      0.0000 
     48 H          25.3427   27.8528    4.5066 H         1 RAL600      0.0000 
     49 H          25.4197   29.2356    5.6120 H         1 RAL600      0.0000 
     50 H          23.9933   29.3938    2.9413 H         1 RAL600      0.0000 
     51 H          26.2646   28.5455    2.7111 H         1 RAL600      0.0000 
     52 H          26.8661   29.9001    3.6822 H         1 RAL600      0.0000 
     53 H          25.4227   30.1480    1.0139 H         1 RAL600      0.0000 
     54 H          27.1626   30.3371    1.2912 H         1 RAL600      0.0000 
     55 H          25.9508   32.5226    1.1969 H         1 RAL600      0.0000 
     56 H          26.7396   32.2494    2.7600 H         1 RAL600      0.0000 
     57 H          23.8139   31.7673    2.0999 H         1 RAL600      0.0000 
     58 H          24.4485   33.0704    3.1192 H         1 RAL600      0.0000 
     59 H          25.3061   31.4425    4.7344 H         1 RAL600      0.0000 
     60 H          23.5602   31.2525    4.4978 H         1 RAL600      0.0000 
     61 H          14.3492   31.8650    7.2183 H         1 RAL600      0.0000 
     62 H          22.9181   28.3645   15.8683 H         1 RAL600      0.0000 
@<TRIPOS>BOND
     1    2    1 ar   
     2   16    1 ar   
     3   35    1 1    
     4    3    2 ar   
     5   36    2 1    
     6    4    3 1    
     7    5    3 ar   
     8   61    4 1    
     9    6    5 ar   
    10   37    5 1    
    11    7    6 1    
    12   16    6 ar   
    13    8    7 1    
    14    9    8 1    
    15   17    8 2    
    16   10    9 ar   
    17   15    9 ar   
    18   11   10 ar   
    19   38   10 1    
    20   12   11 ar   
    21   39   11 1    
    22   13   12 1    
    23   14   12 ar   
    24   62   13 1    
    25   15   14 ar   
    26   40   14 1    
    27   41   15 1    
    28   17   16 1    
    29   18   17 1    
    30   19   18 2    
    31   20   18 1    
    32   21   20 ar   
    33   25   20 ar   
    34   22   21 ar   
    35   42   21 1    
    36   23   22 ar   
    37   43   22 1    
    38   24   23 ar   
    39   26   23 1    
    40   25   24 ar   
    41   44   24 1    
    42   45   25 1    
    43   27   26 1    
    44   28   27 1    
    45   46   27 1    
    46   47   27 1    
    47   29   28 1    
    48   48   28 1    
    49   49   28 1    
    50   30   29 1    
    51   34   29 1    
    52   50   29 1    
    53   31   30 1    
    54   51   30 1    
    55   52   30 1    
    56   32   31 1    
    57   53   31 1    
    58   54   31 1    
    59   33   32 1    
    60   55   32 1    
    61   56   32 1    
    62   34   33 1    
    63   57   33 1    
    64   58   33 1    
    65   59   34 1    
    66   60   34 1    
@<TRIPOS>SUBSTRUCTURE
     1 RAL600      1 GROUP   
@<TRIPOS>SET

