#    Name: 1e7c_HLT_2_INTS_M
#    Modification time : Mon Mar 24 23:11:34 2014

@<TRIPOS>MOLECULE
1e7c_HLT_2_INTS_M
   19     0     3     0     0
SMALL
NO_CHARGES


@<TRIPOS>ATOM
      1 CA         23.4685    5.1780   -1.3580 C.3       1 GLC5        0.0000 
      2 CA         22.4940    4.2990   -2.9160 C.3       3 GLL5        0.0000 
      3 CA         24.4430    6.0570    0.2000 C.3       2 GLP5        0.0000 
      4 CA         19.5620    5.7370   -2.8250 C.3       1 GLC5        0.0000 
      5 CA         20.3810    3.9850   -2.8900 C.3       3 GLL5        0.0000 
      6 CA         18.7430    7.4890   -2.7600 C.3       2 GLP5        0.0000 
      7 CA         18.4155    3.8260   -2.7675 C.3       1 GLC5        0.0000 
      8 CA         16.4500    3.6670   -2.6450 C.3       2 GLP5        0.0000 
      9 CA         19.5500    5.2660    1.0750 C.3       1 GLC5        0.0000 
     10 CA         19.7700    3.8330   -0.3580 C.3       3 GLL5        0.0000 
     11 CA         19.3300    6.6990    2.5080 C.3       2 GLP5        0.0000 
     12 CA         19.2565    5.6610   -1.5590 C.3       1 GLC5        0.0000 
     13 CA         18.0170    3.4415   -0.8085 C.3       1 GLC5        0.0000 
     14 CA         16.2640    3.0500   -1.2590 C.3       2 GLP5        0.0000 
     15 CA         24.0020    2.2815    1.1335 C.3       1 GLC5        0.0000 
     16 CA         22.2990    2.2740   -0.1950 C.3       3 GLL5        0.0000 
     17 CA         25.7050    2.2890    2.4620 C.3       2 GLP5        0.0000 
     18 CA         23.1840    4.5225   -0.1785 C.3       1 GLC5        0.0000 
     19 CA         21.5510    3.7020   -0.9190 C.3       3 GLL5        0.0000 
@<TRIPOS>BOND
@<TRIPOS>SUBSTRUCTURE
     1 GLC5        1 GROUP        1 X    GLC  0     ROOT GLC X 6
     2 GLP5        3 GROUP        1 Y    GLP  0     ROOT GLP Y 13
     3 GLL5        2 GROUP        1 Z    GLL  0     ROOT GLL Z 20
@<TRIPOS>SET

