#    Name: 1e7c_HLT_2_ligand
#    Modification time : Mon Mar 24 23:11:34 2014

@<TRIPOS>MOLECULE
1e7c_HLT_2_ligand
    8     7     1     0     0
SMALL
NO_CHARGES


@<TRIPOS>ATOM
      1 F1         22.4940    4.2990   -2.9160 F         1 HLT4002     0.0000 
      2 C2         21.5440    3.5640   -2.4170 C.3       1 HLT4002     0.0000 
      3 F2         20.3810    3.9850   -2.8900 F         1 HLT4002     0.0000 
      4 F3         21.7300    2.2830   -2.7520 F         1 HLT4002     0.0000 
      5 C1         21.5510    3.7020   -0.9190 C.3       1 HLT4002     0.0000 
      6 BR         19.7700    3.8330   -0.3580 Br        1 HLT4002     0.0000 
      7 CL         22.2990    2.2740   -0.1950 Cl        1 HLT4002     0.0000 
      8 H          21.9999    4.5272   -0.5391 H         1 HLT4002     0.0000 
@<TRIPOS>BOND
     1    2    1 1    
     2    3    2 1    
     3    4    2 1    
     4    5    2 1    
     5    6    5 1    
     6    7    5 1    
     7    8    5 1    
@<TRIPOS>SUBSTRUCTURE
     1 HLT4002     1 GROUP   
@<TRIPOS>SET

