#    Name: 2f4b_EHA_1_INTS_M
#    Modification time : Tue Mar 25 12:19:07 2014

@<TRIPOS>MOLECULE
2f4b_EHA_1_INTS_M
  109     0     6     0     0
SMALL
NO_CHARGES


@<TRIPOS>ATOM
      1 CA          8.5580   -7.8410   46.4700 C.3       2 GLC5        0.0000 
      2 CA          6.5930   -7.4170   47.0180 C.3       6 GLL5        0.0000 
      3 CA         10.5230   -8.2650   45.9220 C.3       4 GLP5        0.0000 
      4 CA          6.1755  -10.4705   46.1865 C.3       2 GLC5        0.0000 
      5 CA          6.1360   -8.2560   46.0120 C.3       6 GLL5        0.0000 
      6 CA          6.2150  -12.6850   46.3610 C.3       4 GLP5        0.0000 
      7 CA          5.5595   -8.4660   42.9305 C.3       2 GLC5        0.0000 
      8 CA          5.6790   -7.7360   44.8000 C.3       6 GLL5        0.0000 
      9 CA          5.4400   -9.1960   41.0610 C.3       4 GLP5        0.0000 
     10 CA          8.4835   -4.3220   44.4460 C.3       2 GLC5        0.0000 
     11 CA          7.4820   -4.8710   42.5360 C.3       6 GLL5        0.0000 
     12 CA          9.4850   -3.7730   46.3560 C.3       4 GLP5        0.0000 
     13 CA          6.1560   -3.5380   37.2920 C.3       2 GLC5        0.0000 
     14 CA          8.2620   -3.1950   37.8640 C.3       6 GLL5        0.0000 
     15 CA          4.0500   -3.8810   36.7200 C.3       4 GLP5        0.0000 
     16 CA          8.8575   -1.5305   36.9870 C.3       2 GLC5        0.0000 
     17 CA          9.4530    0.1340   36.1100 C.3       4 GLP5        0.0000 
     18 CA          6.1490   -3.9280   36.0680 C.3       2 GLC5        0.0000 
     19 CA          8.2480   -3.9750   35.4160 C.3       6 GLL5        0.0000 
     20 CA          8.3710   -3.5350   33.2445 C.3       2 GLC5        0.0000 
     21 CA          8.4940   -3.0950   31.0730 C.3       4 GLP5        0.0000 
     22 CA          8.8505   -1.9205   35.7630 C.3       2 GLC5        0.0000 
     23 CA         10.4370   -5.8145   42.7535 C.3       2 GLC5        0.0000 
     24 CA          9.6710   -4.0430   41.9460 C.3       6 GLL5        0.0000 
     25 CA         11.2030   -7.5860   43.5610 C.3       4 GLP5        0.0000 
     26 CA         10.3685   -3.8140   43.7425 C.3       2 GLC5        0.0000 
     27 CA         11.0660   -3.5850   45.5390 C.3       4 GLP5        0.0000 
     28 CA         12.2295   -3.9070   42.2560 C.3       2 GLC5        0.0000 
     29 CA         10.5390   -3.4930   40.9990 C.3       6 GLL5        0.0000 
     30 CA         13.9200   -4.3210   43.5130 C.3       4 GLP5        0.0000 
     31 CA         11.6335   -0.8855   40.2990 C.3       2 GLC5        0.0000 
     32 CA         12.2730   -2.2210   39.1350 C.3       6 GLL5        0.0000 
     33 CA         10.9940    0.4500   41.4630 C.3       4 GLP5        0.0000 
     34 CA         13.2055   -2.0570   41.0060 C.3       2 GLC5        0.0000 
     35 CA         14.1380   -1.8930   42.8770 C.3       4 GLP5        0.0000 
     36 CA         14.2865   -5.0500   34.5515 C.3       2 GLC5        0.0000 
     37 CA         12.6650   -5.3400   35.8150 C.3       6 GLL5        0.0000 
     38 CA         15.9080   -4.7600   33.2880 C.3       4 GLP5        0.0000 
     39 CA         11.5425   -3.1115   35.0015 C.3       2 GLC5        0.0000 
     40 CA         11.5940   -5.2790   34.9160 C.3       6 GLL5        0.0000 
     41 CA         11.4910   -0.9440   35.0870 C.3       4 GLP5        0.0000 
     42 CA         13.2855   -8.2080   38.3580 C.3       2 GLC5        0.0000 
     43 CA         12.3670   -8.9730   36.5120 C.3       6 GLL5        0.0000 
     44 CA         14.2040   -7.4430   40.2040 C.3       4 GLP5        0.0000 
     45 CA          9.3835   -8.7275   36.2545 C.3       2 GLC5        0.0000 
     46 CA          9.5460   -9.3370   34.3080 C.3       6 GLL5        0.0000 
     47 CA          9.2210   -8.1180   38.2010 C.3       4 GLP5        0.0000 
     48 CA          7.9180  -10.0120   35.1545 C.3       2 GLC5        0.0000 
     49 CA          6.2900  -10.6870   36.0010 C.3       4 GLP5        0.0000 
     50 CA          7.9915   -8.3695   33.5805 C.3       2 GLC5        0.0000 
     51 CA          6.4370   -7.4020   32.8530 C.3       4 GLP5        0.0000 
     52 N          11.7580  -10.0910   32.3135 N.am      1 SEC2        0.0000 
     53 N          10.3190  -10.4450   32.3270 N.am      5 SEL2        0.0000 
     54 N          13.1970   -9.7370   32.3000 N.am      3 SEP2        0.0000 
     55 N          11.0530  -10.4130   30.8410 N.am      1 SEC2        0.0000 
     56 N          11.7870  -10.3810   29.3550 N.am      3 SEP2        0.0000 
     57 CA          6.3585   -3.7860   45.8023 C.3       2 GLC5        0.0000 
     58 CA          6.1460   -5.5160   45.6100 C.3       6 GLL5        0.0000 
     59 CA          6.3430   -1.7920   45.3910 C.3       4 GLP5        0.0000 
     60 CA          7.9295   -4.7765   46.2848 C.3       2 GLC5        0.0000 
     61 CA          7.8643   -6.4992   48.1992 C.3       2 GLC5        0.0000 
     62 CA          6.6020   -6.0440   46.8170 C.3       6 GLL5        0.0000 
     63 CA          9.1310   -6.2680   49.4810 C.3       4 GLP5        0.0000 
     64 CA          5.8357   -7.2043   48.7298 C.3       2 GLC5        0.0000 
     65 CA          5.0740   -7.6780   50.5420 C.3       4 GLP5        0.0000 
     66 CA          7.7963   -8.8025   44.6880 C.3       2 GLC5        0.0000 
     67 CA          9.6850   -9.6090   43.9700 C.3       4 GLP5        0.0000 
     68 CA          5.6833   -7.1108   41.3042 C.3       2 GLC5        0.0000 
     69 CA          6.1570   -5.1650   42.1950 C.3       6 GLL5        0.0000 
     70 CA          7.0892   -3.0640   42.3898 C.3       2 GLC5        0.0000 
     71 CA          7.3590   -1.1100   42.4140 C.3       4 GLP5        0.0000 
     72 CA          6.9152   -6.2605   39.3540 C.3       2 GLC5        0.0000 
     73 CA          5.6960   -4.8860   40.9000 C.3       6 GLL5        0.0000 
     74 CA          7.7040   -7.9080   38.2820 C.3       4 GLP5        0.0000 
     75 CA          4.9923   -4.9695   38.8185 C.3       2 GLC5        0.0000 
     76 CA          6.5570   -4.3400   39.9520 C.3       6 GLL5        0.0000 
     77 CA          3.8580   -5.3260   37.2110 C.3       4 GLP5        0.0000 
     78 CA          6.7428   -2.8615   41.4200 C.3       2 GLC5        0.0000 
     79 CA          9.2535   -5.3392   39.4842 C.3       2 GLC5        0.0000 
     80 CA          7.8900   -4.0480   40.2840 C.3       6 GLL5        0.0000 
     81 CA         10.1850   -6.9060   39.1720 C.3       4 GLP5        0.0000 
     82 CA          7.8405   -2.4413   41.1052 C.3       2 GLC5        0.0000 
     83 CA          8.7540   -3.4970   39.3090 C.3       6 GLL5        0.0000 
     84 CA          9.2895   -5.3405   38.2732 C.3       2 GLC5        0.0000 
     85 CA          9.5970   -5.5442   40.4695 C.3       2 GLC5        0.0000 
     86 CA          8.3470   -4.3220   41.5880 C.3       6 GLL5        0.0000 
     87 CA          8.1840   -2.6463   42.0905 C.3       2 GLC5        0.0000 
     88 CA         10.2482   -5.1303   39.7608 C.3       2 GLC5        0.0000 
     89 CA         10.6528   -1.4522   40.9062 C.3       2 GLC5        0.0000 
     90 CA         10.0840   -3.2160   39.7000 C.3       6 GLL5        0.0000 
     91 CA          8.8352   -2.2323   41.3818 C.3       2 GLC5        0.0000 
     92 CA         14.2492   -2.7180   35.8983 C.3       2 GLC5        0.0000 
     93 CA         13.3760   -2.8120   38.2280 C.3       6 GLL5        0.0000 
     94 CA         15.4110   -2.4440   34.2490 C.3       4 GLP5        0.0000 
     95 CA         12.1514   -1.8941   36.4306 C.3       2 GLC5        0.0000 
     96 CA         12.7990   -3.1720   36.8670 C.3       6 GLL5        0.0000 
     97 CA         13.3104   -0.8491   37.5791 C.3       2 GLC5        0.0000 
     98 CA         13.8090    1.1460   37.3840 C.3       4 GLP5        0.0000 
     99 CA         13.7429   -4.2936   38.7581 C.3       2 GLC5        0.0000 
    100 CA         14.6740   -5.7430   39.7420 C.3       4 GLP5        0.0000 
    101 CA         11.5063   -6.4300   37.6375 C.3       2 GLC5        0.0000 
    102 CA         13.7508   -5.8485   37.9225 C.3       2 GLC5        0.0000 
    103 CA         12.9900   -6.5680   36.3910 C.3       6 GLL5        0.0000 
    104 CA         10.1175   -7.5765   36.5513 C.3       2 GLC5        0.0000 
    105 CA         11.1780   -7.6470   35.2000 C.3       6 GLL5        0.0000 
    106 CA         14.4612   -8.2200   36.9193 C.3       2 GLC5        0.0000 
    107 CA         16.4290   -8.3830   37.4600 C.3       4 GLP5        0.0000 
    108 CA         10.5409   -8.5691   37.1561 C.3       2 GLC5        0.0000 
    109 CA         12.2500   -7.7140   36.0990 C.3       6 GLL5        0.0000 
@<TRIPOS>BOND
@<TRIPOS>SUBSTRUCTURE
     1 SEC2       52 GROUP        1 X    SEC  0     ROOT SEC X 2
     2 GLC5        1 GROUP        1 X    GLC  0     **** GLC X 6
     3 SEP2       54 GROUP        1 Y    SEP  0     ROOT SEP Y 9
     4 GLP5        3 GROUP        1 Y    GLP  0     **** GLP Y 13
     5 SEL2       53 GROUP        1 Z    SEL  0     ROOT SEL Z 16
     6 GLL5        2 GROUP        1 Z    GLL  0     **** GLL Z 20
@<TRIPOS>SET

