#    Name: 2f4b_EHA_1_ligand
#    Modification time : Tue Mar 25 12:19:07 2014

@<TRIPOS>MOLECULE
2f4b_EHA_1_ligand
   69    73     1     0     0
SMALL
NO_CHARGES


@<TRIPOS>ATOM
      1 CAN         6.1460   -5.5160   45.6100 C.ar      1 EHA201      0.0000 
      2 CAO         6.6020   -6.0440   46.8170 C.ar      1 EHA201      0.0000 
      3 CAP         6.5930   -7.4170   47.0180 C.ar      1 EHA201      0.0000 
      4 CAQ         6.1360   -8.2560   46.0120 C.ar      1 EHA201      0.0000 
      5 CAR         5.6790   -7.7360   44.8000 C.ar      1 EHA201      0.0000 
      6 CAL         5.6900   -6.3550   44.5850 C.ar      1 EHA201      0.0000 
      7 CAK         5.1730   -5.7420   43.2430 C.2       1 EHA201      0.0000 
      8 OAM         3.9520   -5.6540   43.0390 O.2       1 EHA201      0.0000 
      9 CAH         6.1570   -5.1650   42.1950 C.ar      1 EHA201      0.0000 
     10 CAG         7.4820   -4.8710   42.5360 C.ar      1 EHA201      0.0000 
     11 CAI         5.6960   -4.8860   40.9000 C.ar      1 EHA201      0.0000 
     12 CAJ         6.5570   -4.3400   39.9520 C.ar      1 EHA201      0.0000 
     13 CAD         7.8900   -4.0480   40.2840 C.ar      1 EHA201      0.0000 
     14 CAE         8.7540   -3.4970   39.3090 C.ar      1 EHA201      0.0000 
     15 CBK         8.2620   -3.1950   37.8640 C.3       1 EHA201      0.0000 
     16 CBL         8.5260   -4.3550   36.8850 C.3       1 EHA201      0.0000 
     17 CBM         8.2480   -3.9750   35.4160 C.3       1 EHA201      0.0000 
     18 CAC         8.3470   -4.3220   41.5880 C.ar      1 EHA201      0.0000 
     19 CAB         9.6710   -4.0430   41.9460 C.ar      1 EHA201      0.0000 
     20 CAA        10.5390   -3.4930   40.9990 C.ar      1 EHA201      0.0000 
     21 CAF        10.0840   -3.2160   39.7000 C.ar      1 EHA201      0.0000 
     22 OBJ        10.9270   -2.6880   38.7620 O.3       1 EHA201      0.0000 
     23 CBI        12.2730   -2.2210   39.1350 C.3       1 EHA201      0.0000 
     24 CBH        13.3760   -2.8120   38.2280 C.3       1 EHA201      0.0000 
     25 CBG        12.7990   -3.1720   36.8670 C.3       1 EHA201      0.0000 
     26 OBF        13.4340   -4.2450   36.1510 O.3       1 EHA201      0.0000 
     27 CAS        12.6650   -5.3400   35.8150 C.ar      1 EHA201      0.0000 
     28 CAX        12.9900   -6.5680   36.3910 C.ar      1 EHA201      0.0000 
     29 CAT        11.5940   -5.2790   34.9160 C.ar      1 EHA201      0.0000 
     30 CAU        10.8500   -6.4230   34.6030 C.ar      1 EHA201      0.0000 
     31 CAV        11.1780   -7.6470   35.2000 C.ar      1 EHA201      0.0000 
     32 CAW        12.2500   -7.7140   36.0990 C.ar      1 EHA201      0.0000 
     33 CBA        12.3670   -8.9730   36.5120 C.2       1 EHA201      0.0000 
     34 CAZ        11.4130   -9.6970   35.9170 C.2       1 EHA201      0.0000 
     35 N          10.6980   -8.8940   35.1220 N.pl3     1 EHA201      0.0000 
     36 CA          9.5460   -9.3370   34.3080 C.3       1 EHA201      0.0000 
     37 C           9.8250  -10.6020   33.4770 C.2       1 EHA201      0.0000 
     38 O           9.5090  -11.7010   34.0060 O.co2     1 EHA201      0.0000 
     39 OXT        10.3190  -10.4450   32.3270 O.co2     1 EHA201      0.0000 
     40 H           6.1431   -4.4939   45.4668 H         1 EHA201      0.0000 
     41 H           6.9434   -5.4155   47.5543 H         1 EHA201      0.0000 
     42 H           6.9232   -7.8103   47.9076 H         1 EHA201      0.0000 
     43 H           6.1324   -9.2792   46.1582 H         1 EHA201      0.0000 
     44 H           5.3352   -8.3661   44.0672 H         1 EHA201      0.0000 
     45 H           7.8180   -5.0606   43.4886 H         1 EHA201      0.0000 
     46 H           4.7185   -5.0870   40.6547 H         1 EHA201      0.0000 
     47 H           6.2193   -4.1469   38.9991 H         1 EHA201      0.0000 
     48 H           8.7711   -2.2972   37.5031 H         1 EHA201      0.0000 
     49 H           7.1885   -2.9900   37.8971 H         1 EHA201      0.0000 
     50 H           7.8904   -5.2032   37.1583 H         1 EHA201      0.0000 
     51 H           9.5704   -4.6691   36.9785 H         1 EHA201      0.0000 
     52 H           9.9997   -4.2405   42.8936 H         1 EHA201      0.0000 
     53 H          11.5131   -3.2898   41.2511 H         1 EHA201      0.0000 
     54 H          12.5069   -2.4997   40.1735 H         1 EHA201      0.0000 
     55 H          12.3358   -1.1244   39.0692 H         1 EHA201      0.0000 
     56 H          13.7795   -3.7004   38.7019 H         1 EHA201      0.0000 
     57 H          14.1631   -2.0751   38.1094 H         1 EHA201      0.0000 
     58 H          12.7977   -2.2312   36.2464 H         1 EHA201      0.0000 
     59 H          11.7041   -3.3928   37.0174 H         1 EHA201      0.0000 
     60 H          13.7893   -6.6299   37.0425 H         1 EHA201      0.0000 
     61 H          11.3489   -4.3776   34.4773 H         1 EHA201      0.0000 
     62 H          10.0717   -6.3657   33.9426 H         1 EHA201      0.0000 
     63 H          13.0280   -9.3114   37.1362 H         1 EHA201      0.0000 
     64 H          11.2640  -10.6497   36.0418 H         1 EHA201      0.0000 
     65 H           9.2374   -8.5349   33.6122 H         1 EHA201      0.0000 
     66 H           8.6746   -9.5424   34.9570 H         1 EHA201      0.0000 
     67 H           8.8234   -3.2150   35.1137 H         1 EHA201      0.0000 
     68 H           8.4222   -4.7394   34.7953 H         1 EHA201      0.0000 
     69 H           7.2977   -3.6961   35.2780 H         1 EHA201      0.0000 
@<TRIPOS>BOND
     1    2    1 ar   
     2    6    1 ar   
     3   40    1 1    
     4    3    2 ar   
     5   41    2 1    
     6    4    3 ar   
     7   42    3 1    
     8    5    4 ar   
     9   43    4 1    
    10    6    5 ar   
    11   44    5 1    
    12    7    6 1    
    13    8    7 2    
    14    9    7 1    
    15   10    9 ar   
    16   11    9 ar   
    17   18   10 ar   
    18   45   10 1    
    19   12   11 ar   
    20   46   11 1    
    21   13   12 ar   
    22   47   12 1    
    23   14   13 ar   
    24   18   13 ar   
    25   15   14 1    
    26   21   14 ar   
    27   16   15 1    
    28   48   15 1    
    29   49   15 1    
    30   17   16 1    
    31   50   16 1    
    32   51   16 1    
    33   67   17 1    
    34   68   17 1    
    35   69   17 1    
    36   19   18 ar   
    37   20   19 ar   
    38   52   19 1    
    39   21   20 ar   
    40   53   20 1    
    41   22   21 1    
    42   23   22 1    
    43   24   23 1    
    44   54   23 1    
    45   55   23 1    
    46   25   24 1    
    47   56   24 1    
    48   57   24 1    
    49   26   25 1    
    50   58   25 1    
    51   59   25 1    
    52   27   26 1    
    53   28   27 ar   
    54   29   27 ar   
    55   32   28 ar   
    56   60   28 1    
    57   30   29 ar   
    58   61   29 1    
    59   31   30 ar   
    60   62   30 1    
    61   32   31 ar   
    62   35   31 1    
    63   33   32 1    
    64   34   33 2    
    65   63   33 1    
    66   35   34 1    
    67   64   34 1    
    68   36   35 1    
    69   37   36 1    
    70   65   36 1    
    71   66   36 1    
    72   38   37 ar   
    73   39   37 ar   
@<TRIPOS>SUBSTRUCTURE
     1 EHA201      1 GROUP   
@<TRIPOS>SET

