#    Name: 2pvl_P55_1_INTS_M
#    Modification time : Mon Mar 24 19:25:18 2014

@<TRIPOS>MOLECULE
2pvl_P55_1_INTS_M
   58     0     9     0     0
SMALL
NO_CHARGES


@<TRIPOS>ATOM
      1 N          18.9450   10.8340   20.2330 N.am      2 SEC2        0.0000 
      2 N          19.9040    9.4950   19.7460 N.am      8 SEL2        0.0000 
      3 N          17.9860   12.1730   20.7200 N.am      5 SEP2        0.0000 
      4 CA         21.2365    6.4815   18.0400 C.3       3 GLC5        0.0000 
      5 CA         21.4780    8.0190   19.2080 C.3       9 GLL5        0.0000 
      6 CA         20.9950    4.9440   16.8720 C.3       6 GLP5        0.0000 
      7 O          18.7175    9.2765   22.4855 O.2       1 ALC1        0.0000 
      8 O          19.9170    8.4610   22.3860 O.2       7 ALL1        0.0000 
      9 O          17.5180   10.0920   22.5850 O.2       4 ALP1        0.0000 
     10 CA         19.4090    6.1525   22.1540 C.3       3 GLC5        0.0000 
     11 CA         20.1590    6.8170   24.1280 C.3       9 GLL5        0.0000 
     12 CA         18.6590    5.4880   20.1800 C.3       6 GLP5        0.0000 
     13 CA         17.8180   10.0135   24.5755 C.3       3 GLC5        0.0000 
     14 CA         19.8850    9.1460   24.6640 C.3       9 GLL5        0.0000 
     15 CA         15.7510   10.8810   24.4870 C.3       6 GLP5        0.0000 
     16 CA         23.9290    6.2780   23.2730 C.3       3 GLC5        0.0000 
     17 CA         23.2550    4.8370   22.3190 C.3       9 GLL5        0.0000 
     18 CA         24.6030    7.7190   24.2270 C.3       6 GLP5        0.0000 
     19 CA         24.9065    4.2140   23.4580 C.3       3 GLC5        0.0000 
     20 CA         26.5580    3.5910   24.5970 C.3       6 GLP5        0.0000 
     21 CA         24.6035    6.2595   21.6935 C.3       3 GLC5        0.0000 
     22 CA         25.9520    7.6820   21.0680 C.3       6 GLP5        0.0000 
     23 CA         25.4185    5.2250   19.8920 C.3       3 GLC5        0.0000 
     24 CA         23.5200    4.5420   19.8170 C.3       9 GLL5        0.0000 
     25 CA         27.3170    5.9080   19.9670 C.3       6 GLP5        0.0000 
     26 CA         21.5720   -0.2805   20.0645 C.3       3 GLC5        0.0000 
     27 CA         22.4740    1.2450   21.3430 C.3       9 GLL5        0.0000 
     28 CA         20.6700   -1.8060   18.7860 C.3       6 GLP5        0.0000 
     29 CA         20.1480    0.0935   20.0490 C.3       3 GLC5        0.0000 
     30 CA         20.9450    1.2080   21.2520 C.3       9 GLL5        0.0000 
     31 CA         19.3510   -1.0210   18.8460 C.3       6 GLP5        0.0000 
     32 CA         19.6175    2.5185   20.5375 C.3       3 GLC5        0.0000 
     33 CA         18.2900    3.8290   19.8230 C.3       6 GLP5        0.0000 
     34 CA         23.1875    9.7125   17.9850 C.3       3 GLC5        0.0000 
     35 CA         21.8110    8.7640   16.7440 C.3       9 GLL5        0.0000 
     36 CA         24.5640   10.6610   19.2260 C.3       6 GLP5        0.0000 
     37 CA         20.7180    9.6560   15.3480 C.3       3 GLC5        0.0000 
     38 CA         19.6250   10.5480   13.9520 C.3       6 GLP5        0.0000 
     39 CA         22.5200   10.5200   15.9875 C.3       3 GLC5        0.0000 
     40 CA         23.2290   12.2760   15.2310 C.3       6 GLP5        0.0000 
     41 CA         21.9463    9.9582   19.5332 C.3       3 GLC5        0.0000 
     42 CA         21.1950    8.8240   18.0370 C.3       9 GLL5        0.0000 
     43 CA         22.5560   11.4950   20.4440 C.3       6 GLP5        0.0000 
     44 CA         19.6997    7.3812   18.6593 C.3       3 GLC5        0.0000 
     45 CA         18.0630    6.3410   18.6960 C.3       6 GLP5        0.0000 
     46 CA         20.3250    7.8100   16.3197 C.3       3 GLC5        0.0000 
     47 CA         19.1470    6.8260   15.2490 C.3       6 GLP5        0.0000 
     48 CA         21.7467    8.5972   25.2533 C.3       3 GLC5        0.0000 
     49 CA         20.0020    8.1390   23.7050 C.3       9 GLL5        0.0000 
     50 CA         23.5500    8.5520   26.3220 C.3       6 GLP5        0.0000 
     51 CA         22.0770    6.9910   25.1835 C.3       3 GLC5        0.0000 
     52 CA         24.0110    7.3310   25.5630 C.3       6 GLP5        0.0000 
     53 CA         18.3849    6.7193   23.8161 C.3       3 GLC5        0.0000 
     54 CA         20.1270    6.4850   25.4800 C.3       9 GLL5        0.0000 
     55 CA         16.6660    6.4570   22.9340 C.3       6 GLP5        0.0000 
     56 CA         21.7228    8.3528   26.2740 C.3       3 GLC5        0.0000 
     57 CA         19.9420    7.4890   26.4320 C.3       9 GLL5        0.0000 
     58 CA         22.0855    4.4035   18.3777 C.3       3 GLC5        0.0000 
@<TRIPOS>BOND
@<TRIPOS>SUBSTRUCTURE
     1 ALC1        7 GROUP        1 X    ALC  0     ROOT ALC X 1
     2 SEC2        1 GROUP        1 X    SEC  0     **** SEC X 2
     3 GLC5        4 GROUP        1 X    GLC  0     **** GLC X 6
     4 ALP1        9 GROUP        1 Y    ALP  0     ROOT ALP Y 8
     5 SEP2        3 GROUP        1 Y    SEP  0     **** SEP Y 9
     6 GLP5        6 GROUP        1 Y    GLP  0     **** GLP Y 13
     7 ALL1        8 GROUP        1 Z    ALL  0     ROOT ALL Z 15
     8 SEL2        2 GROUP        1 Z    SEL  0     **** SEL Z 16
     9 GLL5        5 GROUP        1 Z    GLL  0     **** GLL Z 20
@<TRIPOS>SET

