#    Name: 2pvl_P55_1_ligand
#    Modification time : Mon Mar 24 19:25:18 2014

@<TRIPOS>MOLECULE
2pvl_P55_1_ligand
   47    50     1     0     0
SMALL
NO_CHARGES


@<TRIPOS>ATOM
      1 N01        19.9040    9.4950   19.7460 N.2       1 P55501      0.0000 
      2 C02        20.1960    9.7280   18.4440 C.2       1 P55501      0.0000 
      3 C03        21.1950    8.8240   18.0370 C.2       1 P55501      0.0000 
      4 C04        21.4780    8.0190   19.2080 C.2       1 P55501      0.0000 
      5 N05        20.6740    8.4740   20.2140 N.pl3     1 P55501      0.0000 
      6 N06        22.3180    7.0010   19.4520 N.2       1 P55501      0.0000 
      7 C07        22.3100    6.4970   20.6840 C.2       1 P55501      0.0000 
      8 N08        21.5420    6.9320   21.6780 N.2       1 P55501      0.0000 
      9 C09        20.7160    7.9390   21.4220 C.2       1 P55501      0.0000 
     10 N10        19.9170    8.4610   22.3860 N.pl3     1 P55501      0.0000 
     11 C11        20.0020    8.1390   23.7050 C.ar      1 P55501      0.0000 
     12 C12        20.1590    6.8170   24.1280 C.ar      1 P55501      0.0000 
     13 C13        20.1270    6.4850   25.4800 C.ar      1 P55501      0.0000 
     14 C14        19.9420    7.4890   26.4320 C.ar      1 P55501      0.0000 
     15 C15        19.8490    8.8180   26.0200 C.ar      1 P55501      0.0000 
     16 C16        19.8850    9.1460   24.6640 C.ar      1 P55501      0.0000 
     17 N17        23.1660    5.4020   20.9610 N.3       1 P55501      0.0000 
     18 C18        23.2550    4.8370   22.3190 C.3       1 P55501      0.0000 
     19 C19        22.5450    3.4810   22.4110 C.3       1 P55501      0.0000 
     20 N20        22.9970    2.6210   21.3000 N.4       1 P55501      0.0000 
     21 C21        22.8320    3.1840   19.9500 C.3       1 P55501      0.0000 
     22 C22        23.5200    4.5420   19.8170 C.3       1 P55501      0.0000 
     23 C23        22.4740    1.2450   21.3430 C.3       1 P55501      0.0000 
     24 C24        20.9450    1.2080   21.2520 C.3       1 P55501      0.0000 
     25 C25        21.8110    8.7640   16.7440 C.1       1 P55501      0.0000 
     26 N26        22.3100    8.8090   15.6980 N.1       1 P55501      0.0000 
     27 H          19.8068   10.3872   17.8722 H         1 P55501      0.0000 
     28 H          19.1741    9.1693   22.0927 H         1 P55501      0.0000 
     29 H          20.3014    6.0729   23.4230 H         1 P55501      0.0000 
     30 H          20.2384    5.5108   25.7756 H         1 P55501      0.0000 
     31 H          19.8752    7.2508   27.4251 H         1 P55501      0.0000 
     32 H          19.7527    9.5657   26.7235 H         1 P55501      0.0000 
     33 H          19.8254   10.1285   24.3719 H         1 P55501      0.0000 
     34 H          22.7952    5.5145   23.0494 H         1 P55501      0.0000 
     35 H          24.3035    4.6949   22.6096 H         1 P55501      0.0000 
     36 H          21.4724    3.6497   22.3562 H         1 P55501      0.0000 
     37 H          22.7868    3.0303   23.3704 H         1 P55501      0.0000 
     38 H          24.1406    2.5032   21.4361 H         1 P55501      0.0000 
     39 H          21.7667    3.3132   19.7144 H         1 P55501      0.0000 
     40 H          23.2572    2.5073   19.1961 H         1 P55501      0.0000 
     41 H          24.5988    4.3806   19.7764 H         1 P55501      0.0000 
     42 H          23.2024    5.0002   18.8785 H         1 P55501      0.0000 
     43 H          22.7735    0.7479   22.2772 H         1 P55501      0.0000 
     44 H          22.8810    0.6519   20.5111 H         1 P55501      0.0000 
     45 H          20.6136    1.6155   20.4011 H         1 P55501      0.0000 
     46 H          20.5935    0.2724   21.2852 H         1 P55501      0.0000 
     47 H          20.5160    1.7092   22.0035 H         1 P55501      0.0000 
@<TRIPOS>BOND
     1    2    1 2    
     2    5    1 1    
     3    3    2 1    
     4   27    2 1    
     5    4    3 2    
     6   25    3 1    
     7    5    4 1    
     8    6    4 1    
     9    9    5 1    
    10    7    6 2    
    11    8    7 1    
    12   17    7 1    
    13    9    8 2    
    14   10    9 1    
    15   11   10 1    
    16   28   10 1    
    17   12   11 ar   
    18   16   11 ar   
    19   13   12 ar   
    20   29   12 1    
    21   14   13 ar   
    22   30   13 1    
    23   15   14 ar   
    24   31   14 1    
    25   16   15 ar   
    26   32   15 1    
    27   33   16 1    
    28   18   17 1    
    29   22   17 1    
    30   19   18 1    
    31   34   18 1    
    32   35   18 1    
    33   20   19 1    
    34   36   19 1    
    35   37   19 1    
    36   21   20 1    
    37   23   20 1    
    38   38   20 1    
    39   22   21 1    
    40   39   21 1    
    41   40   21 1    
    42   41   22 1    
    43   42   22 1    
    44   24   23 1    
    45   43   23 1    
    46   44   23 1    
    47   45   24 1    
    48   46   24 1    
    49   47   24 1    
    50   26   25 3    
@<TRIPOS>SUBSTRUCTURE
     1 P55501      1 GROUP   
@<TRIPOS>SET

