#    Name: 3kxm_K74_1_INTS_M
#    Modification time : Mon Mar 24 20:40:06 2014

@<TRIPOS>MOLECULE
3kxm_K74_1_INTS_M
   60     0     3     0     0
SMALL
NO_CHARGES


@<TRIPOS>ATOM
      1 CA         25.0780    5.6765   21.5640 C.3       1 GLC5        0.0000 
      2 CA         23.4110    4.2810   22.1340 C.3       3 GLL5        0.0000 
      3 CA         26.7450    7.0720   20.9940 C.3       2 GLP5        0.0000 
      4 CA         27.6225    0.4550   19.2795 C.3       1 GLC5        0.0000 
      5 CA         26.1620    1.3830   18.5640 C.3       3 GLL5        0.0000 
      6 CA         29.0830   -0.4730   19.9950 C.3       2 GLP5        0.0000 
      7 CA         25.7355    6.5440   18.2945 C.3       1 GLC5        0.0000 
      8 CA         24.4230    6.6160   16.9760 C.3       3 GLL5        0.0000 
      9 CA         27.0480    6.4720   19.6130 C.3       2 GLP5        0.0000 
     10 CA         26.0970    7.0085   16.0275 C.3       1 GLC5        0.0000 
     11 CA         27.7710    7.4010   15.0790 C.3       2 GLP5        0.0000 
     12 CA         22.7755    5.8015   16.9555 C.3       1 GLC5        0.0000 
     13 CA         21.1280    4.9870   16.9350 C.3       2 GLP5        0.0000 
     14 CA         23.5340   10.1010   17.6665 C.3       1 GLC5        0.0000 
     15 CA         22.6390    9.1470   16.0510 C.3       3 GLL5        0.0000 
     16 CA         24.4290   11.0550   19.2820 C.3       2 GLP5        0.0000 
     17 CA         21.3885    9.9100   14.9575 C.3       1 GLC5        0.0000 
     18 CA         20.1380   10.6730   13.8640 C.3       2 GLP5        0.0000 
     19 CA         23.8055   10.3050   15.4625 C.3       1 GLC5        0.0000 
     20 CA         24.9720   11.4630   14.8740 C.3       2 GLP5        0.0000 
     21 CA         20.9740    8.1425   15.6890 C.3       1 GLC5        0.0000 
     22 CA         19.3090    7.1380   15.3270 C.3       2 GLP5        0.0000 
     23 CA         20.1835   10.5375   15.8985 C.3       1 GLC5        0.0000 
     24 CA         20.2290   10.4020   17.9330 C.3       3 GLL5        0.0000 
     25 CA         18.4340   10.9415   18.0095 C.3       1 GLC5        0.0000 
     26 CA         16.6390   11.4810   18.0860 C.3       2 GLP5        0.0000 
     27 CA         21.1045   10.2565   21.1530 C.3       1 GLC5        0.0000 
     28 CA         19.6640    9.0610   20.9330 C.3       3 GLL5        0.0000 
     29 CA         22.5450   11.4520   21.3730 C.3       2 GLP5        0.0000 
     30 CA         18.1305   10.0700   20.2455 C.3       1 GLC5        0.0000 
     31 CA         16.5970   11.0790   19.5580 C.3       2 GLP5        0.0000 
     32 CA         18.2665    8.0300   21.9495 C.3       1 GLC5        0.0000 
     33 CA         16.8690    6.9990   22.9660 C.3       2 GLP5        0.0000 
     34 CA         22.5095    7.4215   23.3600 C.3       1 GLC5        0.0000 
     35 CA         21.0230    6.5200   22.5890 C.3       3 GLL5        0.0000 
     36 CA         23.9960    8.3230   24.1310 C.3       2 GLP5        0.0000 
     37 CA         18.9460    6.7595   22.7775 C.3       1 GLC5        0.0000 
     38 CA         19.8310    6.2195   21.3250 C.3       1 GLC5        0.0000 
     39 CA         18.6390    5.9190   20.0610 C.3       2 GLP5        0.0000 
     40 CA         23.5492    9.4535   18.6088 C.3       1 GLC5        0.0000 
     41 CA         23.0640    7.3130   18.1260 C.3       3 GLL5        0.0000 
     42 CA         20.4985    6.4345   19.9270 C.3       1 GLC5        0.0000 
     43 CA         22.8500    6.7160   19.3570 C.3       3 GLL5        0.0000 
     44 CA         24.0117    7.5486   20.1421 C.3       1 GLC5        0.0000 
     45 CA         21.8660    7.1840   20.2290 C.3       3 GLL5        0.0000 
     46 CA         25.6120    7.9980   20.7990 C.3       2 GLP5        0.0000 
     47 CA         21.9937    9.6090   20.6977 C.3       1 GLC5        0.0000 
     48 CA         21.2852    6.3765   18.4787 C.3       1 GLC5        0.0000 
     49 CA         21.0190    8.3480   19.8160 C.3       3 GLL5        0.0000 
     50 CA         19.4902    7.3117   20.2177 C.3       1 GLC5        0.0000 
     51 CA         21.5225   10.8890   19.1410 C.3       1 GLC5        0.0000 
     52 CA         21.2630    8.9180   18.5630 C.3       3 GLL5        0.0000 
     53 CA         22.2990   12.1180   20.0340 C.3       2 GLP5        0.0000 
     54 CA         19.4405    8.1015   18.3545 C.3       1 GLC5        0.0000 
     55 CA         18.1350    6.5430   18.4610 C.3       2 GLP5        0.0000 
     56 CA         20.0275    8.3990   16.7875 C.3       1 GLC5        0.0000 
     57 CA         21.8720    6.3449   17.5891 C.3       1 GLC5        0.0000 
     58 CA         22.2750    8.3910   17.7450 C.3       3 GLL5        0.0000 
     59 CA         24.8077    3.8940   23.0048 C.3       1 GLC5        0.0000 
     60 CA         26.0650    4.2170   24.3960 C.3       2 GLP5        0.0000 
@<TRIPOS>BOND
@<TRIPOS>SUBSTRUCTURE
     1 GLC5        1 GROUP        1 X    GLC  0     ROOT GLC X 6
     2 GLP5        3 GROUP        1 Y    GLP  0     ROOT GLP Y 13
     3 GLL5        2 GROUP        1 Z    GLL  0     ROOT GLL Z 20
@<TRIPOS>SET

