#    Name: 3kxm_K74_1_ligand
#    Modification time : Mon Mar 24 20:40:06 2014

@<TRIPOS>MOLECULE
3kxm_K74_1_ligand
   29    30     1     0     0
SMALL
NO_CHARGES


@<TRIPOS>ATOM
      1 C1         23.0640    7.3130   18.1260 C.ar      1 K741        0.0000 
      2 C2         22.8500    6.7160   19.3570 C.ar      1 K741        0.0000 
      3 C3         21.8660    7.1840   20.2290 C.ar      1 K741        0.0000 
      4 C4         21.0190    8.3480   19.8160 C.ar      1 K741        0.0000 
      5 C5         21.2630    8.9180   18.5630 C.ar      1 K741        0.0000 
      6 C6         22.2750    8.3910   17.7450 C.ar      1 K741        0.0000 
      7 N13        23.4650    5.6770   19.9340 N.2       1 K741        0.0000 
      8 C15        22.8510    5.5600   21.1100 C.2       1 K741        0.0000 
      9 N17        21.8670    6.4350   21.3630 N.pl3     1 K741        0.0000 
     10 S20        23.4110    4.2810   22.1340 S.3       1 K741        0.0000 
     11 C22        23.6900    2.8610   21.0930 C.3       1 K741        0.0000 
     12 C24        24.9420    2.8000   20.2060 C.2       1 K741        0.0000 
     13 N26        25.0660    1.6740   19.4780 N.am      1 K741        0.0000 
     14 O28        25.7700    3.6980   20.1560 O.2       1 K741        0.0000 
     15 C30        26.1620    1.3830   18.5640 C.3       1 K741        0.0000 
     16 BR32       24.4230    6.6160   16.9760 Br        1 K741        0.0000 
     17 BR34       22.6390    9.1470   16.0510 Br        1 K741        0.0000 
     18 BR36       20.2290   10.4020   17.9330 Br        1 K741        0.0000 
     19 BR38       19.6640    9.0610   20.9330 Br        1 K741        0.0000 
     20 C40        21.0230    6.5200   22.5890 C.3       1 K741        0.0000 
     21 H          22.7574    2.8085   20.4994 H         1 K741        0.0000 
     22 H          23.6494    2.0211   21.8125 H         1 K741        0.0000 
     23 H          24.3289    0.9117   19.5453 H         1 K741        0.0000 
     24 H          27.0452    1.3778   19.0329 H         1 K741        0.0000 
     25 H          26.0556    0.4887   18.1294 H         1 K741        0.0000 
     26 H          26.2236    2.0599   17.8305 H         1 K741        0.0000 
     27 H          21.2698    5.8199   23.2591 H         1 K741        0.0000 
     28 H          21.1159    7.4061   23.0431 H         1 K741        0.0000 
     29 H          20.0526    6.3975   22.3810 H         1 K741        0.0000 
@<TRIPOS>BOND
     1    2    1 ar   
     2    6    1 ar   
     3   16    1 1    
     4    3    2 ar   
     5    7    2 1    
     6    4    3 ar   
     7    9    3 1    
     8    5    4 ar   
     9   19    4 1    
    10    6    5 ar   
    11   18    5 1    
    12   17    6 1    
    13    8    7 2    
    14    9    8 1    
    15   10    8 1    
    16   20    9 1    
    17   11   10 1    
    18   12   11 1    
    19   21   11 1    
    20   22   11 1    
    21   13   12 am   
    22   14   12 2    
    23   15   13 1    
    24   23   13 1    
    25   24   15 1    
    26   25   15 1    
    27   26   15 1    
    28   27   20 1    
    29   28   20 1    
    30   29   20 1    
@<TRIPOS>SUBSTRUCTURE
     1 K741        1 GROUP   
@<TRIPOS>SET

