#    Name: 4itf_TFY_1_INTS_M
#    Modification time : Tue Mar 25 04:33:48 2014

@<TRIPOS>MOLECULE
4itf_TFY_1_INTS_M
  133     0     9     0     0
SMALL
NO_CHARGES


@<TRIPOS>ATOM
      1 N         -13.1145  -10.1860   29.0340 N.am      2 SEC2        0.0000 
      2 N         -13.2790   -8.9380   29.7270 N.am      8 SEL2        0.0000 
      3 N         -12.9500  -11.4340   28.3410 N.am      5 SEP2        0.0000 
      4 O         -11.8450   -9.2135   30.2810 O.2       1 ALC1        0.0000 
      5 O         -13.2790   -8.9380   29.7270 O.2       7 ALL1        0.0000 
      6 O         -10.4110   -9.4890   30.8350 O.2       4 ALP1        0.0000 
      7 CA        -14.2540   -8.4795   28.6155 C.3       3 GLC5        0.0000 
      8 CA        -14.1740   -8.2640   30.6220 C.3       9 GLL5        0.0000 
      9 CA        -14.3340   -8.6950   26.6090 C.3       6 GLP5        0.0000 
     10 CA        -15.5050   -7.1410   29.8020 C.3       3 GLC5        0.0000 
     11 CA        -16.8360   -6.0180   28.9820 C.3       6 GLP5        0.0000 
     12 CA        -13.9100  -10.1705   34.6615 C.3       3 GLC5        0.0000 
     13 CA        -13.7960   -9.7840   32.7280 C.3       9 GLL5        0.0000 
     14 CA        -14.0240  -10.5570   36.5950 C.3       6 GLP5        0.0000 
     15 CA        -11.9195  -12.5275   32.5985 C.3       3 GLC5        0.0000 
     16 CA        -12.9530  -10.9450   32.2240 C.3       9 GLL5        0.0000 
     17 CA        -10.8860  -14.1100   32.9730 C.3       6 GLP5        0.0000 
     18 CA        -11.3450  -10.2860   30.9060 C.3       3 GLC5        0.0000 
     19 CA         -9.7370   -9.6270   29.5880 C.3       6 GLP5        0.0000 
     20 N         -15.7440  -15.1040   31.3080 N.am      2 SEC2        0.0000 
     21 N         -15.0580  -13.8670   31.7650 N.am      8 SEL2        0.0000 
     22 N         -16.4300  -16.3410   30.8510 N.am      5 SEP2        0.0000 
     23 N         -15.2720  -15.1585   30.7830 N.am      2 SEC2        0.0000 
     24 N         -14.1140  -13.9760   30.7150 N.am      8 SEL2        0.0000 
     25 N         -13.1035  -12.1530   29.5760 N.am      2 SEC2        0.0000 
     26 N         -13.2570  -12.8720   30.8110 N.am      8 SEL2        0.0000 
     27 CA        -16.9215   -9.9055   31.3870 C.3       3 GLC5        0.0000 
     28 CA        -15.8150   -8.4450   32.5110 C.3       9 GLL5        0.0000 
     29 CA        -18.0280  -11.3660   30.2630 C.3       6 GLP5        0.0000 
     30 CA        -16.8785   -9.9625   33.3240 C.3       3 GLC5        0.0000 
     31 CA        -17.9420  -11.4800   34.1370 C.3       6 GLP5        0.0000 
     32 CA        -16.3255   -7.2315   30.7465 C.3       3 GLC5        0.0000 
     33 N         -17.6475   -9.1600   31.3385 N.am      2 SEC2        0.0000 
     34 N         -16.8640   -8.0210   31.6360 N.am      8 SEL2        0.0000 
     35 N         -18.4310  -10.2990   31.0410 N.am      5 SEP2        0.0000 
     36 O         -17.6715   -7.1485   32.2675 O.2       1 ALC1        0.0000 
     37 O         -16.8640   -8.0210   31.6360 O.2       7 ALL1        0.0000 
     38 O         -18.4790   -6.2760   32.8990 O.2       4 ALP1        0.0000 
     39 CA        -13.2740   -7.8975   34.0725 C.3       3 GLC5        0.0000 
     40 CA        -15.2030   -7.2350   33.2310 C.3       9 GLL5        0.0000 
     41 CA        -11.3450   -8.5600   34.9140 C.3       6 GLP5        0.0000 
     42 CA        -12.4335   -7.8260   33.1085 C.3       3 GLC5        0.0000 
     43 CA        -13.5220   -7.0920   31.3030 C.3       9 GLL5        0.0000 
     44 CA        -11.4405   -7.0045   33.0025 C.3       3 GLC5        0.0000 
     45 CA        -12.2550   -6.7710   31.0620 C.3       9 GLL5        0.0000 
     46 CA        -10.6260   -7.2380   34.9430 C.3       6 GLP5        0.0000 
     47 CA        -10.9960   -8.1990   30.3250 C.3       3 GLC5        0.0000 
     48 CA        -11.5455   -5.9590   29.6310 C.3       3 GLC5        0.0000 
     49 CA        -10.8360   -5.1470   28.2000 C.3       6 GLP5        0.0000 
     50 CA        -12.9135   -6.3005   33.9810 C.3       3 GLC5        0.0000 
     51 CA        -14.3560   -6.3860   32.2950 C.3       9 GLL5        0.0000 
     52 CA        -11.4710   -6.2150   35.6670 C.3       6 GLP5        0.0000 
     53 CA        -15.2650   -1.9690   32.0620 C.3       3 GLC5        0.0000 
     54 CA        -13.4880   -2.8100   32.2370 C.3       9 GLL5        0.0000 
     55 CA        -17.0420   -1.1280   31.8870 C.3       6 GLP5        0.0000 
     56 CA        -15.5190   -1.9040   33.4800 C.3       3 GLC5        0.0000 
     57 CA        -13.8860   -2.4940   33.6690 C.3       9 GLL5        0.0000 
     58 CA        -17.1520   -1.3140   33.2910 C.3       6 GLP5        0.0000 
     59 CA        -11.4315   -2.3345   36.0270 C.3       3 GLC5        0.0000 
     60 CA        -12.7290   -1.8280   34.4310 C.3       9 GLL5        0.0000 
     61 CA        -10.1340   -2.8410   37.6230 C.3       6 GLP5        0.0000 
     62 CA        -14.7725   -1.0400   34.2875 C.3       3 GLC5        0.0000 
     63 CA        -16.8160   -0.2520   34.1440 C.3       6 GLP5        0.0000 
     64 CA        -14.6925   -0.8155   31.3975 C.3       3 GLC5        0.0000 
     65 CA        -12.7690   -1.7150   31.4810 C.3       9 GLL5        0.0000 
     66 CA        -16.6160    0.0840   31.3140 C.3       6 GLP5        0.0000 
     67 CA        -11.5910   -3.5135   29.1045 C.3       3 GLC5        0.0000 
     68 CA        -12.3460   -1.8800   30.0090 C.3       9 GLL5        0.0000 
     69 CA         -9.6085   -1.2665   28.4285 C.3       3 GLC5        0.0000 
     70 CA        -11.1970   -0.8660   29.8390 C.3       9 GLL5        0.0000 
     71 CA         -8.0200   -1.6670   27.0180 C.3       6 GLP5        0.0000 
     72 CA         -8.9915   -3.5125   32.1290 C.3       3 GLC5        0.0000 
     73 CA        -10.5240   -2.5070   32.3330 C.3       9 GLL5        0.0000 
     74 CA         -7.4590   -4.5180   31.9250 C.3       6 GLP5        0.0000 
     75 CA         -9.1360    3.3215   30.3065 C.3       3 GLC5        0.0000 
     76 CA         -9.6430    1.8360   31.2220 C.3       9 GLL5        0.0000 
     77 CA         -8.6290    4.8070   29.3910 C.3       6 GLP5        0.0000 
     78 CA        -11.5800    1.9705   30.4405 C.3       3 GLC5        0.0000 
     79 CA        -13.5170    2.1050   29.6590 C.3       6 GLP5        0.0000 
     80 CA         -8.1765   -0.9940   28.9960 C.3       3 GLC5        0.0000 
     81 CA         -8.3330   -0.3210   30.9740 C.3       9 GLL5        0.0000 
     82 CA         -6.6410    1.7570   32.7210 C.3       3 GLC5        0.0000 
     83 CA         -7.1160   -0.0620   31.8830 C.3       9 GLL5        0.0000 
     84 CA         -6.1660    3.5760   33.5590 C.3       6 GLP5        0.0000 
     85 N          -4.6745    0.6830   29.9510 N.am      2 SEC2        0.0000 
     86 N          -4.2310    0.6060   31.3740 N.am      8 SEL2        0.0000 
     87 N          -5.1180    0.7600   28.5280 N.am      5 SEP2        0.0000 
     88 O          -4.8165    1.7650   31.9985 O.2       1 ALC1        0.0000 
     89 O          -4.2310    0.6060   31.3740 O.2       7 ALL1        0.0000 
     90 O          -5.4020    2.9240   32.6230 O.2       4 ALP1        0.0000 
     91 CA         -3.6825   -0.2740   35.0825 C.3       3 GLC5        0.0000 
     92 CA         -4.5760   -0.2730   33.5980 C.3       9 GLL5        0.0000 
     93 CA         -2.7890   -0.2750   36.5670 C.3       6 GLP5        0.0000 
     94 CA         -5.3710    1.6515   33.5785 C.3       3 GLC5        0.0000 
     95 CA         -3.0920    1.2610   33.6155 C.3       3 GLC5        0.0000 
     96 CA         -1.6080    2.7950   33.6330 C.3       6 GLP5        0.0000 
     97 CA         -2.0295   -0.4190   30.8475 C.3       3 GLC5        0.0000 
     98 CA         -3.5420   -1.6480   31.8030 C.3       9 GLL5        0.0000 
     99 CA         -0.5170    0.8100   29.8920 C.3       6 GLP5        0.0000 
    100 CA         -1.7725   -1.9175   33.0675 C.3       3 GLC5        0.0000 
    101 CA         -0.0030   -2.1870   34.3320 C.3       6 GLP5        0.0000 
    102 CA         -2.2055   -2.9135   31.4360 C.3       3 GLC5        0.0000 
    103 CA         -0.8690   -4.1790   31.0690 C.3       6 GLP5        0.0000 
    104 CA         -3.3755   -2.5470   29.7670 C.3       3 GLC5        0.0000 
    105 CA         -3.2090   -3.4460   27.7310 C.3       6 GLP5        0.0000 
    106 CA        -15.7802   -9.9555   30.2130 C.3       3 GLC5        0.0000 
    107 CA        -17.0920  -11.1800   29.2640 C.3       6 GLP5        0.0000 
    108 CA        -12.3598   -9.4623   33.6950 C.3       3 GLC5        0.0000 
    109 CA        -17.4305   -7.5775   33.0980 C.3       3 GLC5        0.0000 
    110 CA        -19.3520   -7.3150   33.3250 C.3       6 GLP5        0.0000 
    111 CA        -16.2540   -7.9925   34.4845 C.3       3 GLC5        0.0000 
    112 CA        -16.9990   -8.1450   36.0980 C.3       6 GLP5        0.0000 
    113 CA        -14.4123   -5.9002   30.2943 C.3       3 GLC5        0.0000 
    114 CA        -15.9360   -4.8690   29.4060 C.3       6 GLP5        0.0000 
    115 CA        -15.1680   -5.2930   30.8915 C.3       3 GLC5        0.0000 
    116 CA        -15.9318   -3.8682   32.1725 C.3       3 GLC5        0.0000 
    117 CA        -14.4440   -5.0480   32.4590 C.3       9 GLL5        0.0000 
    118 CA        -17.7680   -3.2060   32.2690 C.3       6 GLP5        0.0000 
    119 CA        -14.7767   -4.1402   30.6855 C.3       3 GLC5        0.0000 
    120 CA        -13.7470   -4.0130   31.6930 C.3       9 GLL5        0.0000 
    121 CA        -14.2108   -1.9895   35.9455 C.3       3 GLC5        0.0000 
    122 CA        -15.1140   -1.8180   37.8410 C.3       6 GLP5        0.0000 
    123 CA        -12.4180    0.4255   34.9327 C.3       3 GLC5        0.0000 
    124 CA        -12.5170    2.1710   35.8450 C.3       6 GLP5        0.0000 
    125 CA        -12.0592   -1.0545   27.8805 C.3       3 GLC5        0.0000 
    126 CA        -12.3470   -0.7360   25.8370 C.3       6 GLP5        0.0000 
    127 CA        -10.0865    2.0933   33.0112 C.3       3 GLC5        0.0000 
    128 CA        -10.5560    3.0960   34.6280 C.3       6 GLP5        0.0000 
    129 CA         -7.1541   -2.5704   31.7354 C.3       3 GLC5        0.0000 
    130 CA         -6.4366    0.5671   29.9029 C.3       3 GLC5        0.0000 
    131 CA         -5.9740   -1.0540   31.6630 C.3       9 GLL5        0.0000 
    132 CA         -6.0240    1.7570   28.2600 C.3       6 GLP5        0.0000 
    133 CA        -12.6685    0.4605   30.1515 C.3       3 GLC5        0.0000 
@<TRIPOS>BOND
@<TRIPOS>SUBSTRUCTURE
     1 ALC1        4 GROUP        1 X    ALC  0     ROOT ALC X 1
     2 SEC2        1 GROUP        1 X    SEC  0     **** SEC X 2
     3 GLC5        7 GROUP        1 X    GLC  0     **** GLC X 6
     4 ALP1        6 GROUP        1 Y    ALP  0     ROOT ALP Y 8
     5 SEP2        3 GROUP        1 Y    SEP  0     **** SEP Y 9
     6 GLP5        9 GROUP        1 Y    GLP  0     **** GLP Y 13
     7 ALL1        5 GROUP        1 Z    ALL  0     ROOT ALL Z 15
     8 SEL2        2 GROUP        1 Z    SEL  0     **** SEL Z 16
     9 GLL5        8 GROUP        1 Z    GLL  0     **** GLL Z 20
@<TRIPOS>SET

