#    Name: 4itf_TFY_1_ligand
#    Modification time : Tue Mar 25 04:33:49 2014

@<TRIPOS>MOLECULE
4itf_TFY_1_ligand
   83    86     1     0     0
SMALL
NO_CHARGES


@<TRIPOS>ATOM
      1 O31       -13.2790   -8.9380   29.7270 O.3       1 TFY501      0.0000 
      2 C27       -14.1740   -8.2640   30.6220 C.3       1 TFY501      0.0000 
      3 C26       -14.7630   -9.1980   31.7020 C.3       1 TFY501      0.0000 
      4 C30       -13.7960   -9.7840   32.7280 C.3       1 TFY501      0.0000 
      5 C32       -12.9530  -10.9450   32.2240 C.3       1 TFY501      0.0000 
      6 N33       -13.7230  -12.1590   31.9270 N.pl3     1 TFY501      0.0000 
      7 C37       -14.7840  -12.7500   32.4900 C.2       1 TFY501      0.0000 
      8 N36       -15.0580  -13.8670   31.7650 N.2       1 TFY501      0.0000 
      9 N35       -14.1140  -13.9760   30.7150 N.2       1 TFY501      0.0000 
     10 N34       -13.2570  -12.8720   30.8110 N.2       1 TFY501      0.0000 
     11 C25       -15.8150   -8.4450   32.5110 C.3       1 TFY501      0.0000 
     12 O29       -16.8640   -8.0210   31.6360 O.3       1 TFY501      0.0000 
     13 C24       -15.2030   -7.2350   33.2310 C.3       1 TFY501      0.0000 
     14 C28       -13.5220   -7.0920   31.3030 C.2       1 TFY501      0.0000 
     15 C39       -12.2550   -6.7710   31.0620 C.2       1 TFY501      0.0000 
     16 C23       -14.3560   -6.3860   32.2950 C.2       1 TFY501      0.0000 
     17 C11       -14.4440   -5.0480   32.4590 C.2       1 TFY501      0.0000 
     18 C10       -13.7470   -4.0130   31.6930 C.2       1 TFY501      0.0000 
     19 C4        -13.4880   -2.8100   32.2370 C.2       1 TFY501      0.0000 
     20 C3        -13.8860   -2.4940   33.6690 C.3       1 TFY501      0.0000 
     21 C2        -12.7290   -1.8280   34.4310 C.3       1 TFY501      0.0000 
     22 C5        -12.7690   -1.7150   31.4810 C.3       1 TFY501      0.0000 
     23 C8        -12.3460   -1.8800   30.0090 C.3       1 TFY501      0.0000 
     24 C9        -11.1970   -0.8660   29.8390 C.3       1 TFY501      0.0000 
     25 C7        -10.9680   -0.2750   31.2470 C.3       1 TFY501      0.0000 
     26 C6        -11.5020   -1.3240   32.2250 C.3       1 TFY501      0.0000 
     27 C13       -10.5240   -2.5070   32.3330 C.3       1 TFY501      0.0000 
     28 C1        -11.9090   -0.8120   33.6100 C.3       1 TFY501      0.0000 
     29 C14        -9.5910    0.3450   31.5670 C.3       1 TFY501      0.0000 
     30 C16        -9.6430    1.8360   31.2220 C.3       1 TFY501      0.0000 
     31 C15        -8.3330   -0.3210   30.9740 C.3       1 TFY501      0.0000 
     32 C17        -7.1160   -0.0620   31.8830 C.3       1 TFY501      0.0000 
     33 C18        -5.9740   -1.0540   31.6630 C.3       1 TFY501      0.0000 
     34 C19        -4.5880   -0.5820   32.1050 C.3       1 TFY501      0.0000 
     35 O22        -4.2310    0.6060   31.3740 O.3       1 TFY501      0.0000 
     36 C21        -4.5760   -0.2730   33.5980 C.3       1 TFY501      0.0000 
     37 C20        -3.5420   -1.6480   31.8030 C.3       1 TFY501      0.0000 
     38 H         -15.0437   -7.8649   30.0616 H         1 TFY501      0.0000 
     39 H         -15.2856  -10.0225   31.2111 H         1 TFY501      0.0000 
     40 H         -14.3745  -10.1167   33.6119 H         1 TFY501      0.0000 
     41 H         -13.1235   -8.9787   33.0828 H         1 TFY501      0.0000 
     42 H         -12.1745  -11.1619   32.9853 H         1 TFY501      0.0000 
     43 H         -12.4066  -10.6069   31.3185 H         1 TFY501      0.0000 
     44 H         -15.2693  -12.4510   33.2613 H         1 TFY501      0.0000 
     45 H         -16.2003   -9.1224   33.2679 H         1 TFY501      0.0000 
     46 H         -14.5839   -7.5919   34.0585 H         1 TFY501      0.0000 
     47 H         -16.0100   -6.6247   33.6452 H         1 TFY501      0.0000 
     48 H         -15.0875   -4.6569   33.2279 H         1 TFY501      0.0000 
     49 H         -13.4730   -4.2594   30.7305 H         1 TFY501      0.0000 
     50 H         -14.1630   -3.4144   34.1827 H         1 TFY501      0.0000 
     51 H         -14.7428   -1.8204   33.6698 H         1 TFY501      0.0000 
     52 H         -12.0474   -2.6138   34.8015 H         1 TFY501      0.0000 
     53 H         -13.1364   -1.3157   35.3203 H         1 TFY501      0.0000 
     54 H         -13.4029   -0.7824   31.5236 H         1 TFY501      0.0000 
     55 H         -13.1502   -1.6156   29.3752 H         1 TFY501      0.0000 
     56 H         -11.9816   -2.8600   29.8504 H         1 TFY501      0.0000 
     57 H         -11.4979   -0.0940   29.1744 H         1 TFY501      0.0000 
     58 H         -10.3194   -1.3716   29.5190 H         1 TFY501      0.0000 
     59 H         -11.7389    0.5785   31.3136 H         1 TFY501      0.0000 
     60 H         -11.0041   -0.5501   34.1767 H         1 TFY501      0.0000 
     61 H         -12.5016    0.1067   33.4939 H         1 TFY501      0.0000 
     62 H          -9.4843    0.3136   32.6888 H         1 TFY501      0.0000 
     63 H          -8.1398    0.0936   29.9924 H         1 TFY501      0.0000 
     64 H          -8.4988   -1.3883   30.8952 H         1 TFY501      0.0000 
     65 H          -7.4417   -0.1132   32.9304 H         1 TFY501      0.0000 
     66 H          -6.7496    0.9567   31.6990 H         1 TFY501      0.0000 
     67 H          -5.9330   -1.3162   30.5848 H         1 TFY501      0.0000 
     68 H          -6.2147   -1.9978   32.1961 H         1 TFY501      0.0000 
     69 H         -10.2450   -2.8416   31.4329 H         1 TFY501      0.0000 
     70 H          -9.6898   -2.2556   32.8238 H         1 TFY501      0.0000 
     71 H         -10.9291   -3.2804   32.8205 H         1 TFY501      0.0000 
     72 H          -8.7721    2.2909   31.4082 H         1 TFY501      0.0000 
     73 H          -9.8516    1.9865   30.2557 H         1 TFY501      0.0000 
     74 H         -10.3431    2.3154   31.7511 H         1 TFY501      0.0000 
     75 H          -3.6756    0.0339   33.9065 H         1 TFY501      0.0000 
     76 H          -5.2279    0.4479   33.8333 H         1 TFY501      0.0000 
     77 H          -4.8157   -1.0750   34.1452 H         1 TFY501      0.0000 
     78 H          -2.6266   -1.3605   32.0849 H         1 TFY501      0.0000 
     79 H          -3.7387   -2.5062   32.2772 H         1 TFY501      0.0000 
     80 H          -3.4958   -1.8568   30.8261 H         1 TFY501      0.0000 
     81 H         -12.4313   -9.0509   30.2453 H         1 TFY501      0.0000 
     82 H         -17.3620   -7.3219   32.1490 H         1 TFY501      0.0000 
     83 H          -4.5683    1.4072   31.8684 H         1 TFY501      0.0000 
@<TRIPOS>BOND
     1    2    1 1    
     2   81    1 1    
     3    3    2 1    
     4   14    2 1    
     5   38    2 1    
     6    4    3 1    
     7   11    3 1    
     8   39    3 1    
     9    5    4 1    
    10   40    4 1    
    11   41    4 1    
    12    6    5 1    
    13   42    5 1    
    14   43    5 1    
    15    7    6 1    
    16   10    6 1    
    17    8    7 2    
    18   44    7 1    
    19    9    8 1    
    20   10    9 2    
    21   12   11 1    
    22   13   11 1    
    23   45   11 1    
    24   82   12 1    
    25   16   13 1    
    26   46   13 1    
    27   47   13 1    
    28   15   14 2    
    29   16   14 1    
    30   17   16 2    
    31   18   17 1    
    32   48   17 1    
    33   19   18 2    
    34   49   18 1    
    35   20   19 1    
    36   22   19 1    
    37   21   20 1    
    38   50   20 1    
    39   51   20 1    
    40   28   21 1    
    41   52   21 1    
    42   53   21 1    
    43   23   22 1    
    44   26   22 1    
    45   54   22 1    
    46   24   23 1    
    47   55   23 1    
    48   56   23 1    
    49   25   24 1    
    50   57   24 1    
    51   58   24 1    
    52   26   25 1    
    53   29   25 1    
    54   59   25 1    
    55   27   26 1    
    56   28   26 1    
    57   69   27 1    
    58   70   27 1    
    59   71   27 1    
    60   60   28 1    
    61   61   28 1    
    62   30   29 1    
    63   31   29 1    
    64   62   29 1    
    65   72   30 1    
    66   73   30 1    
    67   74   30 1    
    68   32   31 1    
    69   63   31 1    
    70   64   31 1    
    71   33   32 1    
    72   65   32 1    
    73   66   32 1    
    74   34   33 1    
    75   67   33 1    
    76   68   33 1    
    77   35   34 1    
    78   36   34 1    
    79   37   34 1    
    80   83   35 1    
    81   75   36 1    
    82   76   36 1    
    83   77   36 1    
    84   78   37 1    
    85   79   37 1    
    86   80   37 1    
@<TRIPOS>SUBSTRUCTURE
     1 TFY501      1 GROUP   
@<TRIPOS>SET

