#    Name: 4a51_DQ8_7_INTS_M
#    Modification time : Tue Mar 25 04:58:32 2014

@<TRIPOS>MOLECULE
4a51_DQ8_7_INTS_M
   70     0     9     0     0
SMALL
NO_CHARGES


@<TRIPOS>ATOM
      1 CA         40.6170  -78.2330  -26.8320 C.3       3 GLC5        0.0000 
      2 CA         40.7030  -77.1440  -25.0400 C.3       9 GLL5        0.0000 
      3 CA         40.5310  -79.3220  -28.6240 C.3       6 GLP5        0.0000 
      4 CA         41.7790  -76.3155  -23.9550 C.3       3 GLC5        0.0000 
      5 CA         42.8550  -75.4870  -22.8700 C.3       6 GLP5        0.0000 
      6 CA         38.4670  -78.8335  -23.6475 C.3       3 GLC5        0.0000 
      7 CA         38.3870  -78.0950  -25.6970 C.3       9 GLL5        0.0000 
      8 CA         38.5470  -79.5720  -21.5980 C.3       6 GLP5        0.0000 
      9 CA         36.5930  -78.5080  -24.0125 C.3       3 GLC5        0.0000 
     10 CA         37.0590  -77.9970  -26.1260 C.3       9 GLL5        0.0000 
     11 CA         36.1270  -79.0190  -21.8990 C.3       6 GLP5        0.0000 
     12 CA         38.0885  -82.4695  -26.4850 C.3       3 GLC5        0.0000 
     13 CA         38.4200  -80.4270  -26.1940 C.3       9 GLL5        0.0000 
     14 CA         37.7570  -84.5120  -26.7760 C.3       6 GLP5        0.0000 
     15 CA         36.7115  -82.2200  -26.6280 C.3       3 GLC5        0.0000 
     16 CA         37.0910  -80.3500  -26.5980 C.3       9 GLL5        0.0000 
     17 CA         36.3320  -84.0900  -26.6580 C.3       6 GLP5        0.0000 
     18 CA         33.7960  -76.6800  -23.4310 C.3       3 GLC5        0.0000 
     19 CA         33.8530  -78.1360  -25.0570 C.3       9 GLL5        0.0000 
     20 CA         33.7390  -75.2240  -21.8050 C.3       6 GLP5        0.0000 
     21 CA         31.7800  -78.7305  -28.2840 C.3       3 GLC5        0.0000 
     22 CA         33.1690  -77.4840  -27.2630 C.3       9 GLL5        0.0000 
     23 CA         30.3910  -79.9770  -29.3050 C.3       6 GLP5        0.0000 
     24 CA         34.4710  -79.5620  -30.8395 C.3       3 GLC5        0.0000 
     25 CA         35.0470  -78.7860  -28.8620 C.3       9 GLL5        0.0000 
     26 CA         33.8950  -80.3380  -32.8170 C.3       6 GLP5        0.0000 
     27 OD1        38.0965  -77.2075  -30.0790 O.co2     2 ASC3        0.0000 
     28 OD1        36.8780  -77.0870  -31.1110 O.co2     8 ASL3        0.0000 
     29 OD1        39.3150  -77.3280  -29.0470 O.co2     5 ASP3        0.0000 
     30 O          38.0965  -77.2075  -30.0790 O.2       1 ALC1        0.0000 
     31 O          36.8780  -77.0870  -31.1110 O.2       7 ALL1        0.0000 
     32 O          39.3150  -77.3280  -29.0470 O.2       4 ALP1        0.0000 
     33 O          36.7600  -78.6125  -31.6455 O.2       1 ALC1        0.0000 
     34 O          36.6420  -80.1380  -32.1800 O.2       4 ALP1        0.0000 
     35 CA         35.6390  -81.2235  -24.3105 C.3       3 GLC5        0.0000 
     36 CA         34.2680  -81.3090  -25.8740 C.3       9 GLL5        0.0000 
     37 CA         37.0100  -81.1380  -22.7470 C.3       6 GLP5        0.0000 
     38 CA         34.6910  -83.7705  -25.7890 C.3       3 GLC5        0.0000 
     39 CA         33.7160  -82.5920  -25.9050 C.3       9 GLL5        0.0000 
     40 CA         35.6660  -84.9490  -25.6730 C.3       6 GLP5        0.0000 
     41 CA         32.1895  -80.5510  -28.7755 C.3       3 GLC5        0.0000 
     42 CA         33.9880  -81.1250  -28.2460 C.3       9 GLL5        0.0000 
     43 CA         39.1270  -78.6840  -27.2677 C.3       3 GLC5        0.0000 
     44 CA         39.6410  -79.5905  -27.3030 C.3       3 GLC5        0.0000 
     45 CA         39.0820  -79.2910  -25.7700 C.3       9 GLL5        0.0000 
     46 CA         39.5165  -81.4735  -25.0375 C.3       3 GLC5        0.0000 
     47 CA         40.2820  -83.0880  -24.0930 C.3       6 GLP5        0.0000 
     48 CA         37.8805  -80.4985  -24.3645 C.3       3 GLC5        0.0000 
     49 CA         38.1620  -79.8863  -28.0665 C.3       3 GLC5        0.0000 
     50 CA         39.5750  -80.0220  -29.5560 C.3       6 GLP5        0.0000 
     51 CA         36.8795  -80.4442  -24.6620 C.3       3 GLC5        0.0000 
     52 CA         34.7550  -78.3623  -23.3398 C.3       3 GLC5        0.0000 
     53 CA         32.3782  -76.1905  -23.2775 C.3       3 GLC5        0.0000 
     54 CA         32.9130  -77.2750  -24.5040 C.3       9 GLL5        0.0000 
     55 CA         32.2440  -75.4930  -21.6330 C.3       6 GLP5        0.0000 
     56 CA         30.3277  -75.6775  -26.6270 C.3       3 GLC5        0.0000 
     57 CA         32.1120  -76.5010  -25.3400 C.3       9 GLL5        0.0000 
     58 CA         28.4830  -74.8000  -27.2220 C.3       6 GLP5        0.0000 
     59 CA         35.1347  -75.1580  -29.0783 C.3       3 GLC5        0.0000 
     60 CA         35.6630  -77.0380  -28.9210 C.3       9 GLL5        0.0000 
     61 CA         34.5060  -73.6060  -28.5400 C.3       6 GLP5        0.0000 
     62 CA         31.6752  -83.2563  -25.8235 C.3       3 GLC5        0.0000 
     63 CA         29.8380  -83.6430  -25.1370 C.3       6 GLP5        0.0000 
     64 CA         31.6657  -81.9895  -28.0832 C.3       3 GLC5        0.0000 
     65 CA         33.3090  -83.1470  -27.1150 C.3       9 GLL5        0.0000 
     66 CA         29.9530  -81.2020  -28.4680 C.3       6 GLP5        0.0000 
     67 CA         33.7212  -84.4665  -28.6268 C.3       3 GLC5        0.0000 
     68 CA         33.4480  -82.4070  -28.2820 C.3       9 GLL5        0.0000 
     69 CA         34.0640  -86.1560  -29.5550 C.3       6 GLP5        0.0000 
     70 CA         35.0512  -82.9979  -27.0920 C.3       3 GLC5        0.0000 
@<TRIPOS>BOND
@<TRIPOS>SUBSTRUCTURE
     1 ALC1       30 GROUP        1 X    ALC  0     ROOT ALC X 1
     2 ASC3       27 GROUP        1 X    ASC  0     **** ASC X 3
     3 GLC5        1 GROUP        1 X    GLC  0     **** GLC X 6
     4 ALP1       32 GROUP        1 Y    ALP  0     ROOT ALP Y 8
     5 ASP3       29 GROUP        1 Y    ASP  0     **** ASP Y 10
     6 GLP5        3 GROUP        1 Y    GLP  0     **** GLP Y 13
     7 ALL1       31 GROUP        1 Z    ALL  0     ROOT ALL Z 15
     8 ASL3       28 GROUP        1 Z    ASL  0     **** ASL Z 17
     9 GLL5        2 GROUP        1 Z    GLL  0     **** GLL Z 20
@<TRIPOS>SET

