#    Name: 4a51_DQ8_7_ligand
#    Modification time : Tue Mar 25 04:58:33 2014

@<TRIPOS>MOLECULE
4a51_DQ8_7_ligand
   50    52     1     0     0
SMALL
NO_CHARGES


@<TRIPOS>ATOM
      1 CAA        40.7030  -77.1440  -25.0400 C.3       1 DQ8801      0.0000 
      2 CAU        39.2010  -76.8980  -25.2290 C.2       1 DQ8801      0.0000 
      3 OAC        38.6660  -75.8570  -24.8380 O.2       1 DQ8801      0.0000 
      4 CAV        38.3870  -78.0950  -25.6970 C.ar      1 DQ8801      0.0000 
      5 CAQ        37.0590  -77.9970  -26.1260 C.ar      1 DQ8801      0.0000 
      6 CAK        39.0820  -79.2910  -25.7700 C.ar      1 DQ8801      0.0000 
      7 CAJ        38.4200  -80.4270  -26.1940 C.ar      1 DQ8801      0.0000 
      8 CAP        37.0910  -80.3500  -26.5980 C.ar      1 DQ8801      0.0000 
      9 CAY        36.4070  -79.1510  -26.5560 C.ar      1 DQ8801      0.0000 
     10 CAZ        34.9740  -79.1890  -27.0680 C.3       1 DQ8801      0.0000 
     11 CAX        33.9860  -78.2290  -26.4340 C.ar      1 DQ8801      0.0000 
     12 CAN        33.8530  -78.1360  -25.0570 C.ar      1 DQ8801      0.0000 
     13 CAH        32.9130  -77.2750  -24.5040 C.ar      1 DQ8801      0.0000 
     14 CAE        32.1120  -76.5010  -25.3400 C.ar      1 DQ8801      0.0000 
     15 CAI        32.2330  -76.6090  -26.7240 C.ar      1 DQ8801      0.0000 
     16 CAO        33.1690  -77.4840  -27.2630 C.ar      1 DQ8801      0.0000 
     17 SAT        35.0470  -78.7860  -28.8620 S.3       1 DQ8801      0.0000 
     18 CAS        35.6630  -77.0380  -28.9210 C.3       1 DQ8801      0.0000 
     19 CAR        35.8640  -76.3820  -30.3120 C.3       1 DQ8801      0.0000 
     20 NAB        36.8780  -77.0870  -31.1110 N.4       1 DQ8801      0.0000 
     21 CAW        34.4050  -80.5800  -27.0480 C.ar      1 DQ8801      0.0000 
     22 CAL        34.2680  -81.3090  -25.8740 C.ar      1 DQ8801      0.0000 
     23 CAF        33.7160  -82.5920  -25.9050 C.ar      1 DQ8801      0.0000 
     24 CAD        33.3090  -83.1470  -27.1150 C.ar      1 DQ8801      0.0000 
     25 CAG        33.4480  -82.4070  -28.2820 C.ar      1 DQ8801      0.0000 
     26 CAM        33.9880  -81.1250  -28.2460 C.ar      1 DQ8801      0.0000 
     27 H          36.5806  -77.0990  -26.1231 H         1 DQ8801      0.0000 
     28 H          40.0726  -79.3308  -25.5129 H         1 DQ8801      0.0000 
     29 H          38.9074  -81.3346  -26.2126 H         1 DQ8801      0.0000 
     30 H          36.6126  -81.2049  -26.9337 H         1 DQ8801      0.0000 
     31 H          34.4513  -78.7055  -24.4419 H         1 DQ8801      0.0000 
     32 H          32.8085  -77.2088  -23.4859 H         1 DQ8801      0.0000 
     33 H          31.4286  -75.8472  -24.9348 H         1 DQ8801      0.0000 
     34 H          31.6360  -76.0472  -27.3382 H         1 DQ8801      0.0000 
     35 H          33.2514  -77.5751  -28.2877 H         1 DQ8801      0.0000 
     36 H          36.5885  -77.1145  -28.3467 H         1 DQ8801      0.0000 
     37 H          34.9180  -76.5246  -28.3098 H         1 DQ8801      0.0000 
     38 H          36.1532  -75.3357  -30.1484 H         1 DQ8801      0.0000 
     39 H          34.8930  -76.3824  -30.8241 H         1 DQ8801      0.0000 
     40 H          34.5725  -80.9067  -24.9777 H         1 DQ8801      0.0000 
     41 H          33.6113  -83.1246  -25.0327 H         1 DQ8801      0.0000 
     42 H          32.9121  -84.0896  -27.1428 H         1 DQ8801      0.0000 
     43 H          33.1487  -82.8101  -29.1838 H         1 DQ8801      0.0000 
     44 H          34.0749  -80.5841  -29.1198 H         1 DQ8801      0.0000 
     45 H          41.2541  -76.4451  -25.4960 H         1 DQ8801      0.0000 
     46 H          40.9618  -77.1373  -24.0741 H         1 DQ8801      0.0000 
     47 H          40.9843  -78.0283  -25.4126 H         1 DQ8801      0.0000 
     48 H          37.0041  -76.6637  -32.0082 H         1 DQ8801      0.0000 
     49 H          37.7706  -77.0894  -30.6600 H         1 DQ8801      0.0000 
     50 H          36.6275  -78.0420  -31.2701 H         1 DQ8801      0.0000 
@<TRIPOS>BOND
     1    2    1 1    
     2   45    1 1    
     3   46    1 1    
     4   47    1 1    
     5    3    2 2    
     6    4    2 1    
     7    5    4 ar   
     8    6    4 ar   
     9    9    5 ar   
    10   27    5 1    
    11    7    6 ar   
    12   28    6 1    
    13    8    7 ar   
    14   29    7 1    
    15    9    8 ar   
    16   30    8 1    
    17   10    9 1    
    18   11   10 1    
    19   17   10 1    
    20   21   10 1    
    21   12   11 ar   
    22   16   11 ar   
    23   13   12 ar   
    24   31   12 1    
    25   14   13 ar   
    26   32   13 1    
    27   15   14 ar   
    28   33   14 1    
    29   16   15 ar   
    30   34   15 1    
    31   35   16 1    
    32   18   17 1    
    33   19   18 1    
    34   36   18 1    
    35   37   18 1    
    36   20   19 1    
    37   38   19 1    
    38   39   19 1    
    39   48   20 1    
    40   49   20 1    
    41   50   20 1    
    42   22   21 ar   
    43   26   21 ar   
    44   23   22 ar   
    45   40   22 1    
    46   24   23 ar   
    47   41   23 1    
    48   25   24 ar   
    49   42   24 1    
    50   26   25 ar   
    51   43   25 1    
    52   44   26 1    
@<TRIPOS>SUBSTRUCTURE
     1 DQ8801      1 GROUP   
@<TRIPOS>SET

