#    Name: 1xp6_AIU_1_INTS_M
#    Modification time : Tue Mar 25 10:28:15 2014

@<TRIPOS>MOLECULE
1xp6_AIU_1_INTS_M
  115     0    12     0     0
SMALL
NO_CHARGES


@<TRIPOS>ATOM
      1 N          23.9245   -1.3070   27.7405 N.am      2 SEC2        0.0000 
      2 N          25.0400   -0.9700   26.6450 N.am     10 SEL2        0.0000 
      3 N          22.8090   -1.6440   28.8360 N.am      6 SEP2        0.0000 
      4 O          24.5820   -2.0910   26.0575 O.2       1 ALC1        0.0000 
      5 O          25.0400   -0.9700   26.6450 O.2       9 ALL1        0.0000 
      6 O          24.1240   -3.2120   25.4700 O.2       5 ALP1        0.0000 
      7 CA         28.9765   -0.3790   29.8660 C.3       4 GLC5        0.0000 
      8 CA         29.5020    0.5530   28.1750 C.3      12 GLL5        0.0000 
      9 CA         28.4510   -1.3110   31.5570 C.3       8 GLP5        0.0000 
     10 CA         31.4705    1.9635   25.6360 C.3       4 GLC5        0.0000 
     11 CA         32.5040    1.3730   27.3770 C.3      12 GLL5        0.0000 
     12 CA         30.4370    2.5540   23.8950 C.3       8 GLP5        0.0000 
     13 CA         33.0785    3.0220   25.4015 C.3       4 GLC5        0.0000 
     14 CA         33.7600    1.9730   27.2170 C.3      12 GLL5        0.0000 
     15 CA         32.3970    4.0710   23.5860 C.3       8 GLP5        0.0000 
     16 CA         34.9840    1.1775   25.8810 C.3       4 GLC5        0.0000 
     17 CA         36.2080    0.3820   24.5450 C.3       8 GLP5        0.0000 
     18 N          37.1510    1.8645   28.6770 N.am      2 SEC2        0.0000 
     19 N          36.0150    2.2430   27.9460 N.am     10 SEL2        0.0000 
     20 N          38.2870    1.4860   29.4080 N.am      6 SEP2        0.0000 
     21 O          36.4180    2.8915   26.4845 O.2       1 ALC1        0.0000 
     22 O          36.0150    2.2430   27.9460 O.2       9 ALL1        0.0000 
     23 O          36.8210    3.5400   25.0230 O.2       5 ALP1        0.0000 
     24 CA         35.1540    0.4580   31.1000 C.3       4 GLC5        0.0000 
     25 CA         34.5960    0.9020   29.2720 C.3      12 GLL5        0.0000 
     26 CA         35.7120    0.0140   32.9280 C.3       8 GLP5        0.0000 
     27 CA         34.3125   -0.6815   30.9150 C.3       4 GLC5        0.0000 
     28 CA         33.3440    0.2940   29.4330 C.3      12 GLL5        0.0000 
     29 CA         35.2810   -1.6570   32.3970 C.3       8 GLP5        0.0000 
     30 CA         29.5255   -0.9010   23.5965 C.3       4 GLC5        0.0000 
     31 CA         31.4570   -1.3750   24.3620 C.3      12 GLL5        0.0000 
     32 CA         27.5940   -0.4270   22.8310 C.3       8 GLP5        0.0000 
     33 CA         34.8060   -5.3715   20.0215 C.3       4 GLC5        0.0000 
     34 CA         33.7950   -3.9440   20.9580 C.3      12 GLL5        0.0000 
     35 CA         35.8170   -6.7990   19.0850 C.3       8 GLP5        0.0000 
     36 OD1        31.8780   -5.0870   20.1830 O.co2     3 ASC3        0.0000 
     37 OD1        32.6910   -4.0790   19.9940 O.co2    11 ASL3        0.0000 
     38 OD1        31.0650   -6.0950   20.3720 O.co2     7 ASP3        0.0000 
     39 O          31.8780   -5.0870   20.1830 O.2       1 ALC1        0.0000 
     40 O          32.6910   -4.0790   19.9940 O.2       9 ALL1        0.0000 
     41 O          31.0650   -6.0950   20.3720 O.2       5 ALP1        0.0000 
     42 CA         34.5735   -5.4640   18.8695 C.3       4 GLC5        0.0000 
     43 CA         33.3300   -4.1290   18.6540 C.3      12 GLL5        0.0000 
     44 CA         33.6980   -5.2295   17.1770 C.3       4 GLC5        0.0000 
     45 CA         32.2840   -3.5570   17.6700 C.3      12 GLL5        0.0000 
     46 CA         35.1120   -6.9020   16.6840 C.3       8 GLP5        0.0000 
     47 CA         29.9020   -4.1250   16.2995 C.3       4 GLC5        0.0000 
     48 CA         31.8080   -4.6130   16.6500 C.3      12 GLL5        0.0000 
     49 CA         27.9960   -3.6370   15.9490 C.3       8 GLP5        0.0000 
     50 CA         32.8350   -6.1100   16.4125 C.3       4 GLC5        0.0000 
     51 CA         33.8620   -7.6070   16.1750 C.3       8 GLP5        0.0000 
     52 CA         31.3185   -5.2455   15.0050 C.3       4 GLC5        0.0000 
     53 CA         30.8290   -5.8780   13.3600 C.3       8 GLP5        0.0000 
     54 CA         30.8520   -1.3910   19.7230 C.3       4 GLC5        0.0000 
     55 CA         31.0980   -3.1780   18.5790 C.3      12 GLL5        0.0000 
     56 CA         30.6060    0.3960   20.8670 C.3       8 GLP5        0.0000 
     57 CA         29.9665   -0.5565   19.0225 C.3       4 GLC5        0.0000 
     58 CA         30.3090   -1.9930   18.0100 C.3      12 GLL5        0.0000 
     59 CA         29.6240    0.8800   20.0350 C.3       8 GLP5        0.0000 
     60 CA         30.9340   -1.8140   15.9240 C.3       4 GLC5        0.0000 
     61 CA         31.5590   -1.6350   13.8380 C.3       8 GLP5        0.0000 
     62 CA         31.8830   -1.1590   20.2620 C.3       4 GLC5        0.0000 
     63 CA         31.7990   -2.9000   19.9220 C.3      12 GLL5        0.0000 
     64 CA         31.9670    0.5820   20.6020 C.3       8 GLP5        0.0000 
     65 CA         29.7885   -1.1115   30.0348 C.3       4 GLC5        0.0000 
     66 CA         31.2250   -1.6340   28.2420 C.3      12 GLL5        0.0000 
     67 CA         29.1022   -3.6383   29.5930 C.3       4 GLC5        0.0000 
     68 CA         28.8010   -1.9190   28.0510 C.3      12 GLL5        0.0000 
     69 CA         29.8590   -4.8530   31.2840 C.3       8 GLP5        0.0000 
     70 CA         26.2722   -4.3495   28.1273 C.3       4 GLC5        0.0000 
     71 CA         27.8900   -2.9280   27.7530 C.3      12 GLL5        0.0000 
     72 CA         25.2940   -5.9170   28.7450 C.3       8 GLP5        0.0000 
     73 CA         28.0938   -3.3405   25.7302 C.3       4 GLC5        0.0000 
     74 CA         26.6110   -2.6360   27.2660 C.3      12 GLL5        0.0000 
     75 CA         28.9370   -3.8990   23.9510 C.3       8 GLP5        0.0000 
     76 CA         26.4445    0.2858   25.5775 C.3       4 GLC5        0.0000 
     77 CA         26.2660   -1.2640   27.1360 C.3      12 GLL5        0.0000 
     78 CA         26.1610    1.3310   23.8570 C.3       8 GLP5        0.0000 
     79 CA         27.6504    0.8642   29.4386 C.3       4 GLC5        0.0000 
     80 CA         27.1900   -0.2550   27.4600 C.3      12 GLL5        0.0000 
     81 CA         26.6310    1.6540   30.9520 C.3       8 GLP5        0.0000 
     82 CA         32.1280    3.3460   27.2625 C.3       4 GLC5        0.0000 
     83 CA         31.1240    5.0190   27.2280 C.3       8 GLP5        0.0000 
     84 CA         33.7967    3.2045   29.2027 C.3       4 GLC5        0.0000 
     85 CA         33.3210    4.5590   30.7230 C.3       8 GLP5        0.0000 
     86 CA         34.9017    3.4905   26.9728 C.3       4 GLC5        0.0000 
     87 CA         34.7850    1.7270   28.1480 C.3      12 GLL5        0.0000 
     88 CA         35.5310    5.1310   26.2630 C.3       8 GLP5        0.0000 
     89 CA         35.4363    0.2338   27.0765 C.3       4 GLC5        0.0000 
     90 CA         36.1820   -0.8470   25.4430 C.3       8 GLP5        0.0000 
     91 CA         33.6455    2.5785   30.0377 C.3       4 GLC5        0.0000 
     92 CA         30.4873   -3.1250   25.2817 C.3       4 GLC5        0.0000 
     93 CA         31.5760   -1.8410   26.7630 C.3      12 GLL5        0.0000 
     94 CA         34.3362   -3.6835   26.9265 C.3       4 GLC5        0.0000 
     95 CA         32.4990   -2.8610   26.4620 C.3      12 GLL5        0.0000 
     96 CA         35.9800   -4.3660   28.0570 C.3       8 GLP5        0.0000 
     97 CA         31.7324   -3.8016   28.2226 C.3       4 GLC5        0.0000 
     98 CA         31.5150   -5.3040   29.4630 C.3       8 GLP5        0.0000 
     99 CA         32.4062   -4.9275   25.5680 C.3       4 GLC5        0.0000 
    100 CA         32.1200   -6.8540   25.3400 C.3       8 GLP5        0.0000 
    101 CA         34.4373   -1.9240   25.6195 C.3       4 GLC5        0.0000 
    102 CA         32.8860   -3.1410   25.1300 C.3      12 GLL5        0.0000 
    103 CA         30.7745   -3.3368   24.2748 C.3       4 GLC5        0.0000 
    104 CA         33.4483   -0.7252   23.9153 C.3       4 GLC5        0.0000 
    105 CA         32.3380   -2.4080   24.0670 C.3      12 GLL5        0.0000 
    106 CA         34.9990    0.4410   23.6160 C.3       8 GLP5        0.0000 
    107 CA         30.0965   -2.5725   24.4875 C.3       4 GLC5        0.0000 
    108 CA         30.8465    0.6540   24.4595 C.3       4 GLC5        0.0000 
    109 CA         33.6745   -5.6045   22.5733 C.3       4 GLC5        0.0000 
    110 CA         33.3950   -3.8340   22.4390 C.3      12 GLL5        0.0000 
    111 CA         33.7540   -7.3200   23.4480 C.3       8 GLP5        0.0000 
    112 CA         35.2435   -4.3450   22.5797 C.3       4 GLC5        0.0000 
    113 CA         36.8920   -4.8010   23.4610 C.3       8 GLP5        0.0000 
    114 CA         31.8025   -2.8600   15.4990 C.3       4 GLC5        0.0000 
    115 CA         29.3498   -3.1113   17.1217 C.3       4 GLC5        0.0000 
@<TRIPOS>BOND
@<TRIPOS>SUBSTRUCTURE
     1 ALC1        4 GROUP        1 X    ALC  0     ROOT ALC X 1
     2 SEC2        1 GROUP        1 X    SEC  0     **** SEC X 2
     3 ASC3       36 GROUP        1 X    ASC  0     **** ASC X 3
     4 GLC5        7 GROUP        1 X    GLC  0     **** GLC X 6
     5 ALP1        6 GROUP        1 Y    ALP  0     ROOT ALP Y 8
     6 SEP2        3 GROUP        1 Y    SEP  0     **** SEP Y 9
     7 ASP3       38 GROUP        1 Y    ASP  0     **** ASP Y 10
     8 GLP5        9 GROUP        1 Y    GLP  0     **** GLP Y 13
     9 ALL1        5 GROUP        1 Z    ALL  0     ROOT ALL Z 15
    10 SEL2        2 GROUP        1 Z    SEL  0     **** SEL Z 16
    11 ASL3       37 GROUP        1 Z    ASL  0     **** ASL Z 17
    12 GLL5        8 GROUP        1 Z    GLL  0     **** GLL Z 20
@<TRIPOS>SET

