#    Name: 1xp6_AIU_1_ligand
#    Modification time : Tue Mar 25 10:28:15 2014

@<TRIPOS>MOLECULE
1xp6_AIU_1_ligand
   66    70     1     0     0
SMALL
NO_CHARGES


@<TRIPOS>ATOM
      1 C1         31.0270   -0.1900   28.7830 C.3       1 AIU600      0.0000 
      2 C2         31.2250   -1.6340   28.2420 C.3       1 AIU600      0.0000 
      3 O3         30.0210   -2.3830   28.5070 O.3       1 AIU600      0.0000 
      4 C4         28.8010   -1.9190   28.0510 C.ar      1 AIU600      0.0000 
      5 C5         27.8900   -2.9280   27.7530 C.ar      1 AIU600      0.0000 
      6 C6         26.6110   -2.6360   27.2660 C.ar      1 AIU600      0.0000 
      7 C7         26.2660   -1.2640   27.1360 C.ar      1 AIU600      0.0000 
      8 O8         25.0400   -0.9700   26.6450 O.3       1 AIU600      0.0000 
      9 C9         27.1900   -0.2550   27.4600 C.ar      1 AIU600      0.0000 
     10 C10        28.4850   -0.5530   27.8910 C.ar      1 AIU600      0.0000 
     11 S11        29.5020    0.5530   28.1750 S.3       1 AIU600      0.0000 
     12 C12        32.3330    0.5290   28.4880 C.ar      1 AIU600      0.0000 
     13 C13        32.5040    1.3730   27.3770 C.ar      1 AIU600      0.0000 
     14 C14        33.7600    1.9730   27.2170 C.ar      1 AIU600      0.0000 
     15 C15        34.7850    1.7270   28.1480 C.ar      1 AIU600      0.0000 
     16 O16        36.0150    2.2430   27.9460 O.3       1 AIU600      0.0000 
     17 C17        34.5960    0.9020   29.2720 C.ar      1 AIU600      0.0000 
     18 C18        33.3440    0.2940   29.4330 C.ar      1 AIU600      0.0000 
     19 C19        31.5760   -1.8410   26.7630 C.ar      1 AIU600      0.0000 
     20 C20        32.4990   -2.8610   26.4620 C.ar      1 AIU600      0.0000 
     21 C21        32.8860   -3.1410   25.1300 C.ar      1 AIU600      0.0000 
     22 C22        32.3380   -2.4080   24.0670 C.ar      1 AIU600      0.0000 
     23 C23        31.4570   -1.3750   24.3620 C.ar      1 AIU600      0.0000 
     24 C24        31.0550   -1.1170   25.6860 C.ar      1 AIU600      0.0000 
     25 O25        32.7200   -2.6100   22.7790 O.3       1 AIU600      0.0000 
     26 C26        33.3950   -3.8340   22.4390 C.3       1 AIU600      0.0000 
     27 C27        33.7950   -3.9440   20.9580 C.3       1 AIU600      0.0000 
     28 N28        32.6910   -4.0790   19.9940 N.4       1 AIU600      0.0000 
     29 C29        33.3300   -4.1290   18.6540 C.3       1 AIU600      0.0000 
     30 C30        32.2840   -3.5570   17.6700 C.3       1 AIU600      0.0000 
     31 C31        31.8080   -4.6130   16.6500 C.3       1 AIU600      0.0000 
     32 C32        31.0980   -3.1780   18.5790 C.3       1 AIU600      0.0000 
     33 C33        30.3090   -1.9930   18.0100 C.3       1 AIU600      0.0000 
     34 C34        31.7990   -2.9000   19.9220 C.3       1 AIU600      0.0000 
     35 H          30.8705   -0.2634   29.8583 H         1 AIU600      0.0000 
     36 H          32.0372   -2.0978   28.8441 H         1 AIU600      0.0000 
     37 H          28.1616   -3.9186   27.8937 H         1 AIU600      0.0000 
     38 H          25.9602   -3.3552   27.0173 H         1 AIU600      0.0000 
     39 H          26.8983    0.7371   27.3754 H         1 AIU600      0.0000 
     40 H          31.7566    1.5375   26.7270 H         1 AIU600      0.0000 
     41 H          33.9347    2.5935   26.4198 H         1 AIU600      0.0000 
     42 H          35.3386    0.7550   29.9379 H         1 AIU600      0.0000 
     43 H          33.1670   -0.3165   30.2324 H         1 AIU600      0.0000 
     44 H          32.9049   -3.4198   27.2297 H         1 AIU600      0.0000 
     45 H          33.5684   -3.8818   24.9473 H         1 AIU600      0.0000 
     46 H          31.0859   -0.7812   23.6016 H         1 AIU600      0.0000 
     47 H          30.3572   -0.3731   25.8625 H         1 AIU600      0.0000 
     48 H          32.7634   -4.7193   22.6757 H         1 AIU600      0.0000 
     49 H          34.3228   -3.9607   23.0405 H         1 AIU600      0.0000 
     50 H          34.4954   -4.8100   20.8627 H         1 AIU600      0.0000 
     51 H          34.4134   -3.0465   20.7096 H         1 AIU600      0.0000 
     52 H          32.1424   -4.9651   20.1415 H         1 AIU600      0.0000 
     53 H          33.5494   -5.1379   18.3702 H         1 AIU600      0.0000 
     54 H          34.2033   -3.5102   18.6212 H         1 AIU600      0.0000 
     55 H          32.6517   -2.7054   17.2060 H         1 AIU600      0.0000 
     56 H          30.4862   -4.0411   18.6882 H         1 AIU600      0.0000 
     57 H          32.3478   -2.0080   19.8419 H         1 AIU600      0.0000 
     58 H          31.0824   -2.9135   20.6898 H         1 AIU600      0.0000 
     59 H          32.5638   -4.9604   16.0950 H         1 AIU600      0.0000 
     60 H          31.3883   -5.4013   17.1000 H         1 AIU600      0.0000 
     61 H          31.1283   -4.2396   16.0187 H         1 AIU600      0.0000 
     62 H          30.8805   -1.1781   17.9140 H         1 AIU600      0.0000 
     63 H          29.9342   -2.1964   17.1055 H         1 AIU600      0.0000 
     64 H          29.5389   -1.7434   18.5970 H         1 AIU600      0.0000 
     65 H          24.7411   -1.8031   26.1796 H         1 AIU600      0.0000 
     66 H          36.0081    2.5652   26.9994 H         1 AIU600      0.0000 
@<TRIPOS>BOND
     1    2    1 1    
     2   11    1 1    
     3   12    1 1    
     4   35    1 1    
     5    3    2 1    
     6   19    2 1    
     7   36    2 1    
     8    4    3 1    
     9    5    4 ar   
    10   10    4 ar   
    11    6    5 ar   
    12   37    5 1    
    13    7    6 ar   
    14   38    6 1    
    15    8    7 1    
    16    9    7 ar   
    17   65    8 1    
    18   10    9 ar   
    19   39    9 1    
    20   11   10 1    
    21   13   12 ar   
    22   18   12 ar   
    23   14   13 ar   
    24   40   13 1    
    25   15   14 ar   
    26   41   14 1    
    27   16   15 1    
    28   17   15 ar   
    29   66   16 1    
    30   18   17 ar   
    31   42   17 1    
    32   43   18 1    
    33   20   19 ar   
    34   24   19 ar   
    35   21   20 ar   
    36   44   20 1    
    37   22   21 ar   
    38   45   21 1    
    39   23   22 ar   
    40   25   22 1    
    41   24   23 ar   
    42   46   23 1    
    43   47   24 1    
    44   26   25 1    
    45   27   26 1    
    46   48   26 1    
    47   49   26 1    
    48   28   27 1    
    49   50   27 1    
    50   51   27 1    
    51   29   28 1    
    52   34   28 1    
    53   52   28 1    
    54   30   29 1    
    55   53   29 1    
    56   54   29 1    
    57   31   30 1    
    58   32   30 1    
    59   55   30 1    
    60   59   31 1    
    61   60   31 1    
    62   61   31 1    
    63   33   32 1    
    64   34   32 1    
    65   56   32 1    
    66   62   33 1    
    67   63   33 1    
    68   64   33 1    
    69   57   34 1    
    70   58   34 1    
@<TRIPOS>SUBSTRUCTURE
     1 AIU600      1 GROUP   
@<TRIPOS>SET

