#    Name: 1J4H_1_CAVITY_N1_6.mol2
#    Modification time : Tue Mar 11 09:53:28 2014

@<TRIPOS>MOLECULE
1J4H_1_CAVITY_N1_6.mol2
   81     0     6     0     0
SMALL
NO_CHARGES


@<TRIPOS>ATOM
      1 N         -31.3819   34.1212   30.4077 N.2       2 ALA2        0.0000 
      2 CA        -31.8610   32.8830   29.7096 C.3       5 GLY6        0.0000 
      3 O         -31.7278   37.2735   31.5001 O.2       2 ALA2        0.0000 
      4 N         -32.7723   35.5254   32.0944 N.2       2 ALA2        0.0000 
      5 N         -32.2069   36.0353   30.8020 N.2       2 ALA2        0.0000 
      6 DU        -33.2514   34.2872   31.3963 H         6 CUB7        0.0000 
      7 CA        -32.6860   34.7971   30.1038 C.3       5 GLY6        0.0000 
      8 CA        -32.1206   35.3070   28.8114 C.3       5 GLY6        0.0000 
      9 CA        -33.1651   33.5589   29.4057 C.3       5 GLY6        0.0000 
     10 DU        -34.1628   36.9296   33.7810 H         6 CUB7        0.0000 
     11 OG        -33.5974   37.4395   32.4886 O.2       1 SER1        0.0000 
     12 DU        -34.0765   36.2013   31.7905 H         6 CUB7        0.0000 
     13 OG        -33.5111   36.7112   30.4981 O.2       1 SER1        0.0000 
     14 OG        -32.9457   37.2211   29.2057 O.2       1 SER1        0.0000 
     15 DU        -35.1210   34.4533   32.3848 H         6 CUB7        0.0000 
     16 DU        -34.5556   34.9632   31.0924 H         6 CUB7        0.0000 
     17 DU        -33.9902   35.4731   29.8000 H         6 CUB7        0.0000 
     18 CA        -33.4248   35.9829   28.5076 C.3       5 GLY6        0.0000 
     19 NZ        -35.0347   33.7250   30.3943 N.2       3 LYS4        0.0000 
     20 CA        -34.4693   34.2349   29.1019 C.3       5 GLY6        0.0000 
     21 CA        -33.9039   34.7448   27.8095 C.3       5 GLY6        0.0000 
     22 CA        -35.5138   32.4868   29.6962 C.3       5 GLY6        0.0000 
     23 N         -33.4642   41.8300   34.2791 N.2       2 ALA2        0.0000 
     24 O         -32.8988   42.3399   32.9867 O.2       2 ALA2        0.0000 
     25 N         -33.9433   40.5918   33.5810 N.2       2 ALA2        0.0000 
     26 OG        -33.3779   41.1017   32.2886 O.2       1 SER1        0.0000 
     27 CZ        -36.1186   37.8240   36.7601 C.ar      4 PHE5        0.0000 
     28 N         -35.5532   38.3339   35.4677 N.2       2 ALA2        0.0000 
     29 N         -34.9878   38.8438   34.1753 N.2       2 ALA2        0.0000 
     30 OG        -34.4224   39.3537   32.8829 O.2       1 SER1        0.0000 
     31 CZ        -36.0323   37.0957   34.7696 C.ar      4 PHE5        0.0000 
     32 DU        -35.4669   37.6056   33.4772 H         6 CUB7        0.0000 
     33 OG        -34.9015   38.1155   32.1848 O.2       1 SER1        0.0000 
     34 OG        -36.5114   35.8575   34.0715 O.2       1 SER1        0.0000 
     35 DU        -35.9460   36.3674   32.7790 H         6 CUB7        0.0000 
     36 OG        -35.3806   36.8773   31.4866 O.2       1 SER1        0.0000 
     37 OG        -34.8152   37.3872   30.1942 O.2       1 SER1        0.0000 
     38 OG        -36.4251   35.1292   32.0809 O.2       1 SER1        0.0000 
     39 DU        -35.8597   35.6391   30.7885 H         6 CUB7        0.0000 
     40 DU        -35.2943   36.1490   29.4961 H         6 CUB7        0.0000 
     41 CA        -34.7289   36.6589   28.2037 C.3       5 GLY6        0.0000 
     42 NZ        -36.3388   34.4009   30.0904 N.2       3 LYS4        0.0000 
     43 CZ        -35.7734   34.9108   28.7980 C.ar      4 PHE5        0.0000 
     44 CZ        -36.2525   33.6726   28.0999 C.ar      4 PHE5        0.0000 
     45 CA        -35.2474   41.2678   33.2771 C.3       5 GLY6        0.0000 
     46 O         -34.6820   41.7777   31.9847 O.2       2 ALA2        0.0000 
     47 CZ        -36.8573   39.0098   35.1638 C.ar      4 PHE5        0.0000 
     48 CA        -36.2919   39.5197   33.8714 C.3       5 GLY6        0.0000 
     49 OG        -35.7265   40.0296   32.5790 O.2       1 SER1        0.0000 
     50 CZ        -37.3365   37.7716   34.4657 C.ar      4 PHE5        0.0000 
     51 DU        -36.7710   38.2815   33.1733 H         6 CUB7        0.0000 
     52 OG        -36.2056   38.7914   31.8809 O.2       1 SER1        0.0000 
     53 CZ        -38.3810   36.0235   35.0600 C.ar      4 PHE5        0.0000 
     54 OG        -37.8156   36.5334   33.7676 O.2       1 SER1        0.0000 
     55 OG        -37.2502   37.0433   32.4752 O.2       1 SER1        0.0000 
     56 DU        -36.6847   37.5532   31.1828 H         6 CUB7        0.0000 
     57 OG        -36.1193   38.0631   29.8904 O.2       1 SER1        0.0000 
     58 OG        -35.5539   38.5730   28.5980 O.2       1 SER1        0.0000 
     59 OG        -37.1638   36.3150   30.4847 O.2       1 SER1        0.0000 
     60 CZ        -36.5984   36.8249   29.1923 C.ar      4 PHE5        0.0000 
     61 CZ        -36.0330   37.3348   27.8999 C.ar      4 PHE5        0.0000 
     62 NZ        -37.6430   35.0769   29.7866 N.2       3 LYS4        0.0000 
     63 CZ        -37.0775   35.5868   28.4942 C.ar      4 PHE5        0.0000 
     64 CA        -37.5961   40.1956   33.5675 C.3       5 GLY6        0.0000 
     65 CA        -37.0307   40.7055   32.2751 C.3       5 GLY6        0.0000 
     66 CA        -36.4653   41.2154   30.9827 C.3       5 GLY6        0.0000 
     67 CZ        -38.0752   38.9575   32.8694 C.ar      4 PHE5        0.0000 
     68 DU        -37.5098   39.4674   31.5770 H         6 CUB7        0.0000 
     69 OG        -36.9444   39.9773   30.2846 O.2       1 SER1        0.0000 
     70 OG        -39.1197   37.2094   33.4637 O.2       1 SER1        0.0000 
     71 OG        -38.5543   37.7193   32.1713 O.2       1 SER1        0.0000 
     72 CZ        -37.9889   38.2292   30.8789 C.ar      4 PHE5        0.0000 
     73 CZ        -37.4235   38.7391   29.5865 C.ar      4 PHE5        0.0000 
     74 CZ        -38.4680   36.9910   30.1808 C.ar      4 PHE5        0.0000 
     75 CZ        -37.9026   37.5009   28.8884 C.ar      4 PHE5        0.0000 
     76 CZ        -38.3348   41.3815   31.9713 C.ar      4 PHE5        0.0000 
     77 CZ        -39.3793   39.6334   32.5656 C.ar      4 PHE5        0.0000 
     78 CZ        -38.8139   40.1433   31.2732 C.ar      4 PHE5        0.0000 
     79 O         -38.2485   40.6532   29.9808 O.2       2 ALA2        0.0000 
     80 CZ        -39.8584   38.3952   31.8675 C.ar      4 PHE5        0.0000 
     81 CZ        -39.2930   38.9051   30.5751 C.ar      4 PHE5        0.0000 
@<TRIPOS>BOND
@<TRIPOS>SUBSTRUCTURE
     1 SER1       11 GROUP   
     2 ALA2        1 GROUP   
     3 LYS4       19 GROUP   
     4 PHE5       27 GROUP   
     5 GLY6        2 GROUP   
     6 CUB7        6 GROUP   
@<TRIPOS>SET

