#    Name: 1j4h_SUB_1_INTS_M
#    Modification time : Tue Mar 25 08:36:59 2014

@<TRIPOS>MOLECULE
1j4h_SUB_1_INTS_M
   48     0     6     0     0
SMALL
NO_CHARGES


@<TRIPOS>ATOM
      1 CA        -34.7900   41.6120   34.0490 C.3       2 GLC5        0.0000 
      2 CA        -33.6240   39.7710   33.5780 C.3       6 GLL5        0.0000 
      3 CA        -35.9560   43.4530   34.5200 C.3       4 GLP5        0.0000 
      4 CA        -33.9390   43.5765   34.0470 C.3       2 GLC5        0.0000 
      5 CA        -31.9220   43.7000   33.5740 C.3       6 GLL5        0.0000 
      6 N         -32.8415   40.3570   30.9455 N.am      1 SEC2        0.0000 
      7 N         -32.2730   41.0210   31.9540 N.am      5 SEL2        0.0000 
      8 N         -33.4100   39.6930   29.9370 N.am      3 SEP2        0.0000 
      9 N         -35.6450   42.7220   32.2875 N.am      1 SEC2        0.0000 
     10 N         -35.8130   41.2860   32.3430 N.am      5 SEL2        0.0000 
     11 N         -35.4770   44.1580   32.2320 N.am      3 SEP2        0.0000 
     12 CA        -40.3675   39.0560   31.6910 C.3       2 GLC5        0.0000 
     13 CA        -38.7940   38.1420   32.4040 C.3       6 GLL5        0.0000 
     14 CA        -41.9410   39.9700   30.9780 C.3       4 GLP5        0.0000 
     15 CA        -38.3255   40.9855   34.0075 C.3       2 GLC5        0.0000 
     16 CA        -38.6960   39.6760   32.6280 C.3       6 GLL5        0.0000 
     17 CA        -37.9550   42.2950   35.3870 C.3       4 GLP5        0.0000 
     18 CA        -37.1710   41.8950   30.3455 C.3       2 GLC5        0.0000 
     19 CA        -38.0220   40.0570   31.1130 C.3       6 GLL5        0.0000 
     20 CA        -36.3200   43.7330   29.5780 C.3       4 GLP5        0.0000 
     21 CA        -38.4805   39.7720   29.1525 C.3       2 GLC5        0.0000 
     22 CA        -38.9390   39.4870   27.1920 C.3       4 GLP5        0.0000 
     23 CA        -34.5135   39.7565   29.9560 C.3       2 GLC5        0.0000 
     24 CA        -36.4580   39.3720   30.9750 C.3       6 GLL5        0.0000 
     25 CA        -32.5690   40.1410   28.9370 C.3       4 GLP5        0.0000 
     26 CA        -37.3765   33.5835   29.2965 C.3       2 GLC5        0.0000 
     27 CA        -35.7610   34.7560   30.0760 C.3       6 GLL5        0.0000 
     28 CA        -38.9920   32.4110   28.5170 C.3       4 GLP5        0.0000 
     29 CA        -34.4970   32.7850   28.5665 C.3       2 GLC5        0.0000 
     30 CA        -34.7880   33.7410   30.3580 C.3       6 GLL5        0.0000 
     31 CA        -34.2060   31.8290   26.7750 C.3       4 GLP5        0.0000 
     32 CA        -33.8150   36.9445   27.6725 C.3       2 GLC5        0.0000 
     33 CA        -33.9640   36.4310   29.7670 C.3       6 GLL5        0.0000 
     34 CA        -33.6660   37.4580   25.5780 C.3       4 GLP5        0.0000 
     35 CA        -33.4200   44.7975   32.4532 C.3       2 GLC5        0.0000 
     36 CA        -34.9840   45.0970   31.2210 C.3       4 GLP5        0.0000 
     37 CA        -39.5108   36.5570   32.1020 C.3       2 GLC5        0.0000 
     38 CA        -37.3890   37.6300   32.3800 C.3       6 GLL5        0.0000 
     39 CA        -40.9300   35.2280   31.8120 C.3       4 GLP5        0.0000 
     40 CA        -39.4805   38.8980   34.1585 C.3       2 GLC5        0.0000 
     41 CA        -40.2160   38.8870   35.8010 C.3       4 GLP5        0.0000 
     42 CA        -39.8065   40.5188   31.2757 C.3       2 GLC5        0.0000 
     43 CA        -41.2540   41.1710   30.6810 C.3       4 GLP5        0.0000 
     44 CA        -31.0377   34.6351   29.8630 C.3       2 GLC5        0.0000 
     45 CA        -32.9580   35.4100   30.0530 C.3       6 GLL5        0.0000 
     46 CA        -29.3600   35.3710   29.3020 C.3       4 GLP5        0.0000 
     47 CA        -32.2147   33.7706   28.6165 C.3       2 GLC5        0.0000 
     48 CA        -31.7140   33.6420   26.8090 C.3       4 GLP5        0.0000 
@<TRIPOS>BOND
@<TRIPOS>SUBSTRUCTURE
     1 SEC2        6 GROUP        1 X    SEC  0     ROOT SEC X 2
     2 GLC5        1 GROUP        1 X    GLC  0     **** GLC X 6
     3 SEP2        8 GROUP        1 Y    SEP  0     ROOT SEP Y 9
     4 GLP5        3 GROUP        1 Y    GLP  0     **** GLP Y 13
     5 SEL2        7 GROUP        1 Z    SEL  0     ROOT SEL Z 16
     6 GLL5        2 GROUP        1 Z    GLL  0     **** GLL Z 20
@<TRIPOS>SET

