#    Name: 1j4h_SUB_1_ligand
#    Modification time : Tue Mar 25 08:36:59 2014

@<TRIPOS>MOLECULE
1j4h_SUB_1_ligand
   60    62     1     0     0
SMALL
NO_CHARGES


@<TRIPOS>ATOM
      1 C1        -35.5290   39.8570   31.9630 C.2       1 SUB201      0.0000 
      2 N1        -34.5150   39.0560   32.6350 N.am      1 SUB201      0.0000 
      3 C2        -33.6240   39.7710   33.5780 C.3       1 SUB201      0.0000 
      4 C3        -31.9220   43.7000   33.5740 C.3       1 SUB201      0.0000 
      5 C4        -32.9450   39.0340   34.9280 C.3       1 SUB201      0.0000 
      6 C5        -33.7890   37.7220   34.8100 C.ar      1 SUB201      0.0000 
      7 C6        -33.5520   36.7180   33.7510 C.ar      1 SUB201      0.0000 
      8 C7        -34.3560   35.4900   33.7060 C.ar      1 SUB201      0.0000 
      9 C8        -35.3940   35.2490   34.7090 C.ar      1 SUB201      0.0000 
     10 C9        -35.6240   36.2480   35.7470 C.ar      1 SUB201      0.0000 
     11 C10       -34.8220   37.4420   35.7710 C.ar      1 SUB201      0.0000 
     12 O1        -32.7650   42.4710   34.0890 O.3       1 SUB201      0.0000 
     13 O2        -32.2730   41.0210   31.9540 O.2       1 SUB201      0.0000 
     14 C11       -33.0090   41.1180   33.4290 C.2       1 SUB201      0.0000 
     15 C12       -31.7900   45.2960   33.7970 C.3       1 SUB201      0.0000 
     16 C13       -37.3890   37.6300   32.3800 C.3       1 SUB201      0.0000 
     17 O3        -35.8130   41.2860   32.3430 O.2       1 SUB201      0.0000 
     18 C14       -38.7940   38.1420   32.4040 C.3       1 SUB201      0.0000 
     19 S1        -38.6960   39.6760   32.6280 S.3       1 SUB201      0.0000 
     20 C15       -38.0220   40.0570   31.1130 C.3       1 SUB201      0.0000 
     21 C16       -36.4580   39.3720   30.9750 C.3       1 SUB201      0.0000 
     22 N2        -36.7040   37.8210   31.1070 N.pl3     1 SUB201      0.0000 
     23 S2        -36.5860   37.2930   29.4710 S.o2      1 SUB201      0.0000 
     24 C17       -35.3380   36.1030   29.7820 C.ar      1 SUB201      0.0000 
     25 C18       -35.7610   34.7560   30.0760 C.ar      1 SUB201      0.0000 
     26 C19       -34.7880   33.7410   30.3580 C.ar      1 SUB201      0.0000 
     27 C20       -33.3500   34.0810   30.3470 C.ar      1 SUB201      0.0000 
     28 C21       -32.9580   35.4100   30.0530 C.ar      1 SUB201      0.0000 
     29 C22       -33.9640   36.4310   29.7670 C.ar      1 SUB201      0.0000 
     30 O4        -36.2430   38.2380   28.4390 O.2       1 SUB201      0.0000 
     31 O5        -37.7980   36.4120   29.5800 O.2       1 SUB201      0.0000 
     32 C23       -32.2770   33.0530   30.6480 C.3       1 SUB201      0.0000 
     33 H         -34.4180   38.0963   32.4799 H         1 SUB201      0.0000 
     34 H         -34.6466   40.2638   34.3913 H         1 SUB201      0.0000 
     35 H         -31.9478   43.5940   32.3522 H         1 SUB201      0.0000 
     36 H         -30.7585   43.3162   33.6361 H         1 SUB201      0.0000 
     37 H         -33.2326   39.5813   35.7258 H         1 SUB201      0.0000 
     38 H         -31.9758   38.8649   34.7026 H         1 SUB201      0.0000 
     39 H         -32.8405   36.8797   33.0647 H         1 SUB201      0.0000 
     40 H         -34.1908   34.8126   32.9814 H         1 SUB201      0.0000 
     41 H         -35.9365   34.4114   34.6816 H         1 SUB201      0.0000 
     42 H         -36.3396   36.0948   36.4361 H         1 SUB201      0.0000 
     43 H         -34.9979   38.1373   36.5205 H         1 SUB201      0.0000 
     44 H         -37.4024   36.5476   32.6465 H         1 SUB201      0.0000 
     45 H         -36.8176   38.1268   33.1982 H         1 SUB201      0.0000 
     46 H         -39.3420   37.7138   33.2187 H         1 SUB201      0.0000 
     47 H         -39.2802   37.9658   31.4658 H         1 SUB201      0.0000 
     48 H         -37.9173   41.0979   31.0572 H         1 SUB201      0.0000 
     49 H         -38.6233   39.6239   30.3725 H         1 SUB201      0.0000 
     50 H         -36.1823   39.5665   29.9621 H         1 SUB201      0.0000 
     51 H         -36.7489   34.5298   30.0825 H         1 SUB201      0.0000 
     52 H         -35.0633   32.7970   30.5644 H         1 SUB201      0.0000 
     53 H         -31.9782   35.6745   30.0360 H         1 SUB201      0.0000 
     54 H         -33.6519   37.3747   29.5589 H         1 SUB201      0.0000 
     55 H         -31.5577   45.5208   34.7433 H         1 SUB201      0.0000 
     56 H         -31.0786   45.6943   33.2180 H         1 SUB201      0.0000 
     57 H         -32.6427   45.7726   33.5833 H         1 SUB201      0.0000 
     58 H         -31.3598   33.4483   30.5991 H         1 SUB201      0.0000 
     59 H         -32.3806   32.6653   31.5639 H         1 SUB201      0.0000 
     60 H         -32.3021   32.2900   30.0021 H         1 SUB201      0.0000 
@<TRIPOS>BOND
     1    2    1 am   
     2   17    1 2    
     3   21    1 1    
     4    3    2 1    
     5   33    2 1    
     6    5    3 1    
     7   14    3 1    
     8   34    3 1    
     9   12    4 1    
    10   15    4 1    
    11   35    4 1    
    12   36    4 1    
    13    6    5 1    
    14   37    5 1    
    15   38    5 1    
    16    7    6 ar   
    17   11    6 ar   
    18    8    7 ar   
    19   39    7 1    
    20    9    8 ar   
    21   40    8 1    
    22   10    9 ar   
    23   41    9 1    
    24   11   10 ar   
    25   42   10 1    
    26   43   11 1    
    27   14   12 1    
    28   14   13 2    
    29   55   15 1    
    30   56   15 1    
    31   57   15 1    
    32   18   16 1    
    33   22   16 1    
    34   44   16 1    
    35   45   16 1    
    36   19   18 1    
    37   46   18 1    
    38   47   18 1    
    39   20   19 1    
    40   21   20 1    
    41   48   20 1    
    42   49   20 1    
    43   22   21 1    
    44   50   21 1    
    45   23   22 1    
    46   24   23 1    
    47   30   23 2    
    48   31   23 2    
    49   25   24 ar   
    50   29   24 ar   
    51   26   25 ar   
    52   51   25 1    
    53   27   26 ar   
    54   52   26 1    
    55   28   27 ar   
    56   32   27 1    
    57   29   28 ar   
    58   53   28 1    
    59   54   29 1    
    60   58   32 1    
    61   59   32 1    
    62   60   32 1    
@<TRIPOS>SUBSTRUCTURE
     1 SUB201      1 GROUP   
@<TRIPOS>SET

