#    Name: 3sr0_ADP_2_INTS_M
#    Modification time : Mon Mar 24 18:05:20 2014

@<TRIPOS>MOLECULE
3sr0_ADP_2_INTS_M
   64     0    15     0     0
SMALL
NO_CHARGES


@<TRIPOS>ATOM
      1 NZ        -18.9750  -31.8600   -1.6635 N.4       3 LYC4        0.0000 
      2 NZ        -19.2490  -30.5670   -2.0300 N.4      13 LYL4        0.0000 
      3 NZ        -18.7010  -33.1530   -1.2970 N.4       8 LYP4        0.0000 
      4 N         -20.5675  -30.0905   -2.5435 N.am      2 SEC2        0.0000 
      5 N         -19.2490  -30.5670   -2.0300 N.am     12 SEL2        0.0000 
      6 N         -21.8860  -29.6140   -3.0570 N.am      7 SEP2        0.0000 
      7 N         -20.2080  -29.9615   -1.2185 N.am      2 SEC2        0.0000 
      8 N         -21.1670  -29.3560   -0.4070 N.am      7 SEP2        0.0000 
      9 N         -18.9750  -31.8600   -1.6635 N.am      2 SEC2        0.0000 
     10 N         -18.7010  -33.1530   -1.2970 N.am      7 SEP2        0.0000 
     11 NZ        -17.8705  -31.6395   -2.2360 N.4       3 LYC4        0.0000 
     12 NZ        -17.0400  -30.1260   -3.1750 N.4      13 LYL4        0.0000 
     13 N         -17.6110  -30.9230   -4.2485 N.am      2 SEC2        0.0000 
     14 N         -17.0400  -30.1260   -3.1750 N.am     12 SEL2        0.0000 
     15 N         -18.1820  -31.7200   -5.3220 N.am      7 SEP2        0.0000 
     16 N         -16.2875  -28.9960   -3.9310 N.am      2 SEC2        0.0000 
     17 N         -15.5350  -27.8660   -4.6870 N.am      7 SEP2        0.0000 
     18 Zn        -16.5315  -28.4635   -0.8745 Zn        4 ZIC7        0.0000 
     19 Zn        -17.6660  -28.7960   -1.1110 Zn       14 ZIL7        0.0000 
     20 Zn        -15.3970  -28.1310   -0.6380 Zn        9 ZIP7        0.0000 
     21 N         -18.4465  -28.3130   -0.0430 N.am      2 SEC2        0.0000 
     22 N         -17.6660  -28.7960   -1.1110 N.am     12 SEL2        0.0000 
     23 N         -19.2270  -27.8300    1.0250 N.am      7 SEP2        0.0000 
     24 NZ        -16.4790  -27.1025   -3.9855 N.4       3 LYC4        0.0000 
     25 NZ        -17.4230  -26.3390   -3.2840 N.4      13 LYL4        0.0000 
     26 NZ        -14.6590  -27.7920   -5.6990 N.4       8 LYP4        0.0000 
     27 N         -16.4790  -27.1025   -3.9855 N.am      2 SEC2        0.0000 
     28 N         -17.4230  -26.3390   -3.2840 N.am     12 SEL2        0.0000 
     29 N         -19.9690  -25.8425   -0.7280 N.am      2 SEC2        0.0000 
     30 N         -19.7410  -26.3950   -2.0530 N.am     12 SEL2        0.0000 
     31 N         -20.1970  -25.2900    0.5970 N.am      7 SEP2        0.0000 
     32 N         -20.3030  -25.1990   -1.9645 N.am      2 SEC2        0.0000 
     33 N         -20.8650  -24.0030   -1.8760 N.am      7 SEP2        0.0000 
     34 N         -20.3725  -29.0320   -3.1750 N.am      2 SEC2        0.0000 
     35 N         -18.8590  -28.4500   -3.2930 N.am     12 SEL2        0.0000 
     36 CA        -19.1255  -28.8200   -5.9110 C.3       5 GLC5        0.0000 
     37 CA        -19.2450  -26.8680   -5.7840 C.3      15 GLL5        0.0000 
     38 CA        -19.0060  -30.7720   -6.0380 C.3      10 GLP5        0.0000 
     39 CA        -19.7960  -24.8825   -8.7860 C.3       5 GLC5        0.0000 
     40 CA        -19.4420  -25.7760   -6.8210 C.3      15 GLL5        0.0000 
     41 CA        -20.1500  -23.9890  -10.7510 C.3      10 GLP5        0.0000 
     42 O         -28.2950  -26.2825   -4.9715 O.2       1 ALC1        0.0000 
     43 O         -26.9890  -25.8620   -4.7440 O.2      11 ALL1        0.0000 
     44 O         -29.6010  -26.7030   -5.1990 O.2       6 ALP1        0.0000 
     45 CA        -24.4220  -26.4325   -7.9090 C.3       5 GLC5        0.0000 
     46 CA        -25.5840  -24.5810   -7.7920 C.3      15 GLL5        0.0000 
     47 CA        -23.2600  -28.2840   -8.0260 C.3      10 GLP5        0.0000 
     48 CA        -25.1350  -23.1735   -8.8830 C.3       5 GLC5        0.0000 
     49 CA        -24.6860  -21.7660   -9.9740 C.3      10 GLP5        0.0000 
     50 CA        -20.2332  -27.2380   -7.7912 C.3       5 GLC5        0.0000 
     51 CA        -21.1230  -28.1540   -9.2800 C.3      10 GLP5        0.0000 
     52 CA        -17.2404  -25.4050   -6.2401 C.3       5 GLC5        0.0000 
     53 CA        -15.3020  -25.4560   -6.1320 C.3      10 GLP5        0.0000 
     54 CA        -18.1975  -23.0807   -5.1762 C.3       5 GLC5        0.0000 
     55 CA        -19.0140  -24.3860   -6.3940 C.3      15 GLL5        0.0000 
     56 CA        -16.7530  -22.0860   -4.2420 C.3      10 GLP5        0.0000 
     57 CA        -20.6662  -22.8792   -7.9405 C.3       5 GLC5        0.0000 
     58 CA        -20.2700  -23.7650   -5.8270 C.3      15 GLL5        0.0000 
     59 CA        -20.5050  -21.6690   -9.6600 C.3      10 GLP5        0.0000 
     60 CA        -23.7438  -26.6638   -6.9337 C.3       5 GLC5        0.0000 
     61 CA        -23.7860  -24.7870   -6.3660 C.3      15 GLL5        0.0000 
     62 CA        -25.3600  -23.8740   -4.6119 C.3       5 GLC5        0.0000 
     63 CA        -24.6690  -25.3000   -5.3170 C.3      15 GLL5        0.0000 
     64 CA        -26.1340  -22.6800   -3.2970 C.3      10 GLP5        0.0000 
@<TRIPOS>BOND
@<TRIPOS>SUBSTRUCTURE
     1 ALC1       42 GROUP        1 X    ALC  0     ROOT ALC X 1
     2 SEC2        4 GROUP        1 X    SEC  0     **** SEC X 2
     3 LYC4        1 GROUP        1 X    LYC  0     **** LYC X 4
     4 ZIC7       18 GROUP        1 X    ZIC  0     **** ZIC X 5
     5 GLC5       36 GROUP        1 X    GLC  0     **** GLC X 6
     6 ALP1       44 GROUP        1 Y    ALP  0     ROOT ALP Y 8
     7 SEP2        6 GROUP        1 Y    SEP  0     **** SEP Y 9
     8 LYP4        3 GROUP        1 Y    LYP  0     **** LYP Y 11
     9 ZIP7       20 GROUP        1 Y    ZIP  0     **** ZIP Y 12
    10 GLP5       38 GROUP        1 Y    GLP  0     **** GLP Y 13
    11 ALL1       43 GROUP        1 Z    ALL  0     ROOT ALL Z 15
    12 SEL2        5 GROUP        1 Z    SEL  0     **** SEL Z 16
    13 LYL4        2 GROUP        1 Z    LYL  0     **** LYL Z 18
    14 ZIL7       19 GROUP        1 Z    ZIL  0     **** ZIL Z 19
    15 GLL5       37 GROUP        1 Z    GLL  0     **** GLL Z 20
@<TRIPOS>SET

