#    Name: 3sr0_ADP_2_ligand
#    Modification time : Mon Mar 24 18:05:20 2014

@<TRIPOS>MOLECULE
3sr0_ADP_2_ligand
   39    41     1     0     0
SMALL
NO_CHARGES


@<TRIPOS>ATOM
      1 PB        -18.1760  -29.5650   -2.3160 P.3       1 ADP207      0.0000 
      2 O1B       -19.2490  -30.5670   -2.0300 O.co2     1 ADP207      0.0000 
      3 O2B       -17.0400  -30.1260   -3.1750 O.co2     1 ADP207      0.0000 
      4 O3B       -17.6660  -28.7960   -1.1110 O.co2     1 ADP207      0.0000 
      5 PA        -18.8590  -26.8250   -3.1880 P.3       1 ADP207      0.0000 
      6 O1A       -17.4230  -26.3390   -3.2840 O.co2     1 ADP207      0.0000 
      7 O2A       -19.7410  -26.3950   -2.0530 O.co2     1 ADP207      0.0000 
      8 O3A       -18.8590  -28.4500   -3.2930 O.3       1 ADP207      0.0000 
      9 O5'       -19.7370  -26.4350   -4.4780 O.3       1 ADP207      0.0000 
     10 C5'       -19.2450  -26.8680   -5.7840 C.3       1 ADP207      0.0000 
     11 C4'       -19.4420  -25.7760   -6.8210 C.3       1 ADP207      0.0000 
     12 O4'       -20.8740  -25.6750   -7.0840 O.3       1 ADP207      0.0000 
     13 C3'       -19.0140  -24.3860   -6.3940 C.3       1 ADP207      0.0000 
     14 O3'       -18.5750  -23.7090   -7.5720 O.3       1 ADP207      0.0000 
     15 C2'       -20.2700  -23.7650   -5.8270 C.3       1 ADP207      0.0000 
     16 O2'       -20.2950  -22.3500   -6.0230 O.3       1 ADP207      0.0000 
     17 C1'       -21.3850  -24.4140   -6.6150 C.3       1 ADP207      0.0000 
     18 N9        -22.5740  -24.7780   -5.8410 N.pl3     1 ADP207      0.0000 
     19 C8        -22.6250  -25.2370   -4.5540 C.2       1 ADP207      0.0000 
     20 N7        -23.9030  -25.5430   -4.2100 N.2       1 ADP207      0.0000 
     21 C5        -24.6690  -25.3000   -5.3170 C.ar      1 ADP207      0.0000 
     22 C6        -26.1030  -25.3980   -5.6580 C.ar      1 ADP207      0.0000 
     23 N6        -26.9890  -25.8620   -4.7440 N.pl3     1 ADP207      0.0000 
     24 N1        -26.4710  -25.0260   -6.8830 N.ar      1 ADP207      0.0000 
     25 C2        -25.5840  -24.5810   -7.7920 C.ar      1 ADP207      0.0000 
     26 N3        -24.2650  -24.4370   -7.5780 N.ar      1 ADP207      0.0000 
     27 C4        -23.7860  -24.7870   -6.3660 C.ar      1 ADP207      0.0000 
     28 H         -19.7771  -27.7660   -6.1210 H         1 ADP207      0.0000 
     29 H         -18.1765  -27.1109   -5.7353 H         1 ADP207      0.0000 
     30 H         -18.9382  -26.0404   -7.7297 H         1 ADP207      0.0000 
     31 H         -18.2832  -24.4699   -5.6523 H         1 ADP207      0.0000 
     32 H         -20.3666  -24.0528   -4.8107 H         1 ADP207      0.0000 
     33 H         -21.6448  -23.8053   -7.4502 H         1 ADP207      0.0000 
     34 H         -21.8514  -25.3296   -3.9704 H         1 ADP207      0.0000 
     35 H         -26.6082  -26.1315   -3.8595 H         1 ADP207      0.0000 
     36 H         -27.9452  -25.8939   -5.0349 H         1 ADP207      0.0000 
     37 H         -25.9616  -24.3198   -8.7677 H         1 ADP207      0.0000 
     38 H         -17.6240  -23.4603   -7.3882 H         1 ADP207      0.0000 
     39 H         -19.5155  -22.1576   -6.6191 H         1 ADP207      0.0000 
@<TRIPOS>BOND
     1    2    1 ar   
     2    3    1 ar   
     3    4    1 ar   
     4    8    1 1    
     5    6    5 ar   
     6    7    5 ar   
     7    8    5 1    
     8    9    5 1    
     9   10    9 1    
    10   11   10 1    
    11   28   10 1    
    12   29   10 1    
    13   12   11 1    
    14   13   11 1    
    15   30   11 1    
    16   17   12 1    
    17   14   13 1    
    18   15   13 1    
    19   31   13 1    
    20   38   14 1    
    21   16   15 1    
    22   17   15 1    
    23   32   15 1    
    24   39   16 1    
    25   18   17 1    
    26   33   17 1    
    27   19   18 1    
    28   27   18 1    
    29   20   19 2    
    30   34   19 1    
    31   21   20 1    
    32   22   21 ar   
    33   27   21 ar   
    34   23   22 1    
    35   24   22 ar   
    36   35   23 1    
    37   36   23 1    
    38   25   24 ar   
    39   26   25 ar   
    40   37   25 1    
    41   27   26 ar   
@<TRIPOS>SUBSTRUCTURE
     1 ADP207      1 GROUP   
@<TRIPOS>SET

