#    Name: 2poq_ISD_1_INTS_M
#    Modification time : Mon Mar 24 19:17:42 2014

@<TRIPOS>MOLECULE
2poq_ISD_1_INTS_M
   31     0    12     0     0
SMALL
NO_CHARGES


@<TRIPOS>ATOM
      1 N         -17.0035  -48.0450    2.1225 N.am      2 SEC2        0.0000 
      2 N         -15.4620  -47.8030    2.6370 N.am     10 SEL2        0.0000 
      3 N         -18.5450  -48.2870    1.6080 N.am      6 SEP2        0.0000 
      4 CA        -15.6125  -46.2710    6.5150 C.3       4 GLC5        0.0000 
      5 CA        -15.7920  -46.7720    4.4890 C.3      12 GLL5        0.0000 
      6 CA        -15.4330  -45.7700    8.5410 C.3       8 GLP5        0.0000 
      7 CA        -17.2920  -45.6745    5.5255 C.3       4 GLC5        0.0000 
      8 CA        -18.7920  -44.5770    6.5620 C.3       8 GLP5        0.0000 
      9 CA        -17.5920  -47.6980    4.1720 C.3       4 GLC5        0.0000 
     10 CA        -19.3920  -48.6240    3.8550 C.3       8 GLP5        0.0000 
     11 NZ        -14.9420  -45.9305    6.5595 N.4       3 LYC4        0.0000 
     12 NZ        -14.4850  -45.1570    5.7440 N.4      11 LYL4        0.0000 
     13 NZ        -15.3990  -46.7040    7.3750 N.4       7 LYP4        0.0000 
     14 N         -14.9420  -45.9305    6.5595 N.am      2 SEC2        0.0000 
     15 N         -14.4850  -45.1570    5.7440 N.am     10 SEL2        0.0000 
     16 N         -15.3990  -46.7040    7.3750 N.am      6 SEP2        0.0000 
     17 CA        -17.3450  -44.5540    5.1480 C.3       4 GLC5        0.0000 
     18 CA        -15.8980  -44.5310    3.7340 C.3      12 GLL5        0.0000 
     19 CA        -16.1370  -41.7045    4.9685 C.3       4 GLC5        0.0000 
     20 CA        -15.7240  -42.0410    2.8600 C.3      12 GLL5        0.0000 
     21 CA        -16.5500  -41.3680    7.0770 C.3       8 GLP5        0.0000 
     22 CA        -16.5900  -40.1010    3.1630 C.3       4 GLC5        0.0000 
     23 CA        -17.4560  -38.1610    3.4660 C.3       8 GLP5        0.0000 
     24 CA        -17.7420  -41.9885    3.5820 C.3       4 GLC5        0.0000 
     25 CA        -19.7600  -41.9360    4.3040 C.3       8 GLP5        0.0000 
     26 N         -17.1605  -40.4695    1.4580 N.am      2 SEC2        0.0000 
     27 N         -16.0470  -41.8130    1.4730 N.am     10 SEL2        0.0000 
     28 N         -18.2740  -39.1260    1.4430 N.am      6 SEP2        0.0000 
     29 O         -17.1605  -40.4695    1.4580 O.2       1 ALC1        0.0000 
     30 O         -16.0470  -41.8130    1.4730 O.2       9 ALL1        0.0000 
     31 O         -18.2740  -39.1260    1.4430 O.2       5 ALP1        0.0000 
@<TRIPOS>BOND
@<TRIPOS>SUBSTRUCTURE
     1 ALC1       29 GROUP        1 X    ALC  0     ROOT ALC X 1
     2 SEC2        1 GROUP        1 X    SEC  0     **** SEC X 2
     3 LYC4       11 GROUP        1 X    LYC  0     **** LYC X 4
     4 GLC5        4 GROUP        1 X    GLC  0     **** GLC X 6
     5 ALP1       31 GROUP        1 Y    ALP  0     ROOT ALP Y 8
     6 SEP2        3 GROUP        1 Y    SEP  0     **** SEP Y 9
     7 LYP4       13 GROUP        1 Y    LYP  0     **** LYP Y 11
     8 GLP5        6 GROUP        1 Y    GLP  0     **** GLP Y 13
     9 ALL1       30 GROUP        1 Z    ALL  0     ROOT ALL Z 15
    10 SEL2        2 GROUP        1 Z    SEL  0     **** SEL Z 16
    11 LYL4       12 GROUP        1 Z    LYL  0     **** LYL Z 18
    12 GLL5        5 GROUP        1 Z    GLL  0     **** GLL Z 20
@<TRIPOS>SET

