#    Name: 2poq_ISD_1_ligand
#    Modification time : Mon Mar 24 19:17:42 2014

@<TRIPOS>MOLECULE
2poq_ISD_1_ligand
   19    19     1     0     0
SMALL
NO_CHARGES


@<TRIPOS>ATOM
      1 O6        -15.4620  -47.8030    2.6370 O.2       1 ISD500      0.0000 
      2 C5        -15.8510  -46.8260    3.2280 C.2       1 ISD500      0.0000 
      3 C4        -15.7920  -46.7720    4.4890 C.2       1 ISD500      0.0000 
      4 O8        -16.2030  -47.8320    5.2000 O.3       1 ISD500      0.0000 
      5 C3        -15.3490  -45.5140    4.7700 C.2       1 ISD500      0.0000 
      6 O7        -14.4850  -45.1570    5.7440 O.co2     1 ISD500      0.0000 
      7 O1        -16.2980  -45.5250    2.7460 O.3       1 ISD500      0.0000 
      8 C2        -15.8980  -44.5310    3.7340 C.3       1 ISD500      0.0000 
      9 C9        -14.9920  -43.3640    3.1580 C.3       1 ISD500      0.0000 
     10 O11       -13.8600  -42.9860    3.9670 O.3       1 ISD500      0.0000 
     11 C13       -15.7240  -42.0410    2.8600 C.3       1 ISD500      0.0000 
     12 O14       -16.0470  -41.8130    1.4730 O.3       1 ISD500      0.0000 
     13 H         -16.8168  -44.1114    4.1558 H         1 ISD500      0.0000 
     14 H         -14.6072  -43.7153    2.1666 H         1 ISD500      0.0000 
     15 H         -15.0865  -41.2164    3.2618 H         1 ISD500      0.0000 
     16 H         -16.6453  -42.0271    3.4916 H         1 ISD500      0.0000 
     17 H         -15.5898  -48.5757    4.9336 H         1 ISD500      0.0000 
     18 H         -13.8241  -43.6688    4.6968 H         1 ISD500      0.0000 
     19 H         -16.6992  -41.0550    1.4805 H         1 ISD500      0.0000 
@<TRIPOS>BOND
     1    2    1 2    
     2    3    2 1    
     3    7    2 1    
     4    4    3 1    
     5    5    3 2    
     6   17    4 1    
     7    6    5 ar   
     8    8    5 1    
     9    8    7 1    
    10    9    8 1    
    11   13    8 1    
    12   10    9 1    
    13   11    9 1    
    14   14    9 1    
    15   18   10 1    
    16   12   11 1    
    17   15   11 1    
    18   16   11 1    
    19   19   12 1    
@<TRIPOS>SUBSTRUCTURE
     1 ISD500      1 GROUP   
@<TRIPOS>SET

