#    Name: 1s19_MC9_1_INTS_M
#    Modification time : Tue Mar 25 01:43:29 2014

@<TRIPOS>MOLECULE
1s19_MC9_1_INTS_M
  119     0     9     0     0
SMALL
NO_CHARGES


@<TRIPOS>ATOM
      1 N          17.9695   17.1575   35.1710 N.am      2 SEC2        0.0000 
      2 N          17.0960   18.1590   34.7840 N.am      8 SEL2        0.0000 
      3 N          18.8430   16.1560   35.5580 N.am      5 SEP2        0.0000 
      4 O          18.0410   19.0135   34.0590 O.2       1 ALC1        0.0000 
      5 O          17.0960   18.1590   34.7840 O.2       7 ALL1        0.0000 
      6 O          18.9860   19.8680   33.3340 O.2       4 ALP1        0.0000 
      7 N          13.2840   16.1910   37.1635 N.am      2 SEC2        0.0000 
      8 N          13.1260   17.4540   36.5350 N.am      8 SEL2        0.0000 
      9 N          13.4420   14.9280   37.7920 N.am      5 SEP2        0.0000 
     10 O          11.8915   17.1045   35.9860 O.2       1 ALC1        0.0000 
     11 O          13.1260   17.4540   36.5350 O.2       7 ALL1        0.0000 
     12 O          10.6570   16.7550   35.4370 O.2       4 ALP1        0.0000 
     13 CA         14.4195   17.8410   37.6095 C.3       3 GLC5        0.0000 
     14 CA         14.1810   18.0370   35.6980 C.3       9 GLL5        0.0000 
     15 CA         14.6580   17.6450   39.5210 C.3       6 GLP5        0.0000 
     16 CA         15.6805   19.2255   36.5220 C.3       3 GLC5        0.0000 
     17 CA         17.1800   20.4140   37.3460 C.3       6 GLP5        0.0000 
     18 CA         16.2000   16.0530   36.0100 C.3       3 GLC5        0.0000 
     19 CA         14.9150   16.9590   34.7840 C.3       9 GLL5        0.0000 
     20 CA         17.4850   15.1470   37.2360 C.3       6 GLP5        0.0000 
     21 CA         17.2875   16.3380   35.0920 C.3       3 GLC5        0.0000 
     22 CA         16.0750   17.6280   33.8850 C.3       9 GLL5        0.0000 
     23 CA         18.5000   15.0480   36.2990 C.3       6 GLP5        0.0000 
     24 CA         17.2095   16.2935   33.1000 C.3       3 GLC5        0.0000 
     25 CA         18.3440   14.9590   32.3150 C.3       6 GLP5        0.0000 
     26 CA         18.0295   18.2805   33.4420 C.3       3 GLC5        0.0000 
     27 CA         19.9840   18.9330   32.9990 C.3       6 GLP5        0.0000 
     28 CA         14.8695   17.1820   31.8095 C.3       3 GLC5        0.0000 
     29 CA         15.4830   18.8070   32.9870 C.3       9 GLL5        0.0000 
     30 CA         14.2560   15.5570   30.6320 C.3       6 GLP5        0.0000 
     31 CA         13.5195   18.2095   32.2310 C.3       3 GLC5        0.0000 
     32 CA         11.5560   17.6120   31.4750 C.3       6 GLP5        0.0000 
     33 CA         15.7410   24.4630   34.1535 C.3       3 GLC5        0.0000 
     34 CA         13.9860   23.6240   33.8520 C.3       9 GLL5        0.0000 
     35 CA         17.4960   25.3020   34.4550 C.3       6 GLP5        0.0000 
     36 CA         16.0100   24.6280   32.7155 C.3       3 GLC5        0.0000 
     37 CA         14.4350   24.1110   32.3790 C.3       9 GLL5        0.0000 
     38 CA         17.5850   25.1450   33.0520 C.3       6 GLP5        0.0000 
     39 CA         12.5785   18.4035   33.1240 C.3       3 GLC5        0.0000 
     40 CA         13.6010   19.1950   34.7730 C.3       9 GLL5        0.0000 
     41 CA         14.9210   20.3660   35.8345 C.3       3 GLC5        0.0000 
     42 CA         16.2410   21.5370   36.8960 C.3       6 GLP5        0.0000 
     43 CA         11.7840   24.0310   30.1650 C.3       3 GLC5        0.0000 
     44 CA         13.1870   24.6460   31.4910 C.3       9 GLL5        0.0000 
     45 CA         10.3810   23.4160   28.8390 C.3       6 GLP5        0.0000 
     46 CA         15.2005   25.4310   31.8585 C.3       3 GLC5        0.0000 
     47 CA         17.2140   26.2160   32.2260 C.3       6 GLP5        0.0000 
     48 CA         10.8445   25.6500   30.7765 C.3       3 GLC5        0.0000 
     49 CA         12.2310   25.5920   32.3910 C.3       9 GLL5        0.0000 
     50 CA          9.4580   25.7080   29.1620 C.3       6 GLP5        0.0000 
     51 CA         15.1505   25.6075   34.8585 C.3       3 GLC5        0.0000 
     52 CA         13.2500   24.7290   34.6670 C.3       9 GLL5        0.0000 
     53 CA         17.0510   26.4860   35.0500 C.3       6 GLP5        0.0000 
     54 CA         11.9530   22.7625   37.1250 C.3       3 GLC5        0.0000 
     55 CA         12.6990   24.3720   36.2220 C.3       9 GLL5        0.0000 
     56 CA         11.2070   21.1530   38.0280 C.3       6 GLP5        0.0000 
     57 CA          9.7760   25.0060   37.7955 C.3       3 GLC5        0.0000 
     58 CA         11.4750   25.3840   36.3800 C.3       9 GLL5        0.0000 
     59 CA          8.0770   24.6280   39.2110 C.3       6 GLP5        0.0000 
     60 CA          9.3200   22.7720   34.0345 C.3       3 GLC5        0.0000 
     61 CA         10.7870   23.7830   33.6420 C.3       9 GLL5        0.0000 
     62 CA          7.8530   21.7610   34.4270 C.3       6 GLP5        0.0000 
     63 CA         11.5590   19.2670   33.1435 C.3       3 GLC5        0.0000 
     64 CA         12.2570   19.5560   34.8130 C.3       9 GLL5        0.0000 
     65 CA         10.8610   18.9780   31.4740 C.3       6 GLP5        0.0000 
     66 CA         11.0630   18.1345   35.7140 C.3       3 GLC5        0.0000 
     67 CA          9.8690   16.7130   36.6150 C.3       6 GLP5        0.0000 
     68 CA          8.3425   25.3915   37.1450 C.3       3 GLC5        0.0000 
     69 CA          8.6080   26.1550   35.0790 C.3       9 GLL5        0.0000 
     70 CA          6.4430   27.7065   33.9485 C.3       3 GLC5        0.0000 
     71 CA          6.1080   25.6110   34.6940 C.3       9 GLL5        0.0000 
     72 CA          6.7780   29.8020   33.2030 C.3       6 GLP5        0.0000 
     73 CA          6.2490   26.9360   36.3510 C.3       3 GLC5        0.0000 
     74 CA          6.3900   28.2610   38.0080 C.3       6 GLP5        0.0000 
     75 CA          8.3215   29.0250   34.3255 C.3       3 GLC5        0.0000 
     76 CA          9.8650   28.2480   35.4480 C.3       9 GLL5        0.0000 
     77 CA          9.4375   29.8005   36.1715 C.3       3 GLC5        0.0000 
     78 CA          9.0100   31.3530   36.8950 C.3       6 GLP5        0.0000 
     79 CA         11.9380   28.4890   36.0165 C.3       3 GLC5        0.0000 
     80 CA         14.0110   28.7300   36.5850 C.3       6 GLP5        0.0000 
     81 CA          8.1275   28.2545   36.7280 C.3       3 GLC5        0.0000 
     82 CA          4.3115   22.8090   31.9920 C.3       3 GLC5        0.0000 
     83 CA          4.2940   24.3490   33.2310 C.3       9 GLL5        0.0000 
     84 CA          4.3290   21.2690   30.7530 C.3       6 GLP5        0.0000 
     85 CA          2.3410   24.2930   32.3495 C.3       3 GLC5        0.0000 
     86 CA          0.3880   24.2370   31.4680 C.3       6 GLP5        0.0000 
     87 N           5.6010   28.0320   34.5785 N.am      2 SEC2        0.0000 
     88 N           5.2530   26.7520   34.9730 N.am      8 SEL2        0.0000 
     89 N           5.9490   29.3120   34.1840 N.am      5 SEP2        0.0000 
     90 N           5.3580   27.0340   36.3085 N.am      2 SEC2        0.0000 
     91 N           5.4630   27.3160   37.6440 N.am      5 SEP2        0.0000 
     92 CA         14.8755   16.4252   32.4832 C.3       3 GLC5        0.0000 
     93 CA         16.6495   18.3633   31.7655 C.3       3 GLC5        0.0000 
     94 CA         17.5200   18.5090   30.0950 C.3       6 GLP5        0.0000 
     95 CA         13.2718   20.3145   32.3065 C.3       3 GLC5        0.0000 
     96 CA         14.6780   19.8850   33.7870 C.3       9 GLL5        0.0000 
     97 CA         11.7730   20.0590   30.8910 C.3       6 GLP5        0.0000 
     98 CA         15.5057   21.0535   35.3090 C.3       3 GLC5        0.0000 
     99 CA         16.3935   22.5395   34.0072 C.3       3 GLC5        0.0000 
    100 CA         14.8630   21.2550   33.6570 C.3       9 GLL5        0.0000 
    101 CA         18.2550   23.2440   34.0290 C.3       6 GLP5        0.0000 
    102 CA         15.1672   22.2782   35.4895 C.3       3 GLC5        0.0000 
    103 CA         14.2010   22.4150   34.3140 C.3       9 GLL5        0.0000 
    104 CA         14.6670   24.4772   30.1730 C.3       3 GLC5        0.0000 
    105 CA         15.5230   24.5760   28.4110 C.3       6 GLP5        0.0000 
    106 CA         12.0680   20.2643   36.4105 C.3       3 GLC5        0.0000 
    107 CA         12.7695   26.9990   31.2935 C.3       3 GLC5        0.0000 
    108 CA         12.8300   28.8790   30.6460 C.3       6 GLP5        0.0000 
    109 CA         12.4140   25.2310   38.3560 C.3       3 GLC5        0.0000 
    110 CA         12.7410   25.5840   40.4110 C.3       6 GLP5        0.0000 
    111 CA         12.7287   27.2560   36.1425 C.3       3 GLC5        0.0000 
    112 CA         10.3727   28.7590   33.3953 C.3       3 GLC5        0.0000 
    113 CA         10.8440   29.9510   31.7040 C.3       6 GLP5        0.0000 
    114 CA          7.4170   27.9630   33.9417 C.3       3 GLC5        0.0000 
    115 CA          7.2230   27.1925   36.3443 C.3       3 GLC5        0.0000 
    116 CA          7.5040   26.0930   34.2820 C.3       9 GLL5        0.0000 
    117 CA          3.8735   25.5708   31.2492 C.3       3 GLC5        0.0000 
    118 CA          3.0810   26.2050   29.6470 C.3       6 GLP5        0.0000 
    119 CA          7.2595   23.6776   34.3189 C.3       3 GLC5        0.0000 
@<TRIPOS>BOND
@<TRIPOS>SUBSTRUCTURE
     1 ALC1        4 GROUP        1 X    ALC  0     ROOT ALC X 1
     2 SEC2        1 GROUP        1 X    SEC  0     **** SEC X 2
     3 GLC5       13 GROUP        1 X    GLC  0     **** GLC X 6
     4 ALP1        6 GROUP        1 Y    ALP  0     ROOT ALP Y 8
     5 SEP2        3 GROUP        1 Y    SEP  0     **** SEP Y 9
     6 GLP5       15 GROUP        1 Y    GLP  0     **** GLP Y 13
     7 ALL1        5 GROUP        1 Z    ALL  0     ROOT ALL Z 15
     8 SEL2        2 GROUP        1 Z    SEL  0     **** SEL Z 16
     9 GLL5       14 GROUP        1 Z    GLL  0     **** GLL Z 20
@<TRIPOS>SET

