#    Name: 1s19_MC9_1_ligand
#    Modification time : Tue Mar 25 01:43:29 2014

@<TRIPOS>MOLECULE
1s19_MC9_1_ligand
   68    71     1     0     0
SMALL
NO_CHARGES


@<TRIPOS>ATOM
      1 O2         17.0960   18.1590   34.7840 O.3       1 MC9500      0.0000 
      2 O1         13.1260   17.4540   36.5350 O.3       1 MC9500      0.0000 
      3 C1         14.1810   18.0370   35.6980 C.3       1 MC9500      0.0000 
      4 C2         14.9150   16.9590   34.7840 C.3       1 MC9500      0.0000 
      5 C3         16.0750   17.6280   33.8850 C.3       1 MC9500      0.0000 
      6 C4         15.4830   18.8070   32.9870 C.3       1 MC9500      0.0000 
      7 C5         14.6780   19.8850   33.7870 C.2       1 MC9500      0.0000 
      8 C6         14.8630   21.2550   33.6570 C.2       1 MC9500      0.0000 
      9 C7         14.2010   22.4150   34.3140 C.2       1 MC9500      0.0000 
     10 C8         13.9860   23.6240   33.8520 C.2       1 MC9500      0.0000 
     11 C9         14.4350   24.1110   32.3790 C.3       1 MC9500      0.0000 
     12 C10        13.6010   19.1950   34.7730 C.2       1 MC9500      0.0000 
     13 C11        13.1870   24.6460   31.4910 C.3       1 MC9500      0.0000 
     14 C12        12.2310   25.5920   32.3910 C.3       1 MC9500      0.0000 
     15 C13        11.8140   25.1290   33.9600 C.3       1 MC9500      0.0000 
     16 C14        13.2500   24.7290   34.6670 C.3       1 MC9500      0.0000 
     17 C15        12.6990   24.3720   36.2220 C.3       1 MC9500      0.0000 
     18 C16        11.4750   25.3840   36.3800 C.3       1 MC9500      0.0000 
     19 C17        11.4180   26.1800   35.0200 C.3       1 MC9500      0.0000 
     20 C18        10.7870   23.7830   33.6420 C.3       1 MC9500      0.0000 
     21 C19        12.2570   19.5560   34.8130 C.2       1 MC9500      0.0000 
     22 C20         9.9380   26.8860   34.7250 C.3       1 MC9500      0.0000 
     23 C22         8.6080   26.1550   35.0790 C.2       1 MC9500      0.0000 
     24 C24         6.1080   25.6110   34.6940 C.3       1 MC9500      0.0000 
     25 C21         9.8650   28.2480   35.4480 C.3       1 MC9500      0.0000 
     26 C25         5.5480   24.5800   33.5850 C.3       1 MC9500      0.0000 
     27 C26         5.0380   25.5240   32.4720 C.3       1 MC9500      0.0000 
     28 C27         4.2940   24.3490   33.2310 C.3       1 MC9500      0.0000 
     29 O3          5.2530   26.7520   34.9730 O.3       1 MC9500      0.0000 
     30 C23         7.5040   26.0930   34.2820 C.2       1 MC9500      0.0000 
     31 H          14.9542   18.5007   36.3122 H         1 MC9500      0.0000 
     32 H          14.1934   16.5113   34.1223 H         1 MC9500      0.0000 
     33 H          15.3674   16.2139   35.4158 H         1 MC9500      0.0000 
     34 H          16.4572   16.8761   33.2448 H         1 MC9500      0.0000 
     35 H          14.8304   18.3598   32.2331 H         1 MC9500      0.0000 
     36 H          16.3183   19.2913   32.4752 H         1 MC9500      0.0000 
     37 H          15.6373   21.5764   32.9417 H         1 MC9500      0.0000 
     38 H          13.8673   22.1603   35.3263 H         1 MC9500      0.0000 
     39 H          14.8819   23.2771   31.8643 H         1 MC9500      0.0000 
     40 H          15.1425   24.9161   32.4856 H         1 MC9500      0.0000 
     41 H          12.6216   23.8051   31.1619 H         1 MC9500      0.0000 
     42 H          13.5711   25.2219   30.6811 H         1 MC9500      0.0000 
     43 H          11.2765   25.7444   31.8538 H         1 MC9500      0.0000 
     44 H          12.7026   26.5882   32.4818 H         1 MC9500      0.0000 
     45 H          13.7786   25.6379   34.7449 H         1 MC9500      0.0000 
     46 H          13.4582   24.6212   36.8704 H         1 MC9500      0.0000 
     47 H          12.3621   23.3999   36.2016 H         1 MC9500      0.0000 
     48 H          11.6852   26.0491   37.1686 H         1 MC9500      0.0000 
     49 H          10.5891   24.8279   36.4998 H         1 MC9500      0.0000 
     50 H          12.1548   26.9456   35.0482 H         1 MC9500      0.0000 
     51 H           9.9227   27.1278   33.6457 H         1 MC9500      0.0000 
     52 H           8.6400   25.6973   36.0221 H         1 MC9500      0.0000 
     53 H           6.2492   25.0053   35.6093 H         1 MC9500      0.0000 
     54 H           6.2409   24.0399   33.1065 H         1 MC9500      0.0000 
     55 H           5.3142   25.1441   31.6750 H         1 MC9500      0.0000 
     56 H           4.7558   26.2917   32.9042 H         1 MC9500      0.0000 
     57 H           3.6255   24.8019   33.7817 H         1 MC9500      0.0000 
     58 H           4.1839   23.6543   32.5524 H         1 MC9500      0.0000 
     59 H           7.5492   26.3934   33.2668 H         1 MC9500      0.0000 
     60 H          11.2122   23.1318   33.0134 H         1 MC9500      0.0000 
     61 H          10.5635   23.2808   34.4774 H         1 MC9500      0.0000 
     62 H           9.9211   24.0658   33.2295 H         1 MC9500      0.0000 
     63 H           9.9769   28.1500   36.4369 H         1 MC9500      0.0000 
     64 H          10.5781   28.8744   35.1330 H         1 MC9500      0.0000 
     65 H           8.9874   28.7026   35.2959 H         1 MC9500      0.0000 
     66 H          17.6902   18.7138   34.2017 H         1 MC9500      0.0000 
     67 H          12.3468   17.3305   35.9204 H         1 MC9500      0.0000 
     68 H           4.6777   26.8064   34.1568 H         1 MC9500      0.0000 
@<TRIPOS>BOND
     1    5    1 1    
     2   66    1 1    
     3    3    2 1    
     4   67    2 1    
     5    4    3 1    
     6   12    3 1    
     7   31    3 1    
     8    5    4 1    
     9   32    4 1    
    10   33    4 1    
    11    6    5 1    
    12   34    5 1    
    13    7    6 1    
    14   35    6 1    
    15   36    6 1    
    16    8    7 2    
    17   12    7 1    
    18    9    8 1    
    19   37    8 1    
    20   10    9 2    
    21   38    9 1    
    22   11   10 1    
    23   16   10 1    
    24   13   11 1    
    25   39   11 1    
    26   40   11 1    
    27   21   12 2    
    28   14   13 1    
    29   41   13 1    
    30   42   13 1    
    31   15   14 1    
    32   43   14 1    
    33   44   14 1    
    34   16   15 1    
    35   19   15 1    
    36   20   15 1    
    37   17   16 1    
    38   45   16 1    
    39   18   17 1    
    40   46   17 1    
    41   47   17 1    
    42   19   18 1    
    43   48   18 1    
    44   49   18 1    
    45   22   19 1    
    46   50   19 1    
    47   60   20 1    
    48   61   20 1    
    49   62   20 1    
    50   23   22 1    
    51   25   22 1    
    52   51   22 1    
    53   30   23 2    
    54   52   23 1    
    55   26   24 1    
    56   29   24 1    
    57   30   24 1    
    58   53   24 1    
    59   63   25 1    
    60   64   25 1    
    61   65   25 1    
    62   27   26 1    
    63   28   26 1    
    64   54   26 1    
    65   28   27 1    
    66   55   27 1    
    67   56   27 1    
    68   57   28 1    
    69   58   28 1    
    70   68   29 1    
    71   59   30 1    
@<TRIPOS>SUBSTRUCTURE
     1 MC9500      1 GROUP   
@<TRIPOS>SET

