#    Name: 2hwh_RNA_1_INTS_M
#    Modification time : Tue Mar 25 17:07:59 2014

@<TRIPOS>MOLECULE
2hwh_RNA_1_INTS_M
   47     0     6     0     0
SMALL
NO_CHARGES


@<TRIPOS>ATOM
      1 CA         10.5365   31.8115   73.4820 C.3       2 GLC5        0.0000 
      2 CA          9.3170   30.6330   72.0760 C.3       6 GLL5        0.0000 
      3 CA         11.7560   32.9900   74.8880 C.3       4 GLP5        0.0000 
      4 CA         13.4270   31.3555   73.4960 C.3       2 GLC5        0.0000 
      5 CA         12.7710   29.6500   72.9960 C.3       6 GLL5        0.0000 
      6 CA         14.0830   33.0610   73.9960 C.3       4 GLP5        0.0000 
      7 CA          8.4175   33.8820   71.0560 C.3       2 GLC5        0.0000 
      8 CA          7.3420   32.2730   72.1900 C.3       6 GLL5        0.0000 
      9 CA          9.4930   35.4910   69.9220 C.3       4 GLP5        0.0000 
     10 CA          6.5785   30.7440   70.8215 C.3       2 GLC5        0.0000 
     11 CA          5.8150   29.2150   69.4530 C.3       4 GLP5        0.0000 
     12 CA          9.8240   33.0460   74.2560 C.3       2 GLC5        0.0000 
     13 CA          7.8920   33.1020   73.6240 C.3       6 GLL5        0.0000 
     14 CA          9.8030   40.6535   70.4100 C.3       2 GLC5        0.0000 
     15 CA          9.4490   39.3100   71.5560 C.3       6 GLL5        0.0000 
     16 CA         10.1570   41.9970   69.2640 C.3       4 GLP5        0.0000 
     17 CA         11.3955   38.7630   70.9860 C.3       2 GLC5        0.0000 
     18 CA         13.3420   38.2160   70.4160 C.3       4 GLP5        0.0000 
     19 CA          9.9635   40.2175   73.0385 C.3       2 GLC5        0.0000 
     20 CA         10.4780   41.1250   74.5210 C.3       4 GLP5        0.0000 
     21 N           9.3415   34.7400   77.1275 N.am      1 SEC2        0.0000 
     22 N           8.1280   34.6370   76.3790 N.am      5 SEL2        0.0000 
     23 N          10.5550   34.8430   77.8760 N.am      3 SEP2        0.0000 
     24 N           3.9890   33.6500   72.6590 N.am      1 SEC2        0.0000 
     25 N           5.3720   33.2280   72.9310 N.am      5 SEL2        0.0000 
     26 N           2.6060   34.0720   72.3870 N.am      3 SEP2        0.0000 
     27 N           4.2070   32.3175   70.3535 N.am      1 SEC2        0.0000 
     28 N           5.2980   31.9020   70.9300 N.am      5 SEL2        0.0000 
     29 N           3.1160   32.7330   69.7770 N.am      3 SEP2        0.0000 
     30 CA          8.9025   32.5035   69.8230 C.3       2 GLC5        0.0000 
     31 CA          8.3090   31.4590   71.3000 C.3       6 GLL5        0.0000 
     32 CA          9.4960   33.5480   68.3460 C.3       4 GLP5        0.0000 
     33 CA          7.5455   30.6245   69.8605 C.3       2 GLC5        0.0000 
     34 CA          6.7820   29.7900   68.4210 C.3       4 GLP5        0.0000 
     35 CA         11.2645   31.2450   74.0207 C.3       2 GLC5        0.0000 
     36 CA         10.2660   29.1620   73.4880 C.3       6 GLL5        0.0000 
     37 CA          8.9623   29.2047   70.6833 C.3       2 GLC5        0.0000 
     38 CA          8.7390   28.2680   68.8130 C.3       4 GLP5        0.0000 
     39 CA          9.4288   36.1917   71.8017 C.3       2 GLC5        0.0000 
     40 CA          9.0830   36.4520   74.1650 C.3       6 GLL5        0.0000 
     41 CA         11.1098   36.0502   74.0487 C.3       2 GLC5        0.0000 
     42 CA          9.6460   37.3330   73.1980 C.3       6 GLL5        0.0000 
     43 CA         12.8550   35.2080   74.4160 C.3       4 GLP5        0.0000 
     44 CA          9.3205   37.1617   70.9985 C.3       2 GLC5        0.0000 
     45 CA          8.8470   38.3550   72.5940 C.3       6 GLL5        0.0000 
     46 CA          7.7167   39.6520   74.2211 C.3       2 GLC5        0.0000 
     47 CA          7.8990   41.2890   75.0850 C.3       4 GLP5        0.0000 
@<TRIPOS>BOND
@<TRIPOS>SUBSTRUCTURE
     1 SEC2       21 GROUP        1 X    SEC  0     ROOT SEC X 2
     2 GLC5        1 GROUP        1 X    GLC  0     **** GLC X 6
     3 SEP2       23 GROUP        1 Y    SEP  0     ROOT SEP Y 9
     4 GLP5        3 GROUP        1 Y    GLP  0     **** GLP Y 13
     5 SEL2       22 GROUP        1 Z    SEL  0     ROOT SEL Z 16
     6 GLL5        2 GROUP        1 Z    GLL  0     **** GLL Z 20
@<TRIPOS>SET

