#    Name: 2hwh_RNA_1_ligand
#    Modification time : Tue Mar 25 17:07:59 2014

@<TRIPOS>MOLECULE
2hwh_RNA_1_ligand
   38    40     1     0     0
SMALL
NO_CHARGES


@<TRIPOS>ATOM
      1 C          10.2660   29.1620   73.4880 C.2       1 RNA960      0.0000 
      2 C1          9.0540   29.6500   73.0310 C.2       1 RNA960      0.0000 
      3 C2          9.3170   30.6330   72.0760 C.2       1 RNA960      0.0000 
      4 O          10.6920   30.7380   71.9500 O.3       1 RNA960      0.0000 
      5 C3         11.2800   29.8380   72.8190 C.2       1 RNA960      0.0000 
      6 C4         12.7710   29.6500   72.9960 C.3       1 RNA960      0.0000 
      7 C5          7.3420   32.2730   72.1900 C.2       1 RNA960      0.0000 
      8 S           7.8920   33.1020   73.6240 S.3       1 RNA960      0.0000 
      9 C6          6.2730   33.6410   73.8590 C.2       1 RNA960      0.0000 
     10 N           5.9200   34.4610   74.9500 N.pl3     1 RNA960      0.0000 
     11 S1          7.0170   35.5440   75.6950 S.o2      1 RNA960      0.0000 
     12 C7          7.7240   36.6040   74.5170 C.ar      1 RNA960      0.0000 
     13 C8          9.0830   36.4520   74.1650 C.ar      1 RNA960      0.0000 
     14 C9          9.6460   37.3330   73.1980 C.ar      1 RNA960      0.0000 
     15 C10         8.8470   38.3550   72.5940 C.ar      1 RNA960      0.0000 
     16 C11         7.4730   38.4870   72.9670 C.ar      1 RNA960      0.0000 
     17 C12         6.9090   37.6090   73.9340 C.ar      1 RNA960      0.0000 
     18 C13         9.4490   39.3100   71.5560 C.3       1 RNA960      0.0000 
     19 O14         8.1280   34.6370   76.3790 O.2       1 RNA960      0.0000 
     20 O1          6.2550   36.3670   76.8210 O.2       1 RNA960      0.0000 
     21 C15         5.9910   32.4520   71.9920 C.2       1 RNA960      0.0000 
     22 N1          5.3720   33.2280   72.9310 N.2       1 RNA960      0.0000 
     23 O2          5.2980   31.9020   70.9300 O.2       1 RNA960      0.0000 
     24 C16         8.3090   31.4590   71.3000 C.2       1 RNA960      0.0000 
     25 H          10.3870   28.4862   74.1417 H         1 RNA960      0.0000 
     26 H           8.1939   29.3703   73.3127 H         1 RNA960      0.0000 
     27 H           5.0217   34.5009   75.3954 H         1 RNA960      0.0000 
     28 H           9.6516   35.7314   74.5893 H         1 RNA960      0.0000 
     29 H          10.6256   37.2373   72.9320 H         1 RNA960      0.0000 
     30 H           6.9008   39.2104   72.5387 H         1 RNA960      0.0000 
     31 H           5.9368   37.7014   74.2022 H         1 RNA960      0.0000 
     32 H           8.2647   31.4834   70.3649 H         1 RNA960      0.0000 
     33 H          13.2953   30.2566   72.3984 H         1 RNA960      0.0000 
     34 H          13.0606   29.8406   73.9340 H         1 RNA960      0.0000 
     35 H          13.0549   28.7144   72.7859 H         1 RNA960      0.0000 
     36 H          10.2133   39.8337   71.9323 H         1 RNA960      0.0000 
     37 H           9.7954   38.8191   70.7566 H         1 RNA960      0.0000 
     38 H           8.7756   39.9710   71.2249 H         1 RNA960      0.0000 
@<TRIPOS>BOND
     1    2    1 1    
     2    5    1 2    
     3   25    1 1    
     4    3    2 2    
     5   26    2 1    
     6    4    3 1    
     7   24    3 1    
     8    5    4 1    
     9    6    5 1    
    10   33    6 1    
    11   34    6 1    
    12   35    6 1    
    13    8    7 1    
    14   21    7 1    
    15   24    7 2    
    16    9    8 1    
    17   10    9 1    
    18   22    9 2    
    19   11   10 1    
    20   27   10 1    
    21   12   11 1    
    22   19   11 2    
    23   20   11 2    
    24   13   12 ar   
    25   17   12 ar   
    26   14   13 ar   
    27   28   13 1    
    28   15   14 ar   
    29   29   14 1    
    30   16   15 ar   
    31   18   15 1    
    32   17   16 ar   
    33   30   16 1    
    34   31   17 1    
    35   36   18 1    
    36   37   18 1    
    37   38   18 1    
    38   22   21 1    
    39   23   21 2    
    40   32   24 1    
@<TRIPOS>SUBSTRUCTURE
     1 RNA960      1 GROUP   
@<TRIPOS>SET

