#    Name: 3thr_C2F_4_INTS_M
#    Modification time : Mon Mar 24 20:07:21 2014

@<TRIPOS>MOLECULE
3thr_C2F_4_INTS_M
   56     0     6     0     0
SMALL
NO_CHARGES


@<TRIPOS>ATOM
      1 CA         10.9350  -14.3900   45.0390 C.3       2 GLC5        0.0000 
      2 CA         10.3230  -12.7690   46.2630 C.3       6 GLL5        0.0000 
      3 CA         11.5470  -16.0110   43.8150 C.3       4 GLP5        0.0000 
      4 CA         11.0325   -9.2870   48.3975 C.3       2 GLC5        0.0000 
      5 CA         11.5360  -10.4420   47.3750 C.3       6 GLL5        0.0000 
      6 CA         10.5290   -8.1320   49.4200 C.3       4 GLP5        0.0000 
      7 CA         12.2545   -9.9905   44.3795 C.3       2 GLC5        0.0000 
      8 CA         13.4120  -10.7070   45.6030 C.3       6 GLL5        0.0000 
      9 CA         11.0970   -9.2740   43.1560 C.3       4 GLP5        0.0000 
     10 CA         11.7685  -14.4125   44.1380 C.3       2 GLC5        0.0000 
     11 CA         11.9900  -12.8140   44.4610 C.3       6 GLL5        0.0000 
     12 CA         12.1655  -12.9025   42.7295 C.3       2 GLC5        0.0000 
     13 CA         12.3410  -12.9910   40.9980 C.3       4 GLP5        0.0000 
     14 CA         11.5435  -11.0440   43.8085 C.3       2 GLC5        0.0000 
     15 CA         13.3765  -13.4870   45.0580 C.3       2 GLC5        0.0000 
     16 CA         14.7630  -14.1600   45.6550 C.3       4 GLP5        0.0000 
     17 CA         14.7730   -4.1970   46.1195 C.3       2 GLC5        0.0000 
     18 CA         15.6650   -6.0700   45.3820 C.3       6 GLL5        0.0000 
     19 CA         13.8810   -2.3240   46.8570 C.3       4 GLP5        0.0000 
     20 CA         15.0565   -5.2465   47.6865 C.3       2 GLC5        0.0000 
     21 CA         16.2150   -6.6890   46.4690 C.3       6 GLL5        0.0000 
     22 CA         13.8980   -3.8040   48.9040 C.3       4 GLP5        0.0000 
     23 CA         16.9230   -5.3970   47.9605 C.3       2 GLC5        0.0000 
     24 CA         17.6310   -4.1050   49.4520 C.3       4 GLP5        0.0000 
     25 CA         17.6910   -7.5995   47.1265 C.3       2 GLC5        0.0000 
     26 CA         19.1670   -8.5100   47.7840 C.3       4 GLP5        0.0000 
     27 CA         17.0250   -8.1765   47.9380 C.3       2 GLC5        0.0000 
     28 CA         15.7330   -7.9530   46.7870 C.3       6 GLL5        0.0000 
     29 CA         18.3170   -8.4000   49.0890 C.3       4 GLP5        0.0000 
     30 CA         12.6380   -8.5930   44.0845 C.3       2 GLC5        0.0000 
     31 CA         14.1790   -7.9120   45.0130 C.3       6 GLL5        0.0000 
     32 N          18.3065   -5.3060   44.4545 N.am      1 SEC2        0.0000 
     33 N          17.2120   -4.4390   44.5090 N.am      5 SEL2        0.0000 
     34 N          19.4010   -6.1730   44.4000 N.am      3 SEP2        0.0000 
     35 CA         14.3545   -2.5320   45.4050 C.3       2 GLC5        0.0000 
     36 CA         14.8280   -2.7400   43.9530 C.3       6 GLL5        0.0000 
     37 CA         14.7430   -0.6230   44.4710 C.3       2 GLC5        0.0000 
     38 CA         14.6580    1.4940   44.9890 C.3       4 GLP5        0.0000 
     39 CA         15.6025    0.2400   43.8765 C.3       2 GLC5        0.0000 
     40 CA         16.5470   -1.0140   42.7640 C.3       6 GLL5        0.0000 
     41 CA         15.5905   -2.2120   41.6060 C.3       2 GLC5        0.0000 
     42 CA         14.6340   -3.4100   40.4480 C.3       4 GLP5        0.0000 
     43 N          15.6850    1.4760   42.5540 N.am      1 SEC2        0.0000 
     44 N          16.1210    0.8560   41.1990 N.am      5 SEL2        0.0000 
     45 N          15.2490    2.0960   43.9090 N.am      3 SEP2        0.0000 
     46 CA         10.7990   -9.8150   46.0383 C.3       2 GLC5        0.0000 
     47 CA          9.7010   -8.7130   45.1920 C.3       4 GLP5        0.0000 
     48 CA         13.7990  -12.6047   45.8268 C.3       2 GLC5        0.0000 
     49 CA         12.2580  -11.3920   46.3940 C.3       6 GLL5        0.0000 
     50 CA         13.6487  -11.2140   47.8204 C.3       2 GLC5        0.0000 
     51 CA         14.6430  -11.6160   49.3970 C.3       4 GLP5        0.0000 
     52 CA         14.8543   -6.9085   43.5055 C.3       2 GLC5        0.0000 
     53 CA         14.6720   -6.6900   44.6860 C.3       6 GLL5        0.0000 
     54 CA         14.5400   -7.4370   41.9770 C.3       4 GLP5        0.0000 
     55 CA         14.4945   -7.8420   43.7585 C.3       2 GLC5        0.0000 
     56 CA         14.9653   -2.9768   41.9032 C.3       2 GLC5        0.0000 
@<TRIPOS>BOND
@<TRIPOS>SUBSTRUCTURE
     1 SEC2       32 GROUP        1 X    SEC  0     ROOT SEC X 2
     2 GLC5        1 GROUP        1 X    GLC  0     **** GLC X 6
     3 SEP2       34 GROUP        1 Y    SEP  0     ROOT SEP Y 9
     4 GLP5        3 GROUP        1 Y    GLP  0     **** GLP Y 13
     5 SEL2       33 GROUP        1 Z    SEL  0     ROOT SEL Z 16
     6 GLL5        2 GROUP        1 Z    GLL  0     **** GLL Z 20
@<TRIPOS>SET

