#    Name: 3thr_C2F_4_ligand
#    Modification time : Mon Mar 24 20:07:22 2014

@<TRIPOS>MOLECULE
3thr_C2F_4_ligand
   56    58     1     0     0
SMALL
NO_CHARGES


@<TRIPOS>ATOM
      1 N1          8.7170  -12.5730   48.0510 N.2       1 C2F1200     0.0000 
      2 C2          8.3870  -13.9140   47.9250 C.2       1 C2F1200     0.0000 
      3 NA2         7.4530  -14.5420   48.7340 N.pl3     1 C2F1200     0.0000 
      4 N3          8.9970  -14.6720   46.9680 N.am      1 C2F1200     0.0000 
      5 C4          9.9490  -14.1170   46.1770 C.2       1 C2F1200     0.0000 
      6 O4         10.4600  -14.8810   45.3610 O.2       1 C2F1200     0.0000 
      7 C4A        10.3230  -12.7690   46.2630 C.2       1 C2F1200     0.0000 
      8 N5         11.2760  -12.0580   45.4710 N.pl3     1 C2F1200     0.0000 
      9 C6         12.2580  -11.3920   46.3940 C.3       1 C2F1200     0.0000 
     10 C7         11.5360  -10.4420   47.3750 C.3       1 C2F1200     0.0000 
     11 N8         10.0830  -10.6930   47.3360 N.pl3     1 C2F1200     0.0000 
     12 C8A         9.6710  -12.0000   47.2370 C.2       1 C2F1200     0.0000 
     13 C9         13.4120  -10.7070   45.6030 C.3       1 C2F1200     0.0000 
     14 N10        14.2900   -9.8410   46.4110 N.pl3     1 C2F1200     0.0000 
     15 C11        11.9900  -12.8140   44.4610 C.3       1 C2F1200     0.0000 
     16 C12        15.6650   -6.0700   45.3820 C.ar      1 C2F1200     0.0000 
     17 C13        16.2150   -6.6890   46.4690 C.ar      1 C2F1200     0.0000 
     18 C14        15.7330   -7.9530   46.7870 C.ar      1 C2F1200     0.0000 
     19 C15        14.7190   -8.5820   46.0670 C.ar      1 C2F1200     0.0000 
     20 C16        14.1790   -7.9120   45.0130 C.ar      1 C2F1200     0.0000 
     21 C17        14.6720   -6.6900   44.6860 C.ar      1 C2F1200     0.0000 
     22 C          16.0600   -4.7610   44.8020 C.2       1 C2F1200     0.0000 
     23 O          17.2120   -4.4390   44.5090 O.2       1 C2F1200     0.0000 
     24 N          15.0140   -4.0640   44.5200 N.am      1 C2F1200     0.0000 
     25 CA         14.8280   -2.7400   43.9530 C.3       1 C2F1200     0.0000 
     26 CB         15.7650   -2.3470   42.7640 C.3       1 C2F1200     0.0000 
     27 CG         16.5470   -1.0140   42.7640 C.3       1 C2F1200     0.0000 
     28 CD         16.6170   -0.2990   41.3850 C.2       1 C2F1200     0.0000 
     29 OE1        16.1210    0.8560   41.1990 O.co2     1 C2F1200     0.0000 
     30 OE2        17.1980   -0.8730   40.4230 O.co2     1 C2F1200     0.0000 
     31 CT         13.3480   -2.9400   43.6860 C.2       1 C2F1200     0.0000 
     32 O1         12.7390   -2.0260   43.1440 O.co2     1 C2F1200     0.0000 
     33 O2         12.7470   -3.9970   44.0750 O.co2     1 C2F1200     0.0000 
     34 H           6.6818  -14.9716   48.2640 H         1 C2F1200     0.0000 
     35 H           7.6311  -14.5112   49.7175 H         1 C2F1200     0.0000 
     36 H           8.7315  -15.6665   46.8491 H         1 C2F1200     0.0000 
     37 H          12.7285  -12.1905   47.0103 H         1 C2F1200     0.0000 
     38 H          11.7613   -9.4179   47.0819 H         1 C2F1200     0.0000 
     39 H          11.9343  -10.6194   48.3727 H         1 C2F1200     0.0000 
     40 H           9.4621   -9.9118   47.3826 H         1 C2F1200     0.0000 
     41 H          12.9471  -10.1282   44.7783 H         1 C2F1200     0.0000 
     42 H          14.0006  -11.5122   45.1168 H         1 C2F1200     0.0000 
     43 H          14.5975  -10.2629   47.3350 H         1 C2F1200     0.0000 
     44 H          16.9413   -6.2557   47.0248 H         1 C2F1200     0.0000 
     45 H          16.1504   -8.4582   47.6062 H         1 C2F1200     0.0000 
     46 H          13.4055   -8.3281   44.4706 H         1 C2F1200     0.0000 
     47 H          14.2627   -6.1895   43.8429 H         1 C2F1200     0.0000 
     48 H          14.0097   -4.5332   44.7396 H         1 C2F1200     0.0000 
     49 H          14.8999   -2.0213   44.7619 H         1 C2F1200     0.0000 
     50 H          15.1469   -2.3914   41.8178 H         1 C2F1200     0.0000 
     51 H          16.5071   -3.1894   42.6259 H         1 C2F1200     0.0000 
     52 H          17.5747   -1.2044   43.1110 H         1 C2F1200     0.0000 
     53 H          16.0816   -0.3284   43.4894 H         1 C2F1200     0.0000 
     54 H          12.6358  -12.2414   43.9559 H         1 C2F1200     0.0000 
     55 H          12.5151  -13.5651   44.8613 H         1 C2F1200     0.0000 
     56 H          11.3679  -13.2166   43.7895 H         1 C2F1200     0.0000 
@<TRIPOS>BOND
     1    2    1 2    
     2   12    1 1    
     3    3    2 1    
     4    4    2 1    
     5   34    3 1    
     6   35    3 1    
     7    5    4 am   
     8   36    4 1    
     9    6    5 2    
    10    7    5 1    
    11    8    7 1    
    12   12    7 2    
    13    9    8 1    
    14   15    8 1    
    15   10    9 1    
    16   13    9 1    
    17   37    9 1    
    18   11   10 1    
    19   38   10 1    
    20   39   10 1    
    21   12   11 1    
    22   40   11 1    
    23   14   13 1    
    24   41   13 1    
    25   42   13 1    
    26   19   14 1    
    27   43   14 1    
    28   54   15 1    
    29   55   15 1    
    30   56   15 1    
    31   17   16 ar   
    32   21   16 ar   
    33   22   16 1    
    34   18   17 ar   
    35   44   17 1    
    36   19   18 ar   
    37   45   18 1    
    38   20   19 ar   
    39   21   20 ar   
    40   46   20 1    
    41   47   21 1    
    42   23   22 2    
    43   24   22 am   
    44   25   24 1    
    45   48   24 1    
    46   26   25 1    
    47   31   25 1    
    48   49   25 1    
    49   27   26 1    
    50   50   26 1    
    51   51   26 1    
    52   28   27 1    
    53   52   27 1    
    54   53   27 1    
    55   29   28 ar   
    56   30   28 ar   
    57   32   31 ar   
    58   33   31 ar   
@<TRIPOS>SUBSTRUCTURE
     1 C2F1200     1 GROUP   
@<TRIPOS>SET

