#    Name: 1e90_MYC_1_INTS_M
#    Modification time : Mon Mar 24 23:17:08 2014

@<TRIPOS>MOLECULE
1e90_MYC_1_INTS_M
   52     0     9     0     0
SMALL
NO_CHARGES


@<TRIPOS>ATOM
      1 CA         27.5775   58.4990   20.1215 C.3       3 GLC5        0.0000 
      2 CA         26.5880   60.1840   21.2180 C.3       9 GLL5        0.0000 
      3 CA         28.5670   56.8140   19.0250 C.3       6 GLP5        0.0000 
      4 CA         26.0220   61.1220   18.2435 C.3       3 GLC5        0.0000 
      5 CA         25.8770   61.1090   20.4650 C.3       9 GLL5        0.0000 
      6 CA         26.1670   61.1350   16.0220 C.3       6 GLP5        0.0000 
      7 CA         21.4940   61.4650   24.5335 C.3       3 GLC5        0.0000 
      8 CA         20.0210   60.9170   23.0710 C.3       9 GLL5        0.0000 
      9 CA         22.9670   62.0130   25.9960 C.3       6 GLP5        0.0000 
     10 CA         17.6560   59.8475   25.3000 C.3       3 GLC5        0.0000 
     11 CA         18.7180   60.9260   23.6520 C.3       9 GLL5        0.0000 
     12 CA         16.5940   58.7690   26.9480 C.3       6 GLP5        0.0000 
     13 CA         18.2885   64.0080   23.6245 C.3       3 GLC5        0.0000 
     14 CA         18.1440   62.8570   22.3050 C.3       9 GLL5        0.0000 
     15 CA         18.4330   65.1590   24.9440 C.3       6 GLP5        0.0000 
     16 N          25.3730   63.2125   18.0860 N.am      2 SEC2        0.0000 
     17 N          24.1410   63.0750   19.0510 N.am      8 SEL2        0.0000 
     18 N          26.6050   63.3500   17.1210 N.am      5 SEP2        0.0000 
     19 O          15.5965   61.0645   24.6040 O.2       1 ALC1        0.0000 
     20 O          16.5400   61.8460   23.8480 O.2       7 ALL1        0.0000 
     21 O          14.6530   60.2830   25.3600 O.2       4 ALP1        0.0000 
     22 N          17.3610   59.0565   24.5755 N.am      2 SEC2        0.0000 
     23 N          18.3280   60.0060   24.5800 N.am      8 SEL2        0.0000 
     24 N          16.3940   58.1070   24.5710 N.am      5 SEP2        0.0000 
     25 N          26.2100   58.6865   24.3330 N.am      2 SEC2        0.0000 
     26 N          26.6620   58.6100   22.9590 N.am      8 SEL2        0.0000 
     27 N          25.7580   58.7630   25.7070 N.am      5 SEP2        0.0000 
     28 O          27.8835   58.5955   22.8110 O.2       1 ALC1        0.0000 
     29 O          26.6620   58.6100   22.9590 O.2       7 ALL1        0.0000 
     30 O          29.1050   58.5810   22.6630 O.2       4 ALP1        0.0000 
     31 CA         25.6722   57.9932   21.1670 C.3       3 GLC5        0.0000 
     32 CA         25.9110   59.4950   22.2940 C.3       9 GLL5        0.0000 
     33 CA         25.0950   56.1470   20.5780 C.3       6 GLP5        0.0000 
     34 CA         23.3338   58.7475   21.7935 C.3       3 GLC5        0.0000 
     35 CA         24.5870   59.7830   22.5980 C.3       9 GLL5        0.0000 
     36 CA         22.4340   57.2450   21.3720 C.3       6 GLP5        0.0000 
     37 CA         24.2687   61.4345   23.9295 C.3       3 GLC5        0.0000 
     38 CA         24.3040   62.6190   25.6440 C.3       6 GLP5        0.0000 
     39 CA         26.9879   61.3789   22.6494 C.3       3 GLC5        0.0000 
     40 CA         27.9040   62.6870   23.7310 C.3       6 GLP5        0.0000 
     41 CA         20.8905   61.0925   19.8807 C.3       3 GLC5        0.0000 
     42 CA         22.2900   62.5850   20.4380 C.3       9 GLL5        0.0000 
     43 CA         19.7450   59.9630   18.7800 C.3       6 GLP5        0.0000 
     44 CA         19.0090   62.7632   24.4240 C.3       3 GLC5        0.0000 
     45 CA         17.7620   61.8910   23.2580 C.3       9 GLL5        0.0000 
     46 CA         19.7780   64.1180   25.3930 C.3       6 GLP5        0.0000 
     47 CA         17.5265   60.7994   21.4635 C.3       3 GLC5        0.0000 
     48 CA         16.8610   59.4660   20.0470 C.3       6 GLP5        0.0000 
     49 CA         19.7794   61.0490   20.4669 C.3       3 GLC5        0.0000 
     50 CA         19.4240   62.8660   21.7200 C.3       9 GLL5        0.0000 
     51 CA         19.7959   63.1265   23.7734 C.3       3 GLC5        0.0000 
     52 CA         20.3860   61.8910   22.1040 C.3       9 GLL5        0.0000 
@<TRIPOS>BOND
@<TRIPOS>SUBSTRUCTURE
     1 ALC1       19 GROUP        1 X    ALC  0     ROOT ALC X 1
     2 SEC2       16 GROUP        1 X    SEC  0     **** SEC X 2
     3 GLC5        1 GROUP        1 X    GLC  0     **** GLC X 6
     4 ALP1       21 GROUP        1 Y    ALP  0     ROOT ALP Y 8
     5 SEP2       18 GROUP        1 Y    SEP  0     **** SEP Y 9
     6 GLP5        3 GROUP        1 Y    GLP  0     **** GLP Y 13
     7 ALL1       20 GROUP        1 Z    ALL  0     ROOT ALL Z 15
     8 SEL2       17 GROUP        1 Z    SEL  0     **** SEL Z 16
     9 GLL5        2 GROUP        1 Z    GLL  0     **** GLL Z 20
@<TRIPOS>SET

