#    Name: 1e90_MYC_1_ligand
#    Modification time : Mon Mar 24 23:17:08 2014

@<TRIPOS>MOLECULE
1e90_MYC_1_ligand
   33    35     1     0     0
SMALL
NO_CHARGES


@<TRIPOS>ATOM
      1 C1         26.5880   60.1840   21.2180 C.ar      1 MYC2095     0.0000 
      2 C2         25.8770   61.1090   20.4650 C.ar      1 MYC2095     0.0000 
      3 C3         24.4980   61.4460   20.7680 C.ar      1 MYC2095     0.0000 
      4 C4         23.8800   60.7170   21.8320 C.ar      1 MYC2095     0.0000 
      5 C5         24.5870   59.7830   22.5980 C.ar      1 MYC2095     0.0000 
      6 C6         25.9110   59.4950   22.2940 C.ar      1 MYC2095     0.0000 
      7 C9         23.6880   62.4090   20.0100 C.2       1 MYC2095     0.0000 
      8 C10        22.2900   62.5850   20.4380 C.2       1 MYC2095     0.0000 
      9 C11        21.7820   61.8590   21.5250 C.2       1 MYC2095     0.0000 
     10 C14        20.3860   61.8910   22.1040 C.ar      1 MYC2095     0.0000 
     11 C15        20.0210   60.9170   23.0710 C.ar      1 MYC2095     0.0000 
     12 C16        18.7180   60.9260   23.6520 C.ar      1 MYC2095     0.0000 
     13 C17        17.7620   61.8910   23.2580 C.ar      1 MYC2095     0.0000 
     14 C18        18.1440   62.8570   22.3050 C.ar      1 MYC2095     0.0000 
     15 C19        19.4240   62.8660   21.7200 C.ar      1 MYC2095     0.0000 
     16 O12        22.5740   60.9490   22.1830 O.3       1 MYC2095     0.0000 
     17 O13        24.1410   63.0750   19.0510 O.2       1 MYC2095     0.0000 
     18 O23        17.2850   63.8120   21.8850 O.3       1 MYC2095     0.0000 
     19 O24        16.5400   61.8460   23.8480 O.3       1 MYC2095     0.0000 
     20 O25        18.3280   60.0060   24.5800 O.3       1 MYC2095     0.0000 
     21 O27        21.5620   63.4990   19.7470 O.3       1 MYC2095     0.0000 
     22 O29        26.6620   58.6100   22.9590 O.3       1 MYC2095     0.0000 
     23 O30        26.5190   61.7740   19.4380 O.3       1 MYC2095     0.0000 
     24 H          27.5612   59.9777   21.0382 H         1 MYC2095     0.0000 
     25 H          24.1220   59.3131   23.3842 H         1 MYC2095     0.0000 
     26 H          20.6942   60.2037   23.3545 H         1 MYC2095     0.0000 
     27 H          19.6679   63.5674   21.0215 H         1 MYC2095     0.0000 
     28 H          17.8391   64.6404   21.8030 H         1 MYC2095     0.0000 
     29 H          16.4125   60.8883   24.1062 H         1 MYC2095     0.0000 
     30 H          19.1352   59.8564   25.1510 H         1 MYC2095     0.0000 
     31 H          22.1868   63.8558   19.0525 H         1 MYC2095     0.0000 
     32 H          27.4695   58.4731   22.3852 H         1 MYC2095     0.0000 
     33 H          25.8190   62.3624   19.0334 H         1 MYC2095     0.0000 
@<TRIPOS>BOND
     1    2    1 ar   
     2    6    1 ar   
     3   24    1 1    
     4    3    2 ar   
     5   23    2 1    
     6    4    3 ar   
     7    7    3 1    
     8    5    4 ar   
     9   16    4 1    
    10    6    5 ar   
    11   25    5 1    
    12   22    6 1    
    13    8    7 1    
    14   17    7 2    
    15    9    8 2    
    16   21    8 1    
    17   10    9 1    
    18   16    9 1    
    19   11   10 ar   
    20   15   10 ar   
    21   12   11 ar   
    22   26   11 1    
    23   13   12 ar   
    24   20   12 1    
    25   14   13 ar   
    26   19   13 1    
    27   15   14 ar   
    28   18   14 1    
    29   27   15 1    
    30   28   18 1    
    31   29   19 1    
    32   30   20 1    
    33   31   21 1    
    34   32   22 1    
    35   33   23 1    
@<TRIPOS>SUBSTRUCTURE
     1 MYC2095     1 GROUP   
@<TRIPOS>SET

