#    Name: 4azy_7F3_1_INTS_M
#    Modification time : Tue Mar 25 06:25:35 2014

@<TRIPOS>MOLECULE
4azy_7F3_1_INTS_M
   68     0     9     0     0
SMALL
NO_CHARGES


@<TRIPOS>ATOM
      1 CA          4.2535    3.0040  -15.2540 C.3       3 GLC5        0.0000 
      2 CA          5.2880    4.3430  -16.5850 C.3       9 GLL5        0.0000 
      3 CA          3.2190    1.6650  -13.9230 C.3       6 GLP5        0.0000 
      4 CA          2.6025    2.1610  -18.7410 C.3       3 GLC5        0.0000 
      5 CA          4.1840    3.3980  -19.3330 C.3       9 GLL5        0.0000 
      6 CA          1.0210    0.9240  -18.1490 C.3       6 GLP5        0.0000 
      7 O           3.0390    3.1250  -21.2255 O.2       1 ALC1        0.0000 
      8 O           4.1810    2.9500  -20.5440 O.2       7 ALL1        0.0000 
      9 O           1.8970    3.3000  -21.9070 O.2       4 ALP1        0.0000 
     10 CA          5.9840   -4.8080  -20.0795 C.3       3 GLC5        0.0000 
     11 CA          5.4520   -3.2990  -19.1640 C.3       9 GLL5        0.0000 
     12 CA          6.5160   -6.3170  -20.9950 C.3       6 GLP5        0.0000 
     13 CA          3.3470   -5.6890  -18.2450 C.3       3 GLC5        0.0000 
     14 CA          3.6430   -3.8390  -17.8710 C.3       9 GLL5        0.0000 
     15 CA          3.0510   -7.5390  -18.6190 C.3       6 GLP5        0.0000 
     16 CA          1.8280   -4.5450  -18.3845 C.3       3 GLC5        0.0000 
     17 CA          0.0130   -5.2510  -18.8980 C.3       6 GLP5        0.0000 
     18 CA          2.2035   -0.5580  -18.6970 C.3       3 GLC5        0.0000 
     19 CA          3.3860   -2.0400  -19.2450 C.3       9 GLL5        0.0000 
     20 CA          6.4255   -4.6310  -21.4780 C.3       3 GLC5        0.0000 
     21 CA          6.3350   -2.9450  -21.9610 C.3       9 GLL5        0.0000 
     22 CA          5.2750   -3.7935  -22.8335 C.3       3 GLC5        0.0000 
     23 CA          4.2150   -4.6420  -23.7060 C.3       6 GLP5        0.0000 
     24 CA          8.4730    6.4120  -24.6495 C.3       3 GLC5        0.0000 
     25 CA          7.3370    4.9510  -23.4270 C.3       9 GLL5        0.0000 
     26 CA          9.6090    7.8730  -25.8720 C.3       6 GLP5        0.0000 
     27 N           7.2135    4.9555  -25.7930 N.am      2 SEC2        0.0000 
     28 N           6.5180    5.0190  -24.4600 N.am      8 SEL2        0.0000 
     29 N           7.9090    4.8920  -27.1260 N.am      5 SEP2        0.0000 
     30 CA          4.5025    3.7410  -28.3580 C.3       3 GLC5        0.0000 
     31 CA          4.9410    3.8260  -26.6580 C.3       9 GLL5        0.0000 
     32 CA          4.0640    3.6560  -30.0580 C.3       6 GLP5        0.0000 
     33 CA          3.3810    2.3645  -26.3640 C.3       3 GLC5        0.0000 
     34 CA          1.8210    0.9030  -26.0700 C.3       6 GLP5        0.0000 
     35 CA          3.4495    6.7550  -27.1545 C.3       3 GLC5        0.0000 
     36 CA          4.2250    5.8190  -25.8810 C.3       9 GLL5        0.0000 
     37 CA          2.6740    7.6910  -28.4280 C.3       6 GLP5        0.0000 
     38 CA          5.5020    6.0485  -27.3925 C.3       3 GLC5        0.0000 
     39 CA          6.7790    6.2780  -28.9040 C.3       6 GLP5        0.0000 
     40 O           1.8495    3.6790  -19.3780 O.2       1 ALC1        0.0000 
     41 O           3.0540    3.8180  -18.6680 O.2       7 ALL1        0.0000 
     42 O           0.6450    3.5400  -20.0880 O.2       4 ALP1        0.0000 
     43 O           2.4755    3.5590  -20.2875 O.2       1 ALC1        0.0000 
     44 O           2.7420    4.1850  -17.2930 O.2       1 ALC1        0.0000 
     45 O           2.4300    4.5520  -15.9180 O.2       4 ALP1        0.0000 
     46 CA          4.9685    0.5128  -23.2210 C.3       3 GLC5        0.0000 
     47 CA          5.7060    1.0900  -21.3190 C.3       9 GLL5        0.0000 
     48 CA          3.8260    0.1530  -24.5900 C.3       6 GLP5        0.0000 
     49 CA          5.1245   -0.5087  -23.3895 C.3       3 GLC5        0.0000 
     50 CA          6.7180   -0.7030  -22.6130 C.3       9 GLL5        0.0000 
     51 CA          4.5347   -0.1932  -22.5820 C.3       3 GLC5        0.0000 
     52 CA          5.3320   -1.2260  -20.6780 C.3       9 GLL5        0.0000 
     53 CA          2.7070   -2.6675  -20.6955 C.3       3 GLC5        0.0000 
     54 CA          4.7120   -2.2120  -19.7110 C.3       9 GLL5        0.0000 
     55 CA          1.3650   -3.2090  -21.9130 C.3       6 GLP5        0.0000 
     56 CA          3.7197    5.2420  -23.3727 C.3       3 GLC5        0.0000 
     57 CA          4.9830    3.5540  -23.3080 C.3       9 GLL5        0.0000 
     58 CA          2.2610    6.5360  -22.8940 C.3       6 GLP5        0.0000 
     59 CA          4.5023    2.0505  -24.2207 C.3       3 GLC5        0.0000 
     60 CA          6.1670    4.7267  -27.2640 C.3       3 GLC5        0.0000 
     61 CA          4.4350    4.4930  -25.5640 C.3       9 GLL5        0.0000 
     62 CA          7.6460    5.2940  -28.4170 C.3       6 GLP5        0.0000 
     63 CA          5.9260    2.6498  -26.0985 C.3       3 GLC5        0.0000 
     64 CA          7.1640    1.1400  -26.0860 C.3       6 GLP5        0.0000 
     65 CA          2.5170    2.9167  -25.1350 C.3       3 GLC5        0.0000 
     66 CA          1.2260    1.6000  -24.8380 C.3       6 GLP5        0.0000 
     67 CA          3.1387    5.7811  -24.2752 C.3       3 GLC5        0.0000 
     68 CA          3.1810    3.9740  -25.3000 C.3       9 GLL5        0.0000 
@<TRIPOS>BOND
@<TRIPOS>SUBSTRUCTURE
     1 ALC1        7 GROUP        1 X    ALC  0     ROOT ALC X 1
     2 SEC2       27 GROUP        1 X    SEC  0     **** SEC X 2
     3 GLC5        1 GROUP        1 X    GLC  0     **** GLC X 6
     4 ALP1        9 GROUP        1 Y    ALP  0     ROOT ALP Y 8
     5 SEP2       29 GROUP        1 Y    SEP  0     **** SEP Y 9
     6 GLP5        3 GROUP        1 Y    GLP  0     **** GLP Y 13
     7 ALL1        8 GROUP        1 Z    ALL  0     ROOT ALL Z 15
     8 SEL2       28 GROUP        1 Z    SEL  0     **** SEL Z 16
     9 GLL5        2 GROUP        1 Z    GLL  0     **** GLL Z 20
@<TRIPOS>SET

