#    Name: 4azy_7F3_1_ligand
#    Modification time : Tue Mar 25 06:25:35 2014

@<TRIPOS>MOLECULE
4azy_7F3_1_ligand
   49    53     1     0     0
SMALL
NO_CHARGES


@<TRIPOS>ATOM
      1 C1          8.2810    3.0250  -18.2660 C.ar      1 7F31507     0.0000 
      2 C2          7.7380    2.6200  -19.4940 C.ar      1 7F31507     0.0000 
      3 C3          6.3820    2.8480  -19.7560 C.ar      1 7F31507     0.0000 
      4 C4          5.5500    3.3770  -18.7610 C.ar      1 7F31507     0.0000 
      5 C5          6.0860    3.7580  -17.5170 C.ar      1 7F31507     0.0000 
      6 C6          7.4590    3.5860  -17.2770 C.ar      1 7F31507     0.0000 
      7 F7          5.2880    4.3430  -16.5850 F         1 7F31507     0.0000 
      8 C8          4.1840    3.3980  -19.3330 C.2       1 7F31507     0.0000 
      9 N9          4.1810    2.9500  -20.5440 N.pl3     1 7F31507     0.0000 
     10 C10         5.5350    2.5630  -20.9970 C.3       1 7F31507     0.0000 
     11 C11         5.7060    1.0900  -21.3190 C.ar      1 7F31507     0.0000 
     12 C12         6.5160    0.6550  -22.3850 C.ar      1 7F31507     0.0000 
     13 C13         6.7180   -0.7030  -22.6130 C.ar      1 7F31507     0.0000 
     14 C14         6.1280   -1.6380  -21.7650 C.ar      1 7F31507     0.0000 
     15 C15         5.3320   -1.2260  -20.6780 C.ar      1 7F31507     0.0000 
     16 C16         5.1550    0.1470  -20.4700 C.ar      1 7F31507     0.0000 
     17 C17         4.7120   -2.2120  -19.7110 C.ar      1 7F31507     0.0000 
     18 C18         5.4520   -3.2990  -19.1640 C.ar      1 7F31507     0.0000 
     19 N19         4.8990   -4.1080  -18.2490 N.ar      1 7F31507     0.0000 
     20 C20         3.6430   -3.8390  -17.8710 C.ar      1 7F31507     0.0000 
     21 N21         2.8710   -2.8480  -18.3160 N.ar      1 7F31507     0.0000 
     22 C22         3.3860   -2.0400  -19.2450 C.ar      1 7F31507     0.0000 
     23 F23         6.3350   -2.9450  -21.9610 F         1 7F31507     0.0000 
     24 C24         5.8660    3.4360  -22.2120 C.ar      1 7F31507     0.0000 
     25 C25         7.0800    4.1420  -22.3190 C.ar      1 7F31507     0.0000 
     26 C26         7.3370    4.9510  -23.4270 C.ar      1 7F31507     0.0000 
     27 N27         6.5180    5.0190  -24.4600 N.ar      1 7F31507     0.0000 
     28 C28         5.3740    4.3420  -24.3950 C.ar      1 7F31507     0.0000 
     29 C29         4.9830    3.5540  -23.3080 C.ar      1 7F31507     0.0000 
     30 C30         4.4350    4.4930  -25.5640 C.3       1 7F31507     0.0000 
     31 F31         4.9410    3.8260  -26.6580 F         1 7F31507     0.0000 
     32 F32         3.1810    3.9740  -25.3000 F         1 7F31507     0.0000 
     33 F33         4.2250    5.8190  -25.8810 F         1 7F31507     0.0000 
     34 N34         3.0540    3.8180  -18.6680 N.pl3     1 7F31507     0.0000 
     35 H           9.2861    2.9104  -18.0894 H         1 7F31507     0.0000 
     36 H           8.3280    2.1626  -20.1905 H         1 7F31507     0.0000 
     37 H           7.8603    3.8707  -16.3784 H         1 7F31507     0.0000 
     38 H           3.4324    2.8406  -21.1667 H         1 7F31507     0.0000 
     39 H           6.9599    1.3533  -22.9976 H         1 7F31507     0.0000 
     40 H           7.2968   -1.0140  -23.3993 H         1 7F31507     0.0000 
     41 H           4.5923    0.4596  -19.6523 H         1 7F31507     0.0000 
     42 H           6.4222   -3.4347  -19.4996 H         1 7F31507     0.0000 
     43 H           3.2079   -4.5023  -17.1194 H         1 7F31507     0.0000 
     44 H           2.8320   -1.2594  -19.6563 H         1 7F31507     0.0000 
     45 H           7.7806    4.0569  -21.5703 H         1 7F31507     0.0000 
     46 H           8.2287    5.5177  -23.4074 H         1 7F31507     0.0000 
     47 H           4.0904    3.0772  -23.3006 H         1 7F31507     0.0000 
     48 H           3.1797    4.0863  -17.7129 H         1 7F31507     0.0000 
     49 H           2.2060    3.8181  -19.1980 H         1 7F31507     0.0000 
@<TRIPOS>BOND
     1    2    1 ar   
     2    6    1 ar   
     3   35    1 1    
     4    3    2 ar   
     5   36    2 1    
     6    4    3 ar   
     7   10    3 1    
     8    5    4 ar   
     9    8    4 1    
    10    6    5 ar   
    11    7    5 1    
    12   37    6 1    
    13    9    8 1    
    14   34    8 2    
    15   10    9 1    
    16   38    9 1    
    17   11   10 1    
    18   24   10 1    
    19   12   11 ar   
    20   16   11 ar   
    21   13   12 ar   
    22   39   12 1    
    23   14   13 ar   
    24   40   13 1    
    25   15   14 ar   
    26   23   14 1    
    27   16   15 ar   
    28   17   15 1    
    29   41   16 1    
    30   18   17 ar   
    31   22   17 ar   
    32   19   18 ar   
    33   42   18 1    
    34   20   19 ar   
    35   21   20 ar   
    36   43   20 1    
    37   22   21 ar   
    38   44   22 1    
    39   25   24 ar   
    40   29   24 ar   
    41   26   25 ar   
    42   45   25 1    
    43   27   26 ar   
    44   46   26 1    
    45   28   27 ar   
    46   29   28 ar   
    47   30   28 1    
    48   47   29 1    
    49   31   30 1    
    50   32   30 1    
    51   33   30 1    
    52   48   34 1    
    53   49   34 1    
@<TRIPOS>SUBSTRUCTURE
     1 7F31507     1 GROUP   
@<TRIPOS>SET

