#    Name: 1ja0_FMN_2_INTS_M
#    Modification time : Tue Mar 25 08:41:16 2014

@<TRIPOS>MOLECULE
1ja0_FMN_2_INTS_M
   58     0     9     0     0
SMALL
NO_CHARGES


@<TRIPOS>ATOM
      1 N           7.8230    1.0020   40.8580 N.am      2 SEC2        0.0000 
      2 N           6.4670    0.3600   40.9820 N.am      8 SEL2        0.0000 
      3 N           9.1790    1.6440   40.7340 N.am      5 SEP2        0.0000 
      4 N           6.0230    0.1305   42.3395 N.am      2 SEC2        0.0000 
      5 N           5.5790   -0.0990   43.6970 N.am      5 SEP2        0.0000 
      6 O           4.0030    0.5540   40.5890 O.2       1 ALC1        0.0000 
      7 O           4.8370    0.2420   39.4010 O.2       7 ALL1        0.0000 
      8 O           3.1690    0.8660   41.7770 O.2       4 ALP1        0.0000 
      9 CA          4.6675   -1.9470   35.5950 C.3       3 GLC5        0.0000 
     10 CA          5.7460   -0.2440   34.8760 C.3       9 GLL5        0.0000 
     11 CA          3.5890   -3.6500   36.3140 C.3       6 GLP5        0.0000 
     12 CA          5.3505   -2.3765   31.2400 C.3       3 GLC5        0.0000 
     13 CA          5.5280   -0.4710   31.1170 C.3       9 GLL5        0.0000 
     14 CA          5.1730   -4.2820   31.3630 C.3       6 GLP5        0.0000 
     15 CA          6.8125   -0.8250   29.5125 C.3       3 GLC5        0.0000 
     16 CA          8.0970   -1.1790   27.9080 C.3       6 GLP5        0.0000 
     17 CA          8.3835   -0.8660   29.7385 C.3       3 GLC5        0.0000 
     18 CA          8.6700   -0.5530   31.5690 C.3       9 GLL5        0.0000 
     19 CA          9.1435   -0.4535   39.0495 C.3       3 GLC5        0.0000 
     20 CA          9.0300   -0.2030   36.8710 C.3       9 GLL5        0.0000 
     21 CA          9.2570   -0.7040   41.2280 C.3       6 GLP5        0.0000 
     22 CA          9.3665    1.3475   37.7965 C.3       3 GLC5        0.0000 
     23 CA          9.7030    2.8980   38.7220 C.3       6 GLP5        0.0000 
     24 CA          8.1290    1.6475   36.3175 C.3       3 GLC5        0.0000 
     25 CA          7.2280    3.4980   35.7640 C.3       6 GLP5        0.0000 
     26 O           7.2620   -2.8685   37.6315 O.2       1 ALC1        0.0000 
     27 O           8.5860   -2.5230   37.5310 O.2       7 ALL1        0.0000 
     28 O           5.9380   -3.2140   37.7320 O.2       4 ALP1        0.0000 
     29 CA         10.0995   -1.2410   39.2120 C.3       3 GLC5        0.0000 
     30 CA         10.9420   -1.7780   37.1960 C.3       9 GLL5        0.0000 
     31 CA         12.2245   -0.3310   37.6780 C.3       3 GLC5        0.0000 
     32 CA         13.5070    1.1160   38.1600 C.3       6 GLP5        0.0000 
     33 O          12.6525   -0.1305   35.9320 O.2       1 ALC1        0.0000 
     34 O          11.7430   -1.3800   36.0790 O.2       7 ALL1        0.0000 
     35 O          13.5620    1.1190   35.7850 O.2       4 ALP1        0.0000 
     36 CA         11.4215   -3.9685   39.3095 C.3       3 GLC5        0.0000 
     37 CA         11.1890   -3.2700   37.5100 C.3       9 GLL5        0.0000 
     38 CA         11.6540   -4.6670   41.1090 C.3       6 GLP5        0.0000 
     39 N          12.1085   -7.7055   33.7785 N.am      2 SEC2        0.0000 
     40 N          12.9300   -6.7650   34.9080 N.am      8 SEL2        0.0000 
     41 N          11.2870   -8.6460   32.6490 N.am      5 SEP2        0.0000 
     42 N          13.9225   -7.7560   35.2795 N.am      2 SEC2        0.0000 
     43 N          14.9150   -8.7470   35.6510 N.am      5 SEP2        0.0000 
     44 N          14.0555   -6.3875   35.2625 N.am      2 SEC2        0.0000 
     45 N          15.1810   -6.0100   35.6170 N.am      5 SEP2        0.0000 
     46 N           9.9405   -8.3875   34.6420 N.am      2 SEC2        0.0000 
     47 N          10.2840   -7.1440   34.8520 N.am      8 SEL2        0.0000 
     48 N           9.5970   -9.6310   34.4320 N.am      5 SEP2        0.0000 
     49 N          10.7855   -7.8950   33.7505 N.am      2 SEC2        0.0000 
     50 N          11.9730   -9.2605   36.1955 N.am      2 SEC2        0.0000 
     51 N          11.6890   -7.9870   36.7290 N.am      8 SEL2        0.0000 
     52 N          12.2570  -10.5340   35.6620 N.am      5 SEP2        0.0000 
     53 N          13.3020   -8.3670   36.1900 N.am      2 SEC2        0.0000 
     54 N          12.8195   -8.5810   37.4905 N.am      2 SEC2        0.0000 
     55 N          13.9500   -9.1750   38.2520 N.am      5 SEP2        0.0000 
     56 CA         10.0530   -5.1238   37.8765 C.3       3 GLC5        0.0000 
     57 CA         11.1710   -4.1430   36.2780 C.3       9 GLL5        0.0000 
     58 CA          8.9260   -6.5410   38.8590 C.3       6 GLP5        0.0000 
@<TRIPOS>BOND
@<TRIPOS>SUBSTRUCTURE
     1 ALC1        6 GROUP        1 X    ALC  0     ROOT ALC X 1
     2 SEC2        1 GROUP        1 X    SEC  0     **** SEC X 2
     3 GLC5        9 GROUP        1 X    GLC  0     **** GLC X 6
     4 ALP1        8 GROUP        1 Y    ALP  0     ROOT ALP Y 8
     5 SEP2        3 GROUP        1 Y    SEP  0     **** SEP Y 9
     6 GLP5       11 GROUP        1 Y    GLP  0     **** GLP Y 13
     7 ALL1        7 GROUP        1 Z    ALL  0     ROOT ALL Z 15
     8 SEL2        2 GROUP        1 Z    SEL  0     **** SEL Z 16
     9 GLL5       10 GROUP        1 Z    GLL  0     **** GLL Z 20
@<TRIPOS>SET

