#    Name: 1ja0_FMN_2_ligand
#    Modification time : Tue Mar 25 08:41:16 2014

@<TRIPOS>MOLECULE
1ja0_FMN_2_ligand
   50    52     1     0     0
SMALL
NO_CHARGES


@<TRIPOS>ATOM
      1 N1          7.0870    0.0810   38.7930 N.2       1 FMN751      0.0000 
      2 C2          6.1560    0.2310   39.7750 C.2       1 FMN751      0.0000 
      3 O2          6.4670    0.3600   40.9820 O.2       1 FMN751      0.0000 
      4 N3          4.8370    0.2420   39.4010 N.am      1 FMN751      0.0000 
      5 C4          4.3160    0.1310   38.1210 C.2       1 FMN751      0.0000 
      6 O4          3.0440    0.1880   37.9990 O.2       1 FMN751      0.0000 
      7 C4A         5.2630   -0.0270   37.1020 C.2       1 FMN751      0.0000 
      8 N5          4.7570   -0.1310   35.8320 N.2       1 FMN751      0.0000 
      9 C5A         5.7460   -0.2440   34.8760 C.ar      1 FMN751      0.0000 
     10 C6          5.2780   -0.3270   33.5570 C.ar      1 FMN751      0.0000 
     11 C7          6.1610   -0.4230   32.4990 C.ar      1 FMN751      0.0000 
     12 C7M         5.5280   -0.4710   31.1170 C.3       1 FMN751      0.0000 
     13 C8          7.6200   -0.4530   32.7110 C.ar      1 FMN751      0.0000 
     14 C8M         8.6700   -0.5530   31.5690 C.3       1 FMN751      0.0000 
     15 C9          8.0980   -0.3830   33.9760 C.ar      1 FMN751      0.0000 
     16 C9A         7.1990   -0.2730   35.0900 C.ar      1 FMN751      0.0000 
     17 N10         7.6330   -0.1850   36.4790 N.pl3     1 FMN751      0.0000 
     18 C10         6.6390   -0.0340   37.5080 C.2       1 FMN751      0.0000 
     19 C1'         9.0300   -0.2030   36.8710 C.3       1 FMN751      0.0000 
     20 C2'         9.5120   -1.6630   36.7720 C.3       1 FMN751      0.0000 
     21 O2'         8.5860   -2.5230   37.5310 O.3       1 FMN751      0.0000 
     22 C3'        10.9420   -1.7780   37.1960 C.3       1 FMN751      0.0000 
     23 O3'        11.7430   -1.3800   36.0790 O.3       1 FMN751      0.0000 
     24 C4'        11.1890   -3.2700   37.5100 C.3       1 FMN751      0.0000 
     25 O4'        12.5850   -3.2520   37.9220 O.3       1 FMN751      0.0000 
     26 C5'        11.1710   -4.1430   36.2780 C.3       1 FMN751      0.0000 
     27 O5'        11.3680   -5.5430   36.6770 O.3       1 FMN751      0.0000 
     28 P          11.5710   -6.8920   35.6810 P.3       1 FMN751      0.0000 
     29 O1P        12.9300   -6.7650   34.9080 O.co2     1 FMN751      0.0000 
     30 O2P        10.2840   -7.1440   34.8520 O.co2     1 FMN751      0.0000 
     31 O3P        11.6890   -7.9870   36.7290 O.co2     1 FMN751      0.0000 
     32 H           4.1076    0.3506   40.2000 H         1 FMN751      0.0000 
     33 H           4.2595   -0.3155   33.3838 H         1 FMN751      0.0000 
     34 H           9.1088   -0.4060   34.1783 H         1 FMN751      0.0000 
     35 H           9.1626    0.1250   37.8930 H         1 FMN751      0.0000 
     36 H           9.6389    0.3965   36.2080 H         1 FMN751      0.0000 
     37 H           9.4426   -1.9296   35.7011 H         1 FMN751      0.0000 
     38 H          11.1121   -1.2093   38.0554 H         1 FMN751      0.0000 
     39 H          10.5764   -3.5997   38.2519 H         1 FMN751      0.0000 
     40 H          11.9661   -3.8210   35.6050 H         1 FMN751      0.0000 
     41 H          10.2132   -4.0201   35.7717 H         1 FMN751      0.0000 
     42 H           6.2166   -0.5418   30.3953 H         1 FMN751      0.0000 
     43 H           4.9159   -1.2553   31.0159 H         1 FMN751      0.0000 
     44 H           4.9878    0.3489   30.9273 H         1 FMN751      0.0000 
     45 H           9.6050   -0.5585   31.9236 H         1 FMN751      0.0000 
     46 H           8.5555   -1.3884   31.0313 H         1 FMN751      0.0000 
     47 H           8.6020    0.2162   30.9336 H         1 FMN751      0.0000 
     48 H           7.6878   -2.3590   37.1233 H         1 FMN751      0.0000 
     49 H          12.0512   -0.4544   36.2984 H         1 FMN751      0.0000 
     50 H          13.0328   -2.6185   37.2910 H         1 FMN751      0.0000 
@<TRIPOS>BOND
     1    2    1 1    
     2   18    1 2    
     3    3    2 2    
     4    4    2 am   
     5    5    4 am   
     6   32    4 1    
     7    6    5 2    
     8    7    5 1    
     9    8    7 2    
    10   18    7 1    
    11    9    8 1    
    12   10    9 ar   
    13   16    9 ar   
    14   11   10 ar   
    15   33   10 1    
    16   12   11 1    
    17   13   11 ar   
    18   42   12 1    
    19   43   12 1    
    20   44   12 1    
    21   14   13 1    
    22   15   13 ar   
    23   45   14 1    
    24   46   14 1    
    25   47   14 1    
    26   16   15 ar   
    27   34   15 1    
    28   17   16 1    
    29   18   17 1    
    30   19   17 1    
    31   20   19 1    
    32   35   19 1    
    33   36   19 1    
    34   21   20 1    
    35   22   20 1    
    36   37   20 1    
    37   48   21 1    
    38   23   22 1    
    39   24   22 1    
    40   38   22 1    
    41   49   23 1    
    42   25   24 1    
    43   26   24 1    
    44   39   24 1    
    45   50   25 1    
    46   27   26 1    
    47   40   26 1    
    48   41   26 1    
    49   28   27 1    
    50   29   28 ar   
    51   30   28 ar   
    52   31   28 ar   
@<TRIPOS>SUBSTRUCTURE
     1 FMN751      1 GROUP   
@<TRIPOS>SET

