#    Name: 1WOK_4_CAVITY_N1_6.mol2
#    Modification time : Mon Mar 10 16:39:01 2014

@<TRIPOS>MOLECULE
1WOK_4_CAVITY_N1_6.mol2
  178     0     6     0     0
SMALL
NO_CHARGES


@<TRIPOS>ATOM
      1 N          13.4326   -5.2256   89.7313 N.2       2 ALA2        0.0000 
      2 O          10.0398   -5.2178   92.6875 O.2       2 ALA2        0.0000 
      3 N          13.2043   -6.6854   89.4731 N.2       2 ALA2        0.0000 
      4 OG         12.0734   -6.6829   90.4585 O.2       1 SER1        0.0000 
      5 OG         10.9425   -6.6803   91.4439 O.2       1 SER1        0.0000 
      6 O           9.8116   -6.6777   92.4293 O.2       2 ALA2        0.0000 
      7 N          14.1069   -8.1479   88.2295 N.2       2 ALA2        0.0000 
      8 DU         12.9760   -8.1453   89.2149 H         6 CUB7        0.0000 
      9 DU         11.8451   -8.1427   90.2003 H         6 CUB7        0.0000 
     10 DU         10.7142   -8.1402   91.1857 H         6 CUB7        0.0000 
     11 CA          9.5833   -8.1376   92.1711 C.3       5 GLY6        0.0000 
     12 DU         11.6168   -9.6026   89.9421 H         6 CUB7        0.0000 
     13 N          10.4859   -9.6000   90.9275 N.2       2 ALA2        0.0000 
     14 DU         11.3885  -11.0625   89.6840 H         6 CUB7        0.0000 
     15 N          10.2576  -11.0599   90.6694 N.2       2 ALA2        0.0000 
     16 CA         10.0293  -12.5198   90.4112 C.3       5 GLY6        0.0000 
     17 N          14.1629   -7.0300   90.5741 N.2       2 ALA2        0.0000 
     18 OG         11.9011   -7.0249   92.5450 O.2       1 SER1        0.0000 
     19 O          11.6728   -8.4848   92.2868 O.2       2 ALA2        0.0000 
     20 N          11.4445   -9.9447   92.0286 N.2       2 ALA2        0.0000 
     21 CA         10.3993   -0.2433   81.6705 C.3       5 GLY6        0.0000 
     22 CA         11.3020   -1.7057   80.4269 C.3       5 GLY6        0.0000 
     23 CA         10.1710   -1.7031   81.4123 C.3       5 GLY6        0.0000 
     24 OG          9.0401   -1.7006   82.3977 O.2       1 SER1        0.0000 
     25 CZ          9.9428   -3.1630   81.1541 C.ar      4 PHE5        0.0000 
     26 CZ          8.8119   -3.1604   82.1395 C.ar      4 PHE5        0.0000 
     27 OG          7.6809   -3.1579   83.1249 O.2       1 SER1        0.0000 
     28 CZ          5.4191   -3.1527   85.0958 C.ar      4 PHE5        0.0000 
     29 NZ          4.2882   -3.1502   86.0812 N.2       3 LYS4        0.0000 
     30 CZ          7.4527   -4.6177   82.8668 C.ar      4 PHE5        0.0000 
     31 OG          6.3217   -4.6152   83.8522 O.2       1 SER1        0.0000 
     32 DU          5.1908   -4.6126   84.8376 H         6 CUB7        0.0000 
     33 NZ          4.0599   -4.6100   85.8230 N.2       3 LYS4        0.0000 
     34 CZ          7.2244   -6.0776   82.6086 C.ar      4 PHE5        0.0000 
     35 CZ          6.0935   -6.0750   83.5940 C.ar      4 PHE5        0.0000 
     36 DU          4.9626   -6.0725   84.5794 H         6 CUB7        0.0000 
     37 NZ          3.8316   -6.0699   85.5648 N.2       3 LYS4        0.0000 
     38 N           4.7343   -7.5323   84.3212 N.2       2 ALA2        0.0000 
     39 N           3.6034   -7.5298   85.3066 N.2       2 ALA2        0.0000 
     40 N          10.4404   -3.4159   90.8592 N.2       2 ALA2        0.0000 
     41 N           9.3095   -3.4134   91.8446 N.2       2 ALA2        0.0000 
     42 N          12.4740   -4.8809   88.6302 N.2       2 ALA2        0.0000 
     43 N          11.3431   -4.8784   89.6156 N.2       2 ALA2        0.0000 
     44 OG         10.2121   -4.8758   90.6010 O.2       1 SER1        0.0000 
     45 O           9.0812   -4.8732   91.5864 O.2       2 ALA2        0.0000 
     46 N          12.2457   -6.3408   88.3720 N.2       2 ALA2        0.0000 
     47 DU         11.1148   -6.3382   89.3574 H         6 CUB7        0.0000 
     48 DU          9.9839   -6.3357   90.3428 H         6 CUB7        0.0000 
     49 O           8.8529   -6.3331   91.3283 O.2       2 ALA2        0.0000 
     50 N          14.2792   -7.8058   86.1430 N.2       2 ALA2        0.0000 
     51 N          13.1483   -7.8033   87.1284 N.2       2 ALA2        0.0000 
     52 DU         12.0174   -7.8007   88.1139 H         6 CUB7        0.0000 
     53 DU          9.7556   -7.7955   90.0847 H         6 CUB7        0.0000 
     54 CA          8.6247   -7.7930   91.0701 C.3       5 GLY6        0.0000 
     55 N          12.9200   -9.2631   86.8703 N.2       2 ALA2        0.0000 
     56 N          11.7891   -9.2606   87.8557 N.2       2 ALA2        0.0000 
     57 DU         10.6582   -9.2580   88.8411 H         6 CUB7        0.0000 
     58 NZ          9.5273   -9.2554   89.8265 N.2       3 LYS4        0.0000 
     59 N          11.5608  -10.7204   87.5975 N.2       2 ALA2        0.0000 
     60 NZ         10.4299  -10.7179   88.5829 N.2       3 LYS4        0.0000 
     61 NZ         10.2017  -12.1777   88.3247 N.2       3 LYS4        0.0000 
     62 N          12.4888   -0.5905   81.7861 N.2       2 ALA2        0.0000 
     63 CA         11.3579   -0.5879   82.7715 C.3       5 GLY6        0.0000 
     64 O          12.2606   -2.0503   81.5279 O.2       2 ALA2        0.0000 
     65 CA         11.1297   -2.0478   82.5134 C.3       5 GLY6        0.0000 
     66 CZ          9.9987   -2.0452   83.4988 C.ar      4 PHE5        0.0000 
     67 NZ          4.3442   -2.0323   88.4258 N.2       3 LYS4        0.0000 
     68 CA          9.7705   -3.5051   83.2406 C.3       5 GLY6        0.0000 
     69 CZ          8.6395   -3.5025   84.2260 C.ar      4 PHE5        0.0000 
     70 CZ          7.5086   -3.4999   85.2114 C.ar      4 PHE5        0.0000 
     71 CZ          5.2468   -3.4948   87.1822 C.ar      4 PHE5        0.0000 
     72 CZ          8.4113   -4.9624   83.9678 C.ar      4 PHE5        0.0000 
     73 CZ          7.2804   -4.9598   84.9532 C.ar      4 PHE5        0.0000 
     74 CZ          6.1494   -4.9572   85.9386 C.ar      4 PHE5        0.0000 
     75 NZ          5.0185   -4.9546   86.9240 N.2       3 LYS4        0.0000 
     76 CZ          8.1830   -6.4222   83.7096 C.ar      4 PHE5        0.0000 
     77 CZ          7.0521   -6.4197   84.6951 C.ar      4 PHE5        0.0000 
     78 DU          5.9212   -6.4171   85.6805 H         6 CUB7        0.0000 
     79 NZ          4.7902   -6.4145   86.6659 N.2       3 LYS4        0.0000 
     80 CZ          5.6929   -7.8770   85.4223 C.ar      4 PHE5        0.0000 
     81 N           4.5620   -7.8744   86.4077 N.2       2 ALA2        0.0000 
     82 CA          3.4311   -7.8718   87.3931 C.3       5 GLY6        0.0000 
     83 CZ          4.3337   -9.3343   86.1495 C.ar      4 PHE5        0.0000 
     84 OG         12.3165   -0.9325   83.8726 O.2       1 SER1        0.0000 
     85 CZ         11.1856   -0.9299   84.8580 C.ar      4 PHE5        0.0000 
     86 N          12.0883   -2.3924   83.6144 N.2       2 ALA2        0.0000 
     87 CZ         10.9573   -2.3898   84.5998 C.ar      4 PHE5        0.0000 
     88 CZ          9.8264   -2.3872   85.5852 C.ar      4 PHE5        0.0000 
     89 CZ          5.3028   -2.3769   89.5269 C.ar      4 PHE5        0.0000 
     90 CA         10.7291   -3.8497   84.3416 C.3       5 GLY6        0.0000 
     91 CZ          9.5982   -3.8471   85.3271 C.ar      4 PHE5        0.0000 
     92 CZ          8.4672   -3.8445   86.3125 C.ar      4 PHE5        0.0000 
     93 CZ          6.2054   -3.8394   88.2833 C.ar      4 PHE5        0.0000 
     94 NZ          5.0745   -3.8368   89.2687 N.2       3 LYS4        0.0000 
     95 CA          9.3699   -5.3070   85.0689 C.3       5 GLY6        0.0000 
     96 DU          8.2390   -5.3044   86.0543 H         6 CUB7        0.0000 
     97 CZ          7.1080   -5.3018   87.0397 C.ar      4 PHE5        0.0000 
     98 NZ          5.9771   -5.2993   88.0251 N.2       3 LYS4        0.0000 
     99 CZ          9.1416   -6.7668   84.8107 C.ar      4 PHE5        0.0000 
    100 CZ          8.0107   -6.7643   85.7961 C.ar      4 PHE5        0.0000 
    101 DU          6.8798   -6.7617   86.7815 H         6 CUB7        0.0000 
    102 CA          5.7489   -6.7591   87.7669 C.3       5 GLY6        0.0000 
    103 CZ          8.9133   -8.2267   84.5525 C.ar      4 PHE5        0.0000 
    104 CZ          6.6515   -8.2216   86.5233 C.ar      4 PHE5        0.0000 
    105 NZ          5.5206   -8.2190   87.5087 N.2       3 LYS4        0.0000 
    106 CA          4.3897   -8.2164   88.4942 C.3       5 GLY6        0.0000 
    107 NZ          5.2923   -9.6789   87.2506 N.2       3 LYS4        0.0000 
    108 N          10.6127   -3.0739   88.7727 N.2       2 ALA2        0.0000 
    109 CA          9.4818   -3.0713   89.7581 C.3       5 GLY6        0.0000 
    110 N           8.3509   -3.0687   90.7436 N.2       2 ALA2        0.0000 
    111 O          11.5154   -4.5363   87.5292 O.2       2 ALA2        0.0000 
    112 N          10.3844   -4.5338   88.5146 N.2       2 ALA2        0.0000 
    113 DU          9.2535   -4.5312   89.5000 H         6 CUB7        0.0000 
    114 O           8.1226   -4.5286   90.4854 O.2       2 ALA2        0.0000 
    115 O           6.9917   -4.5260   91.4708 O.2       2 ALA2        0.0000 
    116 O          12.4180   -5.9988   86.2856 O.2       2 ALA2        0.0000 
    117 DU         11.2871   -5.9962   87.2710 H         6 CUB7        0.0000 
    118 DU          9.0253   -5.9911   89.2418 H         6 CUB7        0.0000 
    119 O           7.8943   -5.9885   90.2272 O.2       2 ALA2        0.0000 
    120 O          13.3206   -7.4612   85.0420 O.2       2 ALA2        0.0000 
    121 DU         12.1897   -7.4587   86.0274 H         6 CUB7        0.0000 
    122 DU          9.9279   -7.4535   87.9982 H         6 CUB7        0.0000 
    123 DU          8.7970   -7.4509   88.9836 H         6 CUB7        0.0000 
    124 CA          7.6661   -7.4484   89.9690 C.3       5 GLY6        0.0000 
    125 N          13.0923   -8.9211   84.7838 N.2       2 ALA2        0.0000 
    126 N          11.9614   -8.9185   85.7692 N.2       2 ALA2        0.0000 
    127 DU         10.8305   -8.9160   86.7546 H         6 CUB7        0.0000 
    128 NZ          9.6996   -8.9134   87.7400 N.2       3 LYS4        0.0000 
    129 NZ          8.5687   -8.9108   88.7254 N.2       3 LYS4        0.0000 
    130 NZ          9.4713  -10.3733   87.4819 N.2       3 LYS4        0.0000 
    131 N           3.7757   -7.1877   83.2202 N.2       2 ALA2        0.0000 
    132 NZ          8.0815   -1.3560   81.2967 N.2       3 LYS4        0.0000 
    133 NZ          7.8532   -2.8158   81.0385 N.2       3 LYS4        0.0000 
    134 OG          6.7223   -2.8133   82.0239 O.2       1 SER1        0.0000 
    135 OG          5.5914   -2.8107   83.0093 O.2       1 SER1        0.0000 
    136 OG          4.4605   -2.8081   83.9947 O.2       1 SER1        0.0000 
    137 CZ          7.6250   -4.2757   80.7803 C.ar      4 PHE5        0.0000 
    138 CZ          6.4941   -4.2731   81.7657 C.ar      4 PHE5        0.0000 
    139 OG          5.3631   -4.2706   82.7511 O.2       1 SER1        0.0000 
    140 DU          4.2322   -4.2680   83.7365 H         6 CUB7        0.0000 
    141 CZ          6.2658   -5.7330   81.5075 C.ar      4 PHE5        0.0000 
    142 O           5.1349   -5.7304   82.4929 O.2       2 ALA2        0.0000 
    143 N           4.0039   -5.7279   83.4784 N.2       2 ALA2        0.0000 
    144 N           2.8730   -5.7253   84.4638 N.2       2 ALA2        0.0000 
    145 O          11.9159   -2.7344   85.7009 O.2       2 ALA2        0.0000 
    146 CZ         10.7850   -2.7318   86.6863 C.ar      4 PHE5        0.0000 
    147 O           6.2614   -2.7215   90.6279 O.2       2 ALA2        0.0000 
    148 CA         11.6877   -4.1943   85.4427 C.3       5 GLY6        0.0000 
    149 DU         10.5568   -4.1917   86.4281 H         6 CUB7        0.0000 
    150 CZ          9.4258   -4.1891   87.4135 C.ar      4 PHE5        0.0000 
    151 CZ          8.2949   -4.1866   88.3989 C.ar      4 PHE5        0.0000 
    152 CZ          7.1640   -4.1840   89.3843 C.ar      4 PHE5        0.0000 
    153 NZ          6.0331   -4.1814   90.3697 N.2       3 LYS4        0.0000 
    154 CA         11.4594   -5.6542   85.1845 C.3       5 GLY6        0.0000 
    155 DU         10.3285   -5.6516   86.1699 H         6 CUB7        0.0000 
    156 DU          9.1976   -5.6490   87.1553 H         6 CUB7        0.0000 
    157 DU          8.0666   -5.6464   88.1407 H         6 CUB7        0.0000 
    158 DU          6.9357   -5.6439   89.1262 H         6 CUB7        0.0000 
    159 N           5.8048   -5.6413   90.1116 N.2       2 ALA2        0.0000 
    160 CZ         11.2311   -7.1140   84.9263 C.ar      4 PHE5        0.0000 
    161 DU         10.1002   -7.1115   85.9118 H         6 CUB7        0.0000 
    162 DU          8.9693   -7.1089   86.8972 H         6 CUB7        0.0000 
    163 DU          7.8384   -7.1063   87.8826 H         6 CUB7        0.0000 
    164 DU          6.7075   -7.1037   88.8680 H         6 CUB7        0.0000 
    165 N          11.0028   -8.5739   84.6682 N.2       2 ALA2        0.0000 
    166 CZ          9.8719   -8.5713   85.6536 C.ar      4 PHE5        0.0000 
    167 CZ          8.7410   -8.5688   86.6390 C.ar      4 PHE5        0.0000 
    168 NZ          7.6101   -8.5662   87.6244 N.2       3 LYS4        0.0000 
    169 NZ          6.4792   -8.5636   88.6098 N.2       3 LYS4        0.0000 
    170 NZ          5.9920   -1.0088   81.1810 N.2       3 LYS4        0.0000 
    171 OG          4.8611   -1.0062   82.1664 O.2       1 SER1        0.0000 
    172 NZ          5.7637   -2.4686   80.9228 N.2       3 LYS4        0.0000 
    173 OG          4.6328   -2.4661   81.9082 O.2       1 SER1        0.0000 
    174 CA          5.5354   -3.9285   80.6647 C.3       5 GLY6        0.0000 
    175 DU          4.4045   -3.9259   81.6501 H         6 CUB7        0.0000 
    176 DU          3.2736   -3.9234   82.6355 H         6 CUB7        0.0000 
    177 O           4.1763   -5.3858   81.3919 O.2       2 ALA2        0.0000 
    178 DU          3.0453   -5.3832   82.3773 H         6 CUB7        0.0000 
@<TRIPOS>BOND
@<TRIPOS>SUBSTRUCTURE
     1 SER1        4 GROUP   
     2 ALA2        1 GROUP   
     3 LYS4       29 GROUP   
     4 PHE5       25 GROUP   
     5 GLY6       11 GROUP   
     6 CUB7        8 GROUP   
@<TRIPOS>SET

