#    Name: 1wok_CNQ_4_INTS_M
#    Modification time : Tue Mar 25 09:12:43 2014

@<TRIPOS>MOLECULE
1wok_CNQ_4_INTS_M
   29     0     6     0     0
SMALL
NO_CHARGES


@<TRIPOS>ATOM
      1 N          13.8235   -0.6720   87.3010 N.am      1 SEC2        0.0000 
      2 N          13.0830   -1.1150   86.1780 N.am      5 SEL2        0.0000 
      3 N          14.5640   -0.2290   88.4240 N.am      3 SEP2        0.0000 
      4 N          13.5640   -0.0090   86.1240 N.am      1 SEC2        0.0000 
      5 N          14.0450    1.0970   86.0700 N.am      3 SEP2        0.0000 
      6 CA          4.8835   -8.1640   90.1610 C.3       2 GLC5        0.0000 
      7 CA          6.8980   -7.8390   89.5340 C.3       6 GLL5        0.0000 
      8 CA          2.8690   -8.4890   90.7880 C.3       4 GLP5        0.0000 
      9 CA          6.7090   -9.2160   90.2200 C.3       2 GLC5        0.0000 
     10 CA          6.5200  -10.5930   90.9060 C.3       4 GLP5        0.0000 
     11 CA         11.2875   -3.2780   82.1330 C.3       2 GLC5        0.0000 
     12 CA         10.1340   -1.6880   81.9930 C.3       6 GLL5        0.0000 
     13 CA         11.8510   -5.2410   82.1650 C.3       4 GLP5        0.0000 
     14 CA         13.4735   -1.6110   82.0712 C.3       2 GLC5        0.0000 
     15 CA         11.3140   -0.9420   82.2090 C.3       6 GLL5        0.0000 
     16 CA         15.2730   -2.2130   81.3230 C.3       4 GLP5        0.0000 
     17 CA         12.6105    0.5225   82.2013 C.3       2 GLC5        0.0000 
     18 CA         12.0340   -1.0760   83.4300 C.3       6 GLL5        0.0000 
     19 CA         13.5470    2.0540   81.5830 C.3       4 GLP5        0.0000 
     20 CA          9.7445    0.3195   81.3200 C.3       2 GLC5        0.0000 
     21 CA          8.7650    1.9540   80.5390 C.3       4 GLP5        0.0000 
     22 CA         10.2075   -1.1240   80.2340 C.3       2 GLC5        0.0000 
     23 CA          9.6910   -0.9330   78.3670 C.3       4 GLP5        0.0000 
     24 CA         10.9385   -3.9450   82.8932 C.3       2 GLC5        0.0000 
     25 CA          9.6610   -2.5730   82.9910 C.3       6 GLL5        0.0000 
     26 CA         11.8335   -3.3782   83.0563 C.3       2 GLC5        0.0000 
     27 CA         11.5980   -1.9550   84.4650 C.3       6 GLL5        0.0000 
     28 CA         10.1035   -4.7473   83.2523 C.3       2 GLC5        0.0000 
     29 CA          8.6960   -4.3380   84.9540 C.3       6 GLL5        0.0000 
@<TRIPOS>BOND
@<TRIPOS>SUBSTRUCTURE
     1 SEC2        1 GROUP        1 X    SEC  0     ROOT SEC X 2
     2 GLC5        6 GROUP        1 X    GLC  0     **** GLC X 6
     3 SEP2        3 GROUP        1 Y    SEP  0     ROOT SEP Y 9
     4 GLP5        8 GROUP        1 Y    GLP  0     **** GLP Y 13
     5 SEL2        2 GROUP        1 Z    SEL  0     ROOT SEL Z 16
     6 GLL5        7 GROUP        1 Z    GLL  0     **** GLL Z 20
@<TRIPOS>SET

