#    Name: 1wok_CNQ_4_ligand
#    Modification time : Tue Mar 25 09:12:43 2014

@<TRIPOS>MOLECULE
1wok_CNQ_4_ligand
   30    32     1     0     0
SMALL
NO_CHARGES


@<TRIPOS>ATOM
      1 C1         11.3140   -0.9420   82.2090 C.ar      1 CNQ4        0.0000 
      2 C2         10.1340   -1.6880   81.9930 C.ar      1 CNQ4        0.0000 
      3 C3          9.6610   -2.5730   82.9910 C.ar      1 CNQ4        0.0000 
      4 C4         10.3910   -2.7250   84.2520 C.ar      1 CNQ4        0.0000 
      5 C5         11.5980   -1.9550   84.4650 C.ar      1 CNQ4        0.0000 
      6 C6         12.0340   -1.0760   83.4300 C.ar      1 CNQ4        0.0000 
      7 N7          8.5000   -3.3080   82.7830 N.ar      1 CNQ4        0.0000 
      8 C8          8.0160   -4.1690   83.7250 C.ar      1 CNQ4        0.0000 
      9 C9          8.6960   -4.3380   84.9540 C.ar      1 CNQ4        0.0000 
     10 N10         9.8640   -3.6120   85.1870 N.ar      1 CNQ4        0.0000 
     11 C11        12.4190   -2.0220   85.7000 C.2       1 CNQ4        0.0000 
     12 N12        12.4110   -3.2110   86.3350 N.am      1 CNQ4        0.0000 
     13 O13        13.0830   -1.1150   86.1780 O.2       1 CNQ4        0.0000 
     14 C14         8.2440   -5.2480   86.0470 C.ar      1 CNQ4        0.0000 
     15 C15         8.3310   -4.7750   87.3740 C.ar      1 CNQ4        0.0000 
     16 C16         7.9180   -5.5710   88.4680 C.ar      1 CNQ4        0.0000 
     17 C17         7.4080   -6.8650   88.2140 C.ar      1 CNQ4        0.0000 
     18 C18         7.3100   -7.3660   86.8920 C.ar      1 CNQ4        0.0000 
     19 C19         7.7330   -6.5440   85.8100 C.ar      1 CNQ4        0.0000 
     20 CL24        6.8980   -7.8390   89.5340 Cl        1 CNQ4        0.0000 
     21 H          11.6559   -0.3030   81.4899 H         1 CNQ4        0.0000 
     22 H           9.6206   -1.5894   81.1157 H         1 CNQ4        0.0000 
     23 H          12.8916   -0.5246   83.5704 H         1 CNQ4        0.0000 
     24 H           7.1530   -4.7086   83.5614 H         1 CNQ4        0.0000 
     25 H          12.9458   -3.2630   87.1784 H         1 CNQ4        0.0000 
     26 H          11.8710   -3.9352   85.9062 H         1 CNQ4        0.0000 
     27 H           8.7029   -3.8303   87.5510 H         1 CNQ4        0.0000 
     28 H           7.9864   -5.2206   89.4146 H         1 CNQ4        0.0000 
     29 H           6.9455   -8.2929   86.7173 H         1 CNQ4        0.0000 
     30 H           7.6647   -6.8990   84.8523 H         1 CNQ4        0.0000 
@<TRIPOS>BOND
     1    2    1 ar   
     2    6    1 ar   
     3   21    1 1    
     4    3    2 ar   
     5   22    2 1    
     6    4    3 ar   
     7    7    3 ar   
     8    5    4 ar   
     9   10    4 ar   
    10    6    5 ar   
    11   11    5 1    
    12   23    6 1    
    13    8    7 ar   
    14    9    8 ar   
    15   24    8 1    
    16   10    9 ar   
    17   14    9 1    
    18   12   11 am   
    19   13   11 2    
    20   25   12 1    
    21   26   12 1    
    22   15   14 ar   
    23   19   14 ar   
    24   16   15 ar   
    25   27   15 1    
    26   17   16 ar   
    27   28   16 1    
    28   18   17 ar   
    29   20   17 1    
    30   19   18 ar   
    31   29   18 1    
    32   30   19 1    
@<TRIPOS>SUBSTRUCTURE
     1 CNQ4        1 GROUP   
@<TRIPOS>SET

