#    Name: 2bz5_AB4_1_INTS_M
#    Modification time : Mon Mar 24 21:58:29 2014

@<TRIPOS>MOLECULE
2bz5_AB4_1_INTS_M
   60     0     9     0     0
SMALL
NO_CHARGES


@<TRIPOS>ATOM
      1 CA         29.5160    6.3990   46.5675 C.3       3 GLC5        0.0000 
      2 CA         30.7790    5.1300   47.6290 C.3       9 GLL5        0.0000 
      3 CA         28.2530    7.6680   45.5060 C.3       6 GLP5        0.0000 
      4 CA         29.1530    4.5895   47.5485 C.3       3 GLC5        0.0000 
      5 CA         27.5270    4.0490   47.4680 C.3       6 GLP5        0.0000 
      6 CA         35.4495    9.4900   51.3065 C.3       3 GLC5        0.0000 
      7 CA         35.5620    8.5580   49.8150 C.3       9 GLL5        0.0000 
      8 CA         35.3370   10.4220   52.7980 C.3       6 GLP5        0.0000 
      9 N          30.4385    2.6745   51.0440 N.am      2 SEC2        0.0000 
     10 N          31.4600    3.7320   50.5550 N.am      8 SEL2        0.0000 
     11 N          29.4170    1.6170   51.5330 N.am      5 SEP2        0.0000 
     12 CA         28.3065    4.9100   52.7180 C.3       3 GLC5        0.0000 
     13 CA         28.7640    6.9670   52.5150 C.3       9 GLL5        0.0000 
     14 CA         27.8490    2.8530   52.9210 C.3       6 GLP5        0.0000 
     15 N          27.0805   11.6860   52.2715 N.am      2 SEC2        0.0000 
     16 N          27.7650   10.5350   52.3710 N.am      8 SEL2        0.0000 
     17 N          26.3960   12.8370   52.1720 N.am      5 SEP2        0.0000 
     18 CA         26.6990   12.1555   50.1405 C.3       3 GLC5        0.0000 
     19 CA         27.5330   10.7090   49.2060 C.3       9 GLL5        0.0000 
     20 CA         25.8650   13.6020   51.0750 C.3       6 GLP5        0.0000 
     21 O          25.2315   10.9090   49.1395 O.2       1 ALC1        0.0000 
     22 O          26.3400   10.2560   49.6440 O.2       7 ALL1        0.0000 
     23 O          24.1230   11.5620   48.6350 O.2       4 ALP1        0.0000 
     24 CA         27.3570    7.3845   50.6928 C.3       3 GLC5        0.0000 
     25 CA         29.2220    7.8510   50.2890 C.3       9 GLL5        0.0000 
     26 CA         25.4790    7.4480   50.6390 C.3       6 GLP5        0.0000 
     27 CA         26.9972    7.5232   51.6735 C.3       3 GLC5        0.0000 
     28 CA         27.2012    6.9203   53.7730 C.3       3 GLC5        0.0000 
     29 CA         28.2670    8.2300   52.9010 C.3       9 GLL5        0.0000 
     30 CA         25.8870    6.2420   54.8380 C.3       6 GLP5        0.0000 
     31 CA         27.0452    9.7583   53.9447 C.3       3 GLC5        0.0000 
     32 CA         25.8280   10.7460   55.4510 C.3       6 GLP5        0.0000 
     33 CA         29.3568    9.8938   53.5272 C.3       3 GLC5        0.0000 
     34 CA         30.4510   11.0170   54.6160 C.3       6 GLP5        0.0000 
     35 CA         26.9847    8.3332   50.9773 C.3       3 GLC5        0.0000 
     36 CA         28.2580    9.3110   51.9760 C.3       9 GLL5        0.0000 
     37 CA         26.8095    8.9465   50.0423 C.3       3 GLC5        0.0000 
     38 CA         28.7470   10.1810   49.6850 C.3       9 GLL5        0.0000 
     39 CA         31.1722   11.7692   50.9297 C.3       3 GLC5        0.0000 
     40 CA         31.2260   10.2620   49.5750 C.3       9 GLL5        0.0000 
     41 CA         30.5150   13.0000   52.5120 C.3       6 GLP5        0.0000 
     42 CA         32.9982   12.2182   46.4315 C.3       3 GLC5        0.0000 
     43 CA         32.3990   11.8410   48.1580 C.3       9 GLL5        0.0000 
     44 CA         34.2240   12.3430   44.9240 C.3       6 GLP5        0.0000 
     45 CA         29.8380   10.4900   46.8370 C.3       3 GLC5        0.0000 
     46 CA         31.1460   12.3460   47.7200 C.3       9 GLL5        0.0000 
     47 CA         29.1310    8.9140   45.7000 C.3       6 GLP5        0.0000 
     48 CA         33.1260   12.6590   49.1452 C.3       3 GLC5        0.0000 
     49 CA         34.4710   13.4810   50.1110 C.3       6 GLP5        0.0000 
     50 CA         30.0821   12.0602   50.6710 C.3       3 GLC5        0.0000 
     51 CA         29.9440   11.7860   48.2280 C.3       9 GLL5        0.0000 
     52 CA         28.0585   13.8918   47.3213 C.3       3 GLC5        0.0000 
     53 CA         28.7110   12.2600   47.7590 C.3       9 GLL5        0.0000 
     54 CA         28.0070   15.7950   46.6360 C.3       6 GLP5        0.0000 
     55 CA         26.1215   10.0015   47.6300 C.3       3 GLC5        0.0000 
     56 CA         27.5090   11.7170   48.2540 C.3       9 GLL5        0.0000 
     57 CA         24.7220    8.7900   46.5300 C.3       6 GLP5        0.0000 
     58 CA         27.7561   13.1355   49.2704 C.3       3 GLC5        0.0000 
     59 CA         27.0940   14.4010   50.4170 C.3       6 GLP5        0.0000 
     60 CA         28.7039   10.0996   47.1814 C.3       3 GLC5        0.0000 
@<TRIPOS>BOND
@<TRIPOS>SUBSTRUCTURE
     1 ALC1       21 GROUP        1 X    ALC  0     ROOT ALC X 1
     2 SEC2        9 GROUP        1 X    SEC  0     **** SEC X 2
     3 GLC5        1 GROUP        1 X    GLC  0     **** GLC X 6
     4 ALP1       23 GROUP        1 Y    ALP  0     ROOT ALP Y 8
     5 SEP2       11 GROUP        1 Y    SEP  0     **** SEP Y 9
     6 GLP5        3 GROUP        1 Y    GLP  0     **** GLP Y 13
     7 ALL1       22 GROUP        1 Z    ALL  0     ROOT ALL Z 15
     8 SEL2       10 GROUP        1 Z    SEL  0     **** SEL Z 16
     9 GLL5        2 GROUP        1 Z    GLL  0     **** GLL Z 20
@<TRIPOS>SET

