#    Name: 2bz5_AB4_1_ligand
#    Modification time : Mon Mar 24 21:58:29 2014

@<TRIPOS>MOLECULE
2bz5_AB4_1_ligand
   45    48     1     0     0
SMALL
NO_CHARGES


@<TRIPOS>ATOM
      1 CL22       30.7790    5.1300   47.6290 Cl        1 AB41226     0.0000 
      2 C10        32.0620    6.0630   48.3490 C.ar      1 AB41226     0.0000 
      3 C19        32.8640    6.7680   47.4550 C.ar      1 AB41226     0.0000 
      4 C23        33.9220    7.5180   47.9410 C.ar      1 AB41226     0.0000 
      5 C20        34.2150    7.5640   49.3040 C.ar      1 AB41226     0.0000 
      6 CL24       35.5620    8.5580   49.8150 Cl        1 AB41226     0.0000 
      7 C7         33.4020    6.8580   50.1980 C.ar      1 AB41226     0.0000 
      8 C2         32.3100    6.1140   49.7320 C.ar      1 AB41226     0.0000 
      9 S1         31.3230    5.1880   50.9100 S.o2      1 AB41226     0.0000 
     10 O8         31.9200    5.4920   52.2090 O.2       1 AB41226     0.0000 
     11 O9         31.4600    3.7320   50.5550 O.2       1 AB41226     0.0000 
     12 N5         29.7300    5.6210   50.7910 N.pl3     1 AB41226     0.0000 
     13 C14        29.2480    6.7910   51.2040 C.ar      1 AB41226     0.0000 
     14 C12        29.2220    7.8510   50.2890 C.ar      1 AB41226     0.0000 
     15 C21        28.7640    6.9670   52.5150 C.ar      1 AB41226     0.0000 
     16 C18        28.2670    8.2300   52.9010 C.ar      1 AB41226     0.0000 
     17 C11        28.2580    9.3110   51.9760 C.ar      1 AB41226     0.0000 
     18 O25        27.7650   10.5350   52.3710 O.3       1 AB41226     0.0000 
     19 C3         28.7230    9.1260   50.6550 C.ar      1 AB41226     0.0000 
     20 C4         28.7470   10.1810   49.6850 C.ar      1 AB41226     0.0000 
     21 C6         29.9620   10.7290   49.1790 C.ar      1 AB41226     0.0000 
     22 C27        31.2260   10.2620   49.5750 C.ar      1 AB41226     0.0000 
     23 C29        32.4330   10.8150   49.1200 C.ar      1 AB41226     0.0000 
     24 C30        32.3990   11.8410   48.1580 C.ar      1 AB41226     0.0000 
     25 C28        31.1460   12.3460   47.7200 C.ar      1 AB41226     0.0000 
     26 C15        29.9440   11.7860   48.2280 C.ar      1 AB41226     0.0000 
     27 C17        28.7110   12.2600   47.7590 C.ar      1 AB41226     0.0000 
     28 C16        27.5090   11.7170   48.2540 C.ar      1 AB41226     0.0000 
     29 C13        27.5330   10.7090   49.2060 C.ar      1 AB41226     0.0000 
     30 O26        26.3400   10.2560   49.6440 O.3       1 AB41226     0.0000 
     31 H          32.6708    6.7300   46.4504 H         1 AB41226     0.0000 
     32 H          34.5124    8.0592   47.2800 H         1 AB41226     0.0000 
     33 H          33.6073    6.8851   51.2058 H         1 AB41226     0.0000 
     34 H          29.1878    4.8573   50.3567 H         1 AB41226     0.0000 
     35 H          29.5708    7.7084   49.3293 H         1 AB41226     0.0000 
     36 H          28.7721    6.1949   53.1754 H         1 AB41226     0.0000 
     37 H          27.9109    8.3741   53.8476 H         1 AB41226     0.0000 
     38 H          31.2698    9.4575   50.2462 H         1 AB41226     0.0000 
     39 H          33.3235   10.4787   49.4809 H         1 AB41226     0.0000 
     40 H          33.2608   12.2217   47.7759 H         1 AB41226     0.0000 
     41 H          31.1098   13.1056   47.0453 H         1 AB41226     0.0000 
     42 H          28.6805   13.0032   47.0544 H         1 AB41226     0.0000 
     43 H          26.6123   12.0774   47.9006 H         1 AB41226     0.0000 
     44 H          28.0330   10.6245   53.3303 H         1 AB41226     0.0000 
     45 H          25.6630   10.8546   49.2159 H         1 AB41226     0.0000 
@<TRIPOS>BOND
     1    2    1 1    
     2    3    2 ar   
     3    8    2 ar   
     4    4    3 ar   
     5   31    3 1    
     6    5    4 ar   
     7   32    4 1    
     8    6    5 1    
     9    7    5 ar   
    10    8    7 ar   
    11   33    7 1    
    12    9    8 1    
    13   10    9 2    
    14   11    9 2    
    15   12    9 1    
    16   13   12 1    
    17   34   12 1    
    18   14   13 ar   
    19   15   13 ar   
    20   19   14 ar   
    21   35   14 1    
    22   16   15 ar   
    23   36   15 1    
    24   17   16 ar   
    25   37   16 1    
    26   18   17 1    
    27   19   17 ar   
    28   44   18 1    
    29   20   19 1    
    30   21   20 ar   
    31   29   20 ar   
    32   22   21 ar   
    33   26   21 ar   
    34   23   22 ar   
    35   38   22 1    
    36   24   23 ar   
    37   39   23 1    
    38   25   24 ar   
    39   40   24 1    
    40   26   25 ar   
    41   41   25 1    
    42   27   26 ar   
    43   28   27 ar   
    44   42   27 1    
    45   29   28 ar   
    46   43   28 1    
    47   30   29 1    
    48   45   30 1    
@<TRIPOS>SUBSTRUCTURE
     1 AB41226     1 GROUP   
@<TRIPOS>SET

