#    Name: 3cja_ANP_1_INTS_M
#    Modification time : Mon Mar 24 21:42:29 2014

@<TRIPOS>MOLECULE
3cja_ANP_1_INTS_M
   60     0     9     0     0
SMALL
NO_CHARGES


@<TRIPOS>ATOM
      1 N          19.3890   35.7720   23.4335 N.am      2 SEC2        0.0000 
      2 N          19.1150   34.5280   23.0050 N.am      8 SEL2        0.0000 
      3 N          19.6630   37.0160   23.8620 N.am      5 SEP2        0.0000 
      4 N          18.6315   34.6760   21.7980 N.am      2 SEC2        0.0000 
      5 N          18.1480   34.8240   20.5910 N.am      5 SEP2        0.0000 
      6 N          17.4075   34.3525   22.8340 N.am      2 SEC2        0.0000 
      7 N          15.7000   34.1770   22.6630 N.am      5 SEP2        0.0000 
      8 N          19.6040   32.3545   25.8115 N.am      2 SEC2        0.0000 
      9 N          19.4280   32.5010   24.3920 N.am      8 SEL2        0.0000 
     10 N          19.7800   32.2080   27.2310 N.am      5 SEP2        0.0000 
     11 N          18.7955   31.3295   25.2945 N.am      2 SEC2        0.0000 
     12 N          18.1630   30.1580   26.1970 N.am      5 SEP2        0.0000 
     13 N          22.3610   37.0640   24.7060 N.am      2 SEC2        0.0000 
     14 N          22.9810   36.1750   23.7920 N.am      8 SEL2        0.0000 
     15 N          21.7410   37.9530   25.6200 N.am      5 SEP2        0.0000 
     16 N          23.7565   36.5185   24.9150 N.am      2 SEC2        0.0000 
     17 N          24.5320   36.8620   26.0380 N.am      5 SEP2        0.0000 
     18 N          23.6750   36.9030   22.8600 N.am      2 SEC2        0.0000 
     19 N          24.3690   37.6310   21.9280 N.am      5 SEP2        0.0000 
     20 N          23.1600   32.9505   24.8610 N.am      2 SEC2        0.0000 
     21 N          23.9740   33.8670   23.8010 N.am      8 SEL2        0.0000 
     22 N          22.3460   32.0340   25.9210 N.am      5 SEP2        0.0000 
     23 CA         24.2930   31.2755   24.7670 C.3       3 GLC5        0.0000 
     24 CA         25.8690   32.1870   25.2840 C.3       9 GLL5        0.0000 
     25 CA         22.7170   30.3640   24.2500 C.3       6 GLP5        0.0000 
     26 CA         27.9090   31.9710   24.3640 C.3       3 GLC5        0.0000 
     27 CA         29.9490   31.7550   23.4440 C.3       6 GLP5        0.0000 
     28 N          26.6700   33.0480   29.9795 N.am      2 SEC2        0.0000 
     29 N          25.8600   33.1790   28.7150 N.am      8 SEL2        0.0000 
     30 N          27.4800   32.9170   31.2440 N.am      5 SEP2        0.0000 
     31 O          25.3210   33.7485   29.9825 O.2       1 ALC1        0.0000 
     32 O          25.8600   33.1790   28.7150 O.2       7 ALL1        0.0000 
     33 O          24.7820   34.3180   31.2500 O.2       4 ALP1        0.0000 
     34 O          24.6935   34.0225   29.1395 O.2       1 ALC1        0.0000 
     35 O          23.5270   34.8660   29.5640 O.2       4 ALP1        0.0000 
     36 N          29.1550   35.2750   28.9995 N.am      2 SEC2        0.0000 
     37 N          27.6440   35.2380   28.4480 N.am      8 SEL2        0.0000 
     38 N          30.6660   35.3120   29.5510 N.am      5 SEP2        0.0000 
     39 N          29.0885   36.1155   28.2170 N.am      2 SEC2        0.0000 
     40 N          30.5330   36.9930   27.9860 N.am      5 SEP2        0.0000 
     41 CA         27.9260   31.9650   28.4635 C.3       3 GLC5        0.0000 
     42 CA         28.5000   33.4620   27.0920 C.3       9 GLL5        0.0000 
     43 CA         27.3520   30.4680   29.8350 C.3       6 GLP5        0.0000 
     44 CA         29.5015   32.2335   25.7855 C.3       3 GLC5        0.0000 
     45 CA         30.5030   31.0050   24.4790 C.3       6 GLP5        0.0000 
     46 CA         29.9305   33.9120   28.7655 C.3       3 GLC5        0.0000 
     47 CA         31.3610   34.3620   30.4390 C.3       6 GLP5        0.0000 
     48 CA         32.6665   31.3645   26.3195 C.3       3 GLC5        0.0000 
     49 CA         32.9150   32.9450   27.0800 C.3       9 GLL5        0.0000 
     50 CA         32.4180   29.7840   25.5590 C.3       6 GLP5        0.0000 
     51 CA         32.1380   33.6535   28.7595 C.3       3 GLC5        0.0000 
     52 CA         31.6440   31.7795   25.9450 C.3       3 GLC5        0.0000 
     53 CA         30.8700   33.7750   26.3310 C.3       9 GLL5        0.0000 
     54 CA         31.1155   34.0685   28.3850 C.3       3 GLC5        0.0000 
     55 CA         26.9237   30.4472   26.1470 C.3       3 GLC5        0.0000 
     56 CA         27.6650   28.6650   26.3220 C.3       6 GLP5        0.0000 
     57 CA         26.8317   31.6920   28.4260 C.3       3 GLC5        0.0000 
     58 CA         26.4960   32.2720   26.6600 C.3       9 GLL5        0.0000 
     59 CA         24.1849   32.7239   26.9785 C.3       3 GLC5        0.0000 
     60 CA         22.2150   32.5530   27.2840 C.3       6 GLP5        0.0000 
@<TRIPOS>BOND
@<TRIPOS>SUBSTRUCTURE
     1 ALC1       31 GROUP        1 X    ALC  0     ROOT ALC X 1
     2 SEC2        1 GROUP        1 X    SEC  0     **** SEC X 2
     3 GLC5       23 GROUP        1 X    GLC  0     **** GLC X 6
     4 ALP1       33 GROUP        1 Y    ALP  0     ROOT ALP Y 8
     5 SEP2        3 GROUP        1 Y    SEP  0     **** SEP Y 9
     6 GLP5       25 GROUP        1 Y    GLP  0     **** GLP Y 13
     7 ALL1       32 GROUP        1 Z    ALL  0     ROOT ALL Z 15
     8 SEL2        2 GROUP        1 Z    SEL  0     **** SEL Z 16
     9 GLL5       24 GROUP        1 Z    GLL  0     **** GLL Z 20
@<TRIPOS>SET

