#    Name: 3cja_ANP_1_ligand
#    Modification time : Mon Mar 24 21:42:29 2014

@<TRIPOS>MOLECULE
3cja_ANP_1_ligand
   43    45     1     0     0
SMALL
NO_CHARGES


@<TRIPOS>ATOM
      1 PG         19.9830   33.3370   23.2800 P.3       1 ANP501      0.0000 
      2 O1G        19.1150   34.5280   23.0050 O.co2     1 ANP501      0.0000 
      3 O2G        19.4280   32.5010   24.3920 O.co2     1 ANP501      0.0000 
      4 O3G        20.4970   32.5250   22.0930 O.co2     1 ANP501      0.0000 
      5 PB         22.7910   34.7800   23.2360 P.3       1 ANP501      0.0000 
      6 O1B        22.9810   36.1750   23.7920 O.co2     1 ANP501      0.0000 
      7 O2B        22.7240   34.6520   21.7380 O.co2     1 ANP501      0.0000 
      8 N3B        21.3760   34.0850   24.0120 N.4       1 ANP501      0.0000 
      9 PA         25.4670   33.7190   23.1860 P.3       1 ANP501      0.0000 
     10 O1A        25.9200   35.0390   22.7200 O.co2     1 ANP501      0.0000 
     11 O2A        25.4800   32.4610   22.3350 O.co2     1 ANP501      0.0000 
     12 O3A        23.9740   33.8670   23.8010 O.3       1 ANP501      0.0000 
     13 O5'        26.2500   33.3430   24.5260 O.3       1 ANP501      0.0000 
     14 C5'        25.8690   32.1870   25.2840 C.3       1 ANP501      0.0000 
     15 C4'        26.4960   32.2720   26.6600 C.3       1 ANP501      0.0000 
     16 O4'        27.9240   32.2750   26.5150 O.3       1 ANP501      0.0000 
     17 C3'        26.1270   33.5600   27.3740 C.3       1 ANP501      0.0000 
     18 O3'        25.8600   33.1790   28.7150 O.3       1 ANP501      0.0000 
     19 C2'        27.3690   34.4470   27.2820 C.3       1 ANP501      0.0000 
     20 O2'        27.6440   35.2380   28.4480 O.3       1 ANP501      0.0000 
     21 C1'        28.5000   33.4620   27.0920 C.3       1 ANP501      0.0000 
     22 N9         29.5540   34.0300   26.2070 N.pl3     1 ANP501      0.0000 
     23 C8         29.3920   34.8660   25.1510 C.2       1 ANP501      0.0000 
     24 N7         30.6050   35.1650   24.6110 N.2       1 ANP501      0.0000 
     25 C5         31.5280   34.4880   25.3200 C.ar      1 ANP501      0.0000 
     26 C6         32.9070   34.4100   25.2360 C.ar      1 ANP501      0.0000 
     27 N6         33.5640   35.0930   24.2620 N.pl3     1 ANP501      0.0000 
     28 N1         33.5690   33.6290   26.1230 N.ar      1 ANP501      0.0000 
     29 C2         32.9150   32.9450   27.0800 C.ar      1 ANP501      0.0000 
     30 N3         31.5760   33.0100   27.1980 N.ar      1 ANP501      0.0000 
     31 C4         30.8700   33.7750   26.3310 C.ar      1 ANP501      0.0000 
     32 H          26.2120   31.2643   24.8078 H         1 ANP501      0.0000 
     33 H          24.7839   32.1267   25.4052 H         1 ANP501      0.0000 
     34 H          26.1769   31.4424   27.2521 H         1 ANP501      0.0000 
     35 H          25.3249   34.0042   26.8852 H         1 ANP501      0.0000 
     36 H          27.3025   35.0305   26.3864 H         1 ANP501      0.0000 
     37 H          28.9161   33.2422   28.0622 H         1 ANP501      0.0000 
     38 H          28.5407   35.2016   24.8274 H         1 ANP501      0.0000 
     39 H          32.9912   35.5909   23.6108 H         1 ANP501      0.0000 
     40 H          34.5622   35.0374   24.2824 H         1 ANP501      0.0000 
     41 H          33.4628   32.3462   27.7507 H         1 ANP501      0.0000 
     42 H          25.0933   33.7545   28.9997 H         1 ANP501      0.0000 
     43 H          27.4937   34.6210   29.2205 H         1 ANP501      0.0000 
@<TRIPOS>BOND
     1    2    1 ar   
     2    3    1 ar   
     3    4    1 ar   
     4    8    1 1    
     5    6    5 ar   
     6    7    5 ar   
     7    8    5 1    
     8   12    5 1    
     9   10    9 ar   
    10   11    9 ar   
    11   12    9 1    
    12   13    9 1    
    13   14   13 1    
    14   15   14 1    
    15   32   14 1    
    16   33   14 1    
    17   16   15 1    
    18   17   15 1    
    19   34   15 1    
    20   21   16 1    
    21   18   17 1    
    22   19   17 1    
    23   35   17 1    
    24   42   18 1    
    25   20   19 1    
    26   21   19 1    
    27   36   19 1    
    28   43   20 1    
    29   22   21 1    
    30   37   21 1    
    31   23   22 1    
    32   31   22 1    
    33   24   23 2    
    34   38   23 1    
    35   25   24 1    
    36   26   25 ar   
    37   31   25 ar   
    38   27   26 1    
    39   28   26 ar   
    40   39   27 1    
    41   40   27 1    
    42   29   28 ar   
    43   30   29 ar   
    44   41   29 1    
    45   31   30 ar   
@<TRIPOS>SUBSTRUCTURE
     1 ANP501      1 GROUP   
@<TRIPOS>SET

