#    Name: 2yg6_FAD_2_INTS_M
#    Modification time : Tue Mar 25 09:18:13 2014

@<TRIPOS>MOLECULE
2yg6_FAD_2_INTS_M
  146     0    12     0     0
SMALL
NO_CHARGES


@<TRIPOS>ATOM
      1 NZ         76.0635    7.2155  -32.3310 N.4       3 LYC4        0.0000 
      2 NZ         76.8660    6.1880  -33.3300 N.4      11 LYL4        0.0000 
      3 NZ         74.6430    8.6970  -32.4090 N.4       7 LYP4        0.0000 
      4 N          75.9095    7.2080  -33.4735 N.am      2 SEC2        0.0000 
      5 N          76.8660    6.1880  -33.3300 N.am     10 SEL2        0.0000 
      6 N          74.9530    8.2280  -33.6170 N.am      6 SEP2        0.0000 
      7 N          76.0635    7.2155  -32.3310 N.am      2 SEC2        0.0000 
      8 N          75.2610    8.2430  -31.3320 N.am      6 SEP2        0.0000 
      9 N          78.3325    7.4805  -35.5915 N.am      2 SEC2        0.0000 
     10 N          78.7350    7.5530  -34.2160 N.am     10 SEL2        0.0000 
     11 N          77.9300    7.4080  -36.9670 N.am      6 SEP2        0.0000 
     12 CA         78.0960    3.7890  -30.4595 C.3       4 GLC5        0.0000 
     13 CA         78.7830    4.2360  -32.3060 C.3      12 GLL5        0.0000 
     14 CA         77.4090    3.3420  -28.6130 C.3       8 GLP5        0.0000 
     15 CA         76.9475    4.1875  -31.4220 C.3       4 GLC5        0.0000 
     16 CA         75.1120    4.1390  -30.5380 C.3       8 GLP5        0.0000 
     17 CA         80.8865    2.1855  -31.9690 C.3       4 GLC5        0.0000 
     18 CA         79.5170    3.1340  -33.0250 C.3      12 GLL5        0.0000 
     19 CA         82.2560    1.2370  -30.9130 C.3       8 GLP5        0.0000 
     20 CA         79.2310    4.1850  -35.6360 C.3       4 GLC5        0.0000 
     21 CA         79.0020    2.8590  -34.4070 C.3      12 GLL5        0.0000 
     22 CA         79.4600    5.5110  -36.8650 C.3       8 GLP5        0.0000 
     23 N          80.7470    2.7855  -36.4435 N.am      2 SEC2        0.0000 
     24 N          80.2120    2.7980  -35.1480 N.am     10 SEL2        0.0000 
     25 N          81.2820    2.7730  -37.7390 N.am      6 SEP2        0.0000 
     26 O          81.0890    1.8985  -34.9925 O.2       1 ALC1        0.0000 
     27 O          80.2120    2.7980  -35.1480 O.2       9 ALL1        0.0000 
     28 O          81.9660    0.9990  -34.8370 O.2       5 ALP1        0.0000 
     29 O          80.5395    1.2130  -35.6555 O.2       1 ALC1        0.0000 
     30 O          80.8670   -0.3720  -36.1630 O.2       5 ALP1        0.0000 
     31 CA         76.8875    0.3760  -35.1230 C.3       4 GLC5        0.0000 
     32 CA         78.3590    1.4680  -34.3120 C.3      12 GLL5        0.0000 
     33 CA         75.4160   -0.7160  -35.9340 C.3       8 GLP5        0.0000 
     34 N          77.9045    1.4440  -36.2875 N.am      2 SEC2        0.0000 
     35 N          78.7610    0.6730  -35.4010 N.am     10 SEL2        0.0000 
     36 N          77.0480    2.2150  -37.1740 N.am      6 SEP2        0.0000 
     37 O          80.3635    0.8360  -35.1190 O.2       1 ALC1        0.0000 
     38 O          78.7610    0.6730  -35.4010 O.2       9 ALL1        0.0000 
     39 O          79.8140    0.1505  -35.7820 O.2       1 ALC1        0.0000 
     40 CA         80.6525    1.0410  -32.0175 C.3       4 GLC5        0.0000 
     41 CA         79.0490    0.8450  -33.1220 C.3      12 GLL5        0.0000 
     42 CA         78.6865    0.8790  -30.9550 C.3       4 GLC5        0.0000 
     43 CA         78.3240    0.9130  -28.7880 C.3       8 GLP5        0.0000 
     44 CA         79.3805   -4.6710  -29.6170 C.3       4 GLC5        0.0000 
     45 CA         78.1880   -3.3450  -30.7370 C.3      12 GLL5        0.0000 
     46 CA         80.5730   -5.9970  -28.4970 C.3       8 GLP5        0.0000 
     47 O          77.5835   -5.6135  -29.5325 O.2       1 ALC1        0.0000 
     48 O          77.3510   -4.1090  -30.0160 O.2       9 ALL1        0.0000 
     49 O          77.8160   -7.1180  -29.0490 O.2       5 ALP1        0.0000 
     50 N          79.7200   -5.2750  -30.8810 N.am      2 SEC2        0.0000 
     51 N          79.4170   -3.8500  -30.9950 N.am     10 SEL2        0.0000 
     52 N          80.0230   -6.7000  -30.7670 N.am      6 SEP2        0.0000 
     53 CA         80.5015   -2.6000  -29.9080 C.3       4 GLC5        0.0000 
     54 CA         80.3360   -3.1400  -31.7080 C.3      12 GLL5        0.0000 
     55 CA         80.6670   -2.0600  -28.1080 C.3       8 GLP5        0.0000 
     56 CA         81.8585   -2.7110  -32.8555 C.3       4 GLC5        0.0000 
     57 CA         83.3810   -2.2820  -34.0030 C.3       8 GLP5        0.0000 
     58 CA         79.6270   -3.4040  -33.4095 C.3       4 GLC5        0.0000 
     59 CA         78.9180   -3.6680  -35.1110 C.3       8 GLP5        0.0000 
     60 CA         80.0835   -5.0455  -32.4540 C.3       4 GLC5        0.0000 
     61 CA         79.8310   -6.9510  -33.2000 C.3       8 GLP5        0.0000 
     62 CA         81.1895   -4.3260  -30.2260 C.3       4 GLC5        0.0000 
     63 CA         82.0430   -5.5120  -28.7440 C.3       8 GLP5        0.0000 
     64 N          80.6760   -2.4785  -33.5385 N.am      2 SEC2        0.0000 
     65 N          80.0660   -1.9050  -32.2140 N.am     10 SEL2        0.0000 
     66 N          81.2860   -3.0520  -34.8630 N.am      6 SEP2        0.0000 
     67 CA         80.5545   -0.0640  -31.4400 C.3       4 GLC5        0.0000 
     68 CA         78.8530   -1.3650  -31.9670 C.3      12 GLL5        0.0000 
     69 N          78.4035   16.6955  -34.1065 N.am      2 SEC2        0.0000 
     70 N          78.0290   17.5870  -35.1330 N.am     10 SEL2        0.0000 
     71 N          78.7780   15.8040  -33.0800 N.am      6 SEP2        0.0000 
     72 O          78.0605   19.0995  -37.3255 O.2       1 ALC1        0.0000 
     73 O          76.9790   17.9760  -37.1030 O.2       9 ALL1        0.0000 
     74 O          79.1420   20.2230  -37.5480 O.2       5 ALP1        0.0000 
     75 N          77.1645   17.2115  -39.7295 N.am      2 SEC2        0.0000 
     76 N          76.1180   18.0650  -39.1930 N.am     10 SEL2        0.0000 
     77 N          78.2110   16.3580  -40.2660 N.am      6 SEP2        0.0000 
     78 N          77.3055   18.6280  -39.6925 N.am      2 SEC2        0.0000 
     79 N          78.4930   19.1910  -40.1920 N.am      6 SEP2        0.0000 
     80 CA         72.8715   14.1535  -41.9920 C.3       4 GLC5        0.0000 
     81 CA         73.2630   13.9840  -39.7840 C.3      12 GLL5        0.0000 
     82 CA         72.4800   14.3230  -44.2000 C.3       8 GLP5        0.0000 
     83 CA         72.2660   13.1845  -42.4905 C.3       4 GLC5        0.0000 
     84 CA         72.0520   12.0460  -40.7810 C.3      12 GLL5        0.0000 
     85 CA         71.8010   10.3055  -41.0835 C.3       4 GLC5        0.0000 
     86 CA         71.5500    8.5650  -41.3860 C.3       8 GLP5        0.0000 
     87 CA         70.6475   11.1305  -39.4545 C.3       4 GLC5        0.0000 
     88 CA         69.2430   10.2150  -38.1280 C.3       8 GLP5        0.0000 
     89 CA         71.3990   13.3315  -39.1565 C.3       4 GLC5        0.0000 
     90 CA         70.7460   14.6170  -37.5320 C.3       8 GLP5        0.0000 
     91 CA         74.5595   11.7510  -40.0905 C.3       4 GLC5        0.0000 
     92 CA         73.2540   11.8660  -38.5090 C.3      12 GLL5        0.0000 
     93 CA         75.8650   11.6360  -41.6720 C.3       8 GLP5        0.0000 
     94 CA         73.9560    9.2275  -37.1900 C.3       4 GLC5        0.0000 
     95 CA         72.9560   10.3930  -38.3020 C.3      12 GLL5        0.0000 
     96 CA         74.9560    8.0620  -36.0780 C.3       8 GLP5        0.0000 
     97 CA         72.2530    9.4790  -39.8440 C.3       4 GLC5        0.0000 
     98 CA         75.0405   10.7200  -37.0295 C.3       4 GLC5        0.0000 
     99 CA         73.9960   12.4800  -37.5280 C.3      12 GLL5        0.0000 
    100 CA         76.0850    8.9600  -36.5310 C.3       8 GLP5        0.0000 
    101 CA         72.5810   13.9185  -36.3550 C.3       4 GLC5        0.0000 
    102 CA         74.3020   13.8400  -37.5970 C.3      12 GLL5        0.0000 
    103 CA         70.8600   13.9970  -35.1130 C.3       8 GLP5        0.0000 
    104 CA         73.0475   13.8520  -35.1780 C.3       4 GLC5        0.0000 
    105 CA         75.2350   13.7070  -35.2430 C.3      12 GLL5        0.0000 
    106 CA         76.9065   13.7105  -37.2350 C.3       4 GLC5        0.0000 
    107 CA         76.6240   13.0830  -35.1040 C.3      12 GLL5        0.0000 
    108 CA         77.1890   14.3380  -39.3660 C.3       8 GLP5        0.0000 
    109 CA         78.3330   13.8860  -35.3175 C.3       4 GLC5        0.0000 
    110 CA         80.0420   14.6890  -35.5310 C.3       8 GLP5        0.0000 
    111 N          76.2025   12.4965  -31.4005 N.am      2 SEC2        0.0000 
    112 N          76.2700   12.8380  -32.7810 N.am     10 SEL2        0.0000 
    113 N          76.1350   12.1550  -30.0200 N.am      6 SEP2        0.0000 
    114 O          75.4045   13.8260  -32.4930 O.2       1 ALC1        0.0000 
    115 O          76.2700   12.8380  -32.7810 O.2       9 ALL1        0.0000 
    116 O          74.5390   14.8140  -32.2050 O.2       5 ALP1        0.0000 
    117 CA         79.0030   13.1175  -34.5505 C.3       4 GLC5        0.0000 
    118 CA         77.9640   11.5460  -33.5700 C.3      12 GLL5        0.0000 
    119 CA         76.0375    9.4945  -33.7655 C.3       4 GLC5        0.0000 
    120 CA         77.7670   10.3220  -32.6820 C.3      12 GLL5        0.0000 
    121 CA         74.3080    8.6670  -34.8490 C.3       8 GLP5        0.0000 
    122 N          81.8895    8.5660  -31.0120 N.am      2 SEC2        0.0000 
    123 N          80.5810    8.1660  -31.3750 N.am     10 SEL2        0.0000 
    124 N          83.1980    8.9660  -30.6490 N.am      6 SEP2        0.0000 
    125 N          78.2665   10.0850  -28.9115 N.am      2 SEC2        0.0000 
    126 N          78.7620    9.1940  -29.9310 N.am     10 SEL2        0.0000 
    127 N          77.7710   10.9760  -27.8920 N.am      6 SEP2        0.0000 
    128 N          76.7060    7.8610  -31.5255 N.am      2 SEC2        0.0000 
    129 N          78.1510    7.4790  -31.7190 N.am     10 SEL2        0.0000 
    130 CA         80.8225    4.9635  -33.2108 C.3       4 GLC5        0.0000 
    131 CA         82.4950    6.2420  -33.7560 C.3       8 GLP5        0.0000 
    132 CA         78.3495   -0.4017  -30.1947 C.3       4 GLC5        0.0000 
    133 CA         79.5574   -2.0479  -29.7924 C.3       4 GLC5        0.0000 
    134 CA         77.8970   -2.0680  -31.2360 C.3      12 GLL5        0.0000 
    135 CA         78.6829   -2.8519  -33.2939 C.3       4 GLC5        0.0000 
    136 CA         75.3965   14.3200  -39.3110 C.3       4 GLC5        0.0000 
    137 CA         74.2142   12.1561  -40.9605 C.3       4 GLC5        0.0000 
    138 CA         71.1740   10.6723  -38.2668 C.3       4 GLC5        0.0000 
    139 CA         75.6690   13.7490  -38.4642 C.3       4 GLC5        0.0000 
    140 CA         72.0387   12.1554  -36.6769 C.3       4 GLC5        0.0000 
    141 CA         70.5270   12.5060  -35.3870 C.3       8 GLP5        0.0000 
    142 CA         76.6895   10.5169  -35.2859 C.3       4 GLC5        0.0000 
    143 CA         77.5367   11.8870  -31.2465 C.3       4 GLC5        0.0000 
    144 CA         77.2080   12.8400  -29.3670 C.3       8 GLP5        0.0000 
    145 CA         79.3432   11.5025  -31.6900 C.3       4 GLC5        0.0000 
    146 CA         80.8210   12.0710  -30.2540 C.3       8 GLP5        0.0000 
@<TRIPOS>BOND
@<TRIPOS>SUBSTRUCTURE
     1 ALC1       26 GROUP        1 X    ALC  0     ROOT ALC X 1
     2 SEC2        4 GROUP        1 X    SEC  0     **** SEC X 2
     3 LYC4        1 GROUP        1 X    LYC  0     **** LYC X 4
     4 GLC5       12 GROUP        1 X    GLC  0     **** GLC X 6
     5 ALP1       28 GROUP        1 Y    ALP  0     ROOT ALP Y 8
     6 SEP2        6 GROUP        1 Y    SEP  0     **** SEP Y 9
     7 LYP4        3 GROUP        1 Y    LYP  0     **** LYP Y 11
     8 GLP5       14 GROUP        1 Y    GLP  0     **** GLP Y 13
     9 ALL1       27 GROUP        1 Z    ALL  0     ROOT ALL Z 15
    10 SEL2        5 GROUP        1 Z    SEL  0     **** SEL Z 16
    11 LYL4        2 GROUP        1 Z    LYL  0     **** LYL Z 18
    12 GLL5       13 GROUP        1 Z    GLL  0     **** GLL Z 20
@<TRIPOS>SET

