#    Name: 2yg6_FAD_2_ligand
#    Modification time : Tue Mar 25 09:18:13 2014

@<TRIPOS>MOLECULE
2yg6_FAD_2_ligand
   84    89     1     0     0
SMALL
NO_CHARGES


@<TRIPOS>ATOM
      1 PA         78.2370    6.6780  -33.1140 P.3       1 FAD600      0.0000 
      2 O1A        76.8660    6.1880  -33.3300 O.co2     1 FAD600      0.0000 
      3 O2A        78.7350    7.5530  -34.2160 O.co2     1 FAD600      0.0000 
      4 O5B        79.2200    5.4330  -32.8960 O.3       1 FAD600      0.0000 
      5 C5B        78.7830    4.2360  -32.3060 C.3       1 FAD600      0.0000 
      6 C4B        79.5170    3.1340  -33.0250 C.3       1 FAD600      0.0000 
      7 O4B        79.3390    1.9140  -32.3040 O.3       1 FAD600      0.0000 
      8 C3B        79.0020    2.8590  -34.4070 C.3       1 FAD600      0.0000 
      9 O3B        80.2120    2.7980  -35.1480 O.3       1 FAD600      0.0000 
     10 C2B        78.3590    1.4680  -34.3120 C.3       1 FAD600      0.0000 
     11 O2B        78.7610    0.6730  -35.4010 O.3       1 FAD600      0.0000 
     12 C1B        79.0490    0.8450  -33.1220 C.3       1 FAD600      0.0000 
     13 N9A        78.3260   -0.1520  -32.3490 N.pl3     1 FAD600      0.0000 
     14 C8A        77.0500   -0.1220  -31.8320 C.2       1 FAD600      0.0000 
     15 N7A        76.8030   -1.2830  -31.1650 N.2       1 FAD600      0.0000 
     16 C5A        77.8970   -2.0680  -31.2360 C.ar      1 FAD600      0.0000 
     17 C6A        78.1880   -3.3450  -30.7370 C.ar      1 FAD600      0.0000 
     18 N6A        77.3510   -4.1090  -30.0160 N.pl3     1 FAD600      0.0000 
     19 N1A        79.4170   -3.8500  -30.9950 N.ar      1 FAD600      0.0000 
     20 C2A        80.3360   -3.1400  -31.7080 C.ar      1 FAD600      0.0000 
     21 N3A        80.0660   -1.9050  -32.2140 N.ar      1 FAD600      0.0000 
     22 C4A        78.8530   -1.3650  -31.9670 C.ar      1 FAD600      0.0000 
     23 N1         76.3590   16.1990  -35.7460 N.2       1 FAD600      0.0000 
     24 C2         77.1980   17.2540  -35.9830 C.2       1 FAD600      0.0000 
     25 O2         78.0290   17.5870  -35.1330 O.2       1 FAD600      0.0000 
     26 N3         76.9790   17.9760  -37.1030 N.am      1 FAD600      0.0000 
     27 C4         76.0900   17.5200  -38.0850 C.2       1 FAD600      0.0000 
     28 O4         76.1180   18.0650  -39.1930 O.2       1 FAD600      0.0000 
     29 C4X        75.1770   16.4880  -37.8170 C.2       1 FAD600      0.0000 
     30 N5         74.3060   15.9810  -38.7880 N.2       1 FAD600      0.0000 
     31 C5X        73.9450   14.6200  -38.7280 C.ar      1 FAD600      0.0000 
     32 C6         73.2630   13.9840  -39.7840 C.ar      1 FAD600      0.0000 
     33 C7         72.8870   12.6290  -39.6500 C.ar      1 FAD600      0.0000 
     34 C7M        72.0520   12.0460  -40.7810 C.3       1 FAD600      0.0000 
     35 C8         73.2540   11.8660  -38.5090 C.ar      1 FAD600      0.0000 
     36 C8M        72.9560   10.3930  -38.3020 C.3       1 FAD600      0.0000 
     37 C9         73.9960   12.4800  -37.5280 C.ar      1 FAD600      0.0000 
     38 C9A        74.3020   13.8400  -37.5970 C.ar      1 FAD600      0.0000 
     39 N10        75.0280   14.4160  -36.5610 N.pl3     1 FAD600      0.0000 
     40 C10        75.5130   15.7060  -36.7180 C.2       1 FAD600      0.0000 
     41 C1'        75.2350   13.7070  -35.2430 C.3       1 FAD600      0.0000 
     42 C2'        76.6240   13.0830  -35.1040 C.3       1 FAD600      0.0000 
     43 O2'        76.9780   12.3930  -36.2930 O.3       1 FAD600      0.0000 
     44 C3'        76.6240   12.1200  -33.9190 C.3       1 FAD600      0.0000 
     45 O3'        76.2700   12.8380  -32.7810 O.3       1 FAD600      0.0000 
     46 C4'        77.9640   11.5460  -33.5700 C.3       1 FAD600      0.0000 
     47 O4'        78.6300   11.1800  -34.7660 O.3       1 FAD600      0.0000 
     48 C5'        77.7670   10.3220  -32.6820 C.3       1 FAD600      0.0000 
     49 O5'        79.0210    9.7490  -32.4230 O.3       1 FAD600      0.0000 
     50 P          79.1720    8.6330  -31.3180 P.3       1 FAD600      0.0000 
     51 O1P        80.5810    8.1660  -31.3750 O.co2     1 FAD600      0.0000 
     52 O2P        78.7620    9.1940  -29.9310 O.co2     1 FAD600      0.0000 
     53 O3P        78.1510    7.4790  -31.7190 O.3       1 FAD600      0.0000 
     54 H          77.7174    4.0751  -32.4348 H         1 FAD600      0.0000 
     55 H          79.0321    4.1786  -31.2512 H         1 FAD600      0.0000 
     56 H          80.5645    3.3746  -33.0837 H         1 FAD600      0.0000 
     57 H          78.3442    3.5678  -34.6963 H         1 FAD600      0.0000 
     58 H          77.3576    1.5363  -34.1468 H         1 FAD600      0.0000 
     59 H          79.9980    0.4179  -33.4894 H         1 FAD600      0.0000 
     60 H          76.4328    0.6128  -31.9319 H         1 FAD600      0.0000 
     61 H          76.4482   -3.7201  -29.8322 H         1 FAD600      0.0000 
     62 H          77.7054   -4.9985  -29.7274 H         1 FAD600      0.0000 
     63 H          81.2870   -3.5611  -31.8730 H         1 FAD600      0.0000 
     64 H          77.4635   18.8809  -37.2588 H         1 FAD600      0.0000 
     65 H          73.0426   14.4944  -40.6359 H         1 FAD600      0.0000 
     66 H          74.3394   11.9296  -36.7169 H         1 FAD600      0.0000 
     67 H          74.4791   12.9142  -35.1312 H         1 FAD600      0.0000 
     68 H          75.0836   14.4189  -34.4167 H         1 FAD600      0.0000 
     69 H          77.3230   13.8787  -34.8826 H         1 FAD600      0.0000 
     70 H          75.9335   11.3254  -34.1011 H         1 FAD600      0.0000 
     71 H          78.5194   12.2796  -33.0139 H         1 FAD600      0.0000 
     72 H          77.0946    9.6369  -33.2093 H         1 FAD600      0.0000 
     73 H          77.2623   10.6550  -31.7688 H         1 FAD600      0.0000 
     74 H          72.5329   12.0869  -41.6568 H         1 FAD600      0.0000 
     75 H          71.8228   11.0865  -40.6170 H         1 FAD600      0.0000 
     76 H          71.1891   12.5378  -40.8972 H         1 FAD600      0.0000 
     77 H          73.3666    9.8270  -39.0168 H         1 FAD600      0.0000 
     78 H          73.3092   10.0620  -37.4270 H         1 FAD600      0.0000 
     79 H          71.9733   10.2082  -38.3101 H         1 FAD600      0.0000 
     80 H          80.6931    1.9968  -34.7922 H         1 FAD600      0.0000 
     81 H          79.7364    0.5081  -35.2547 H         1 FAD600      0.0000 
     82 H          77.6744   11.7329  -36.0114 H         1 FAD600      0.0000 
     83 H          75.5617   13.4743  -33.0865 H         1 FAD600      0.0000 
     84 H          79.2619   10.4527  -34.4981 H         1 FAD600      0.0000 
@<TRIPOS>BOND
     1    2    1 ar   
     2    3    1 ar   
     3    4    1 1    
     4   53    1 1    
     5    5    4 1    
     6    6    5 1    
     7   54    5 1    
     8   55    5 1    
     9    7    6 1    
    10    8    6 1    
    11   56    6 1    
    12   12    7 1    
    13    9    8 1    
    14   10    8 1    
    15   57    8 1    
    16   80    9 1    
    17   11   10 1    
    18   12   10 1    
    19   58   10 1    
    20   81   11 1    
    21   13   12 1    
    22   59   12 1    
    23   14   13 1    
    24   22   13 1    
    25   15   14 2    
    26   60   14 1    
    27   16   15 1    
    28   17   16 ar   
    29   22   16 ar   
    30   18   17 1    
    31   19   17 ar   
    32   61   18 1    
    33   62   18 1    
    34   20   19 ar   
    35   21   20 ar   
    36   63   20 1    
    37   22   21 ar   
    38   24   23 1    
    39   40   23 2    
    40   25   24 2    
    41   26   24 am   
    42   27   26 am   
    43   64   26 1    
    44   28   27 2    
    45   29   27 1    
    46   30   29 2    
    47   40   29 1    
    48   31   30 1    
    49   32   31 ar   
    50   38   31 ar   
    51   33   32 ar   
    52   65   32 1    
    53   34   33 1    
    54   35   33 ar   
    55   74   34 1    
    56   75   34 1    
    57   76   34 1    
    58   36   35 1    
    59   37   35 ar   
    60   77   36 1    
    61   78   36 1    
    62   79   36 1    
    63   38   37 ar   
    64   66   37 1    
    65   39   38 1    
    66   40   39 1    
    67   41   39 1    
    68   42   41 1    
    69   67   41 1    
    70   68   41 1    
    71   43   42 1    
    72   44   42 1    
    73   69   42 1    
    74   82   43 1    
    75   45   44 1    
    76   46   44 1    
    77   70   44 1    
    78   83   45 1    
    79   47   46 1    
    80   48   46 1    
    81   71   46 1    
    82   84   47 1    
    83   49   48 1    
    84   72   48 1    
    85   73   48 1    
    86   50   49 1    
    87   51   50 ar   
    88   52   50 ar   
    89   53   50 1    
@<TRIPOS>SUBSTRUCTURE
     1 FAD600      1 GROUP   
@<TRIPOS>SET

