#    Name: 4hut_ATP_2_INTS_M
#    Modification time : Tue Mar 25 01:47:32 2014

@<TRIPOS>MOLECULE
4hut_ATP_2_INTS_M
   53     0    15     0     0
SMALL
NO_CHARGES


@<TRIPOS>ATOM
      1 NZ        -22.0395   -2.9145   33.6880 N.4       3 LYC4        0.0000 
      2 NZ        -22.6160   -4.2540   33.7470 N.4      13 LYL4        0.0000 
      3 NZ        -20.1530   -1.6200   33.4070 N.4       8 LYP4        0.0000 
      4 N         -21.0715   -3.5280   33.5215 N.am      2 SEC2        0.0000 
      5 N         -22.6160   -4.2540   33.7470 N.am     12 SEL2        0.0000 
      6 N         -19.5270   -2.8020   33.2960 N.am      7 SEP2        0.0000 
      7 N         -22.0395   -2.9145   33.6880 N.am      2 SEC2        0.0000 
      8 N         -21.4630   -1.5750   33.6290 N.am      7 SEP2        0.0000 
      9 N         -23.2475   -4.3820   30.6870 N.am      2 SEC2        0.0000 
     10 N         -22.4650   -5.4440   31.4520 N.am     12 SEL2        0.0000 
     11 N         -24.0300   -3.3200   29.9220 N.am      7 SEP2        0.0000 
     12 N         -22.0635   -5.0630   30.2765 N.am      2 SEC2        0.0000 
     13 N         -21.6620   -4.6820   29.1010 N.am      7 SEP2        0.0000 
     14 NZ        -20.0495   -4.0885   33.1695 N.4       3 LYC4        0.0000 
     15 NZ        -20.5720   -5.3750   33.0430 N.4      13 LYL4        0.0000 
     16 NZ        -19.4140   -5.5845   32.3610 N.4       3 LYC4        0.0000 
     17 NZ        -18.2560   -5.7940   31.6790 N.4       8 LYP4        0.0000 
     18 N         -20.0495   -4.0885   33.1695 N.am      2 SEC2        0.0000 
     19 N         -20.5720   -5.3750   33.0430 N.am     12 SEL2        0.0000 
     20 N         -19.4140   -5.5845   32.3610 N.am      2 SEC2        0.0000 
     21 N         -18.2560   -5.7940   31.6790 N.am      7 SEP2        0.0000 
     22 NZ        -25.1385   -9.3895   32.8945 N.4       3 LYC4        0.0000 
     23 NZ        -24.2610   -8.3720   32.4230 N.4      13 LYL4        0.0000 
     24 NZ        -26.0160  -10.4070   33.3660 N.4       8 LYP4        0.0000 
     25 N         -23.4220   -8.4185   31.3020 N.am      2 SEC2        0.0000 
     26 N         -24.2610   -8.3720   32.4230 N.am     12 SEL2        0.0000 
     27 N         -22.5830   -8.4650   30.1810 N.am      7 SEP2        0.0000 
     28 N         -24.6840   -7.8925   31.1480 N.am      2 SEC2        0.0000 
     29 N         -25.1070   -7.4130   29.8730 N.am      7 SEP2        0.0000 
     30 N         -25.1385   -9.3895   32.8945 N.am      2 SEC2        0.0000 
     31 N         -26.0160  -10.4070   33.3660 N.am      7 SEP2        0.0000 
     32 Zn        -25.7255   -5.6465   34.2195 Zn        4 ZIC7        0.0000 
     33 Zn        -25.1830   -6.1160   33.4490 Zn       14 ZIL7        0.0000 
     34 Zn        -26.2680   -5.1770   34.9900 Zn        9 ZIP7        0.0000 
     35 N         -25.6390   -5.4785   32.2485 N.am      2 SEC2        0.0000 
     36 N         -25.1830   -6.1160   33.4490 N.am     12 SEL2        0.0000 
     37 N         -26.0950   -4.8410   31.0480 N.am      7 SEP2        0.0000 
     38 Zn        -26.1800   -6.0045   35.5270 Zn        4 ZIC7        0.0000 
     39 Zn        -26.0920   -6.8320   36.0640 Zn       14 ZIL7        0.0000 
     40 O         -19.1395   -4.4150   37.1955 O.2       1 ALC1        0.0000 
     41 O         -19.5680   -5.5770   37.8280 O.2      11 ALL1        0.0000 
     42 O         -18.7110   -3.2530   36.5630 O.2       6 ALP1        0.0000 
     43 O         -22.5255  -14.0550   35.1360 O.2       1 ALC1        0.0000 
     44 O         -21.2100  -14.2020   35.8530 O.2      11 ALL1        0.0000 
     45 O         -23.8410  -13.9080   34.4190 O.2       6 ALP1        0.0000 
     46 CA        -18.1680  -12.8510   36.4640 C.3       5 GLC5        0.0000 
     47 CA        -18.8940  -12.3580   38.1150 C.3      15 GLL5        0.0000 
     48 CA        -17.4420  -13.3440   34.8130 C.3      10 GLP5        0.0000 
     49 CA        -17.2145  -12.6745   38.4585 C.3       5 GLC5        0.0000 
     50 CA        -15.5350  -12.9910   38.8020 C.3      10 GLP5        0.0000 
     51 CA        -19.3275  -11.9679   35.4903 C.3       5 GLC5        0.0000 
     52 CA        -20.9340  -11.7750   36.2420 C.3      15 GLL5        0.0000 
     53 CA        -18.1910  -12.3340   34.3020 C.3      10 GLP5        0.0000 
@<TRIPOS>BOND
@<TRIPOS>SUBSTRUCTURE
     1 ALC1       40 GROUP        1 X    ALC  0     ROOT ALC X 1
     2 SEC2        4 GROUP        1 X    SEC  0     **** SEC X 2
     3 LYC4        1 GROUP        1 X    LYC  0     **** LYC X 4
     4 ZIC7       32 GROUP        1 X    ZIC  0     **** ZIC X 5
     5 GLC5       46 GROUP        1 X    GLC  0     **** GLC X 6
     6 ALP1       42 GROUP        1 Y    ALP  0     ROOT ALP Y 8
     7 SEP2        6 GROUP        1 Y    SEP  0     **** SEP Y 9
     8 LYP4        3 GROUP        1 Y    LYP  0     **** LYP Y 11
     9 ZIP7       34 GROUP        1 Y    ZIP  0     **** ZIP Y 12
    10 GLP5       48 GROUP        1 Y    GLP  0     **** GLP Y 13
    11 ALL1       41 GROUP        1 Z    ALL  0     ROOT ALL Z 15
    12 SEL2        5 GROUP        1 Z    SEL  0     **** SEL Z 16
    13 LYL4        2 GROUP        1 Z    LYL  0     **** LYL Z 18
    14 ZIL7       33 GROUP        1 Z    ZIL  0     **** ZIL Z 19
    15 GLL5       47 GROUP        1 Z    GLL  0     **** GLL Z 20
@<TRIPOS>SET

