#    Name: 4hut_ATP_2_ligand
#    Modification time : Tue Mar 25 01:47:32 2014

@<TRIPOS>MOLECULE
4hut_ATP_2_ligand
   43    45     1     0     0
SMALL
NO_CHARGES


@<TRIPOS>ATOM
      1 PG        -22.0930   -5.3350   32.8950 P.3       1 ATP202      0.0000 
      2 O1G       -22.6160   -4.2540   33.7470 O.co2     1 ATP202      0.0000 
      3 O2G       -22.4650   -5.4440   31.4520 O.co2     1 ATP202      0.0000 
      4 O3G       -20.5720   -5.3750   33.0430 O.co2     1 ATP202      0.0000 
      5 PB        -24.1560   -7.2590   33.4560 P.3       1 ATP202      0.0000 
      6 O1B       -24.2610   -8.3720   32.4230 O.co2     1 ATP202      0.0000 
      7 O2B       -25.1830   -6.1160   33.4490 O.co2     1 ATP202      0.0000 
      8 O3B       -22.5980   -6.7100   33.5960 O.3       1 ATP202      0.0000 
      9 PA        -24.8290   -7.6870   36.2490 P.3       1 ATP202      0.0000 
     10 O1A       -24.8150   -8.8540   37.1110 O.co2     1 ATP202      0.0000 
     11 O2A       -26.0920   -6.8320   36.0640 O.co2     1 ATP202      0.0000 
     12 O3A       -24.2390   -8.1070   34.8080 O.3       1 ATP202      0.0000 
     13 O5'       -23.7080   -6.7060   37.0040 O.3       1 ATP202      0.0000 
     14 C5'       -23.1090   -6.9060   38.3900 C.3       1 ATP202      0.0000 
     15 C4'       -21.5160   -6.9110   38.5360 C.3       1 ATP202      0.0000 
     16 O4'       -20.9040   -8.2110   38.3440 O.3       1 ATP202      0.0000 
     17 C3'       -20.8390   -6.0820   37.4190 C.3       1 ATP202      0.0000 
     18 O3'       -19.5680   -5.5770   37.8280 O.3       1 ATP202      0.0000 
     19 C2'       -20.6790   -7.0640   36.2340 C.3       1 ATP202      0.0000 
     20 O2'       -19.6790   -6.8200   35.1850 O.3       1 ATP202      0.0000 
     21 C1'       -20.2220   -8.2760   37.0570 C.3       1 ATP202      0.0000 
     22 N9        -20.6820   -9.5680   36.5030 N.pl3     1 ATP202      0.0000 
     23 C8        -21.6910   -9.8090   35.6030 C.2       1 ATP202      0.0000 
     24 N7        -21.8440  -11.1610   35.4020 N.2       1 ATP202      0.0000 
     25 C5        -20.9340  -11.7750   36.2420 C.ar      1 ATP202      0.0000 
     26 C6        -20.5740  -13.1920   36.5520 C.ar      1 ATP202      0.0000 
     27 N6        -21.2100  -14.2020   35.8530 N.pl3     1 ATP202      0.0000 
     28 N1        -19.5510  -13.3800   37.4820 N.ar      1 ATP202      0.0000 
     29 C2        -18.8940  -12.3580   38.1150 C.ar      1 ATP202      0.0000 
     30 N3        -19.1690  -11.0150   37.8480 N.ar      1 ATP202      0.0000 
     31 C4        -20.1740  -10.7200   36.9600 C.ar      1 ATP202      0.0000 
     32 H         -23.4726   -7.8696   38.8196 H         1 ATP202      0.0000 
     33 H         -23.4910   -6.1170   39.0804 H         1 ATP202      0.0000 
     34 H         -21.2430   -6.4842   39.4665 H         1 ATP202      0.0000 
     35 H         -21.5224   -5.3217   37.1161 H         1 ATP202      0.0000 
     36 H         -21.6462   -7.3132   35.8733 H         1 ATP202      0.0000 
     37 H         -19.1840   -8.2644   37.1915 H         1 ATP202      0.0000 
     38 H         -22.2216   -9.1232   35.1696 H         1 ATP202      0.0000 
     39 H         -20.9351  -15.1359   36.0816 H         1 ATP202      0.0000 
     40 H         -21.8896  -13.9107   35.1797 H         1 ATP202      0.0000 
     41 H         -18.1579  -12.5798   38.8258 H         1 ATP202      0.0000 
     42 H         -19.4070   -4.7797   37.2463 H         1 ATP202      0.0000 
     43 H         -20.1534   -6.2690   34.4984 H         1 ATP202      0.0000 
@<TRIPOS>BOND
     1    2    1 ar   
     2    3    1 ar   
     3    4    1 ar   
     4    8    1 1    
     5    6    5 ar   
     6    7    5 ar   
     7    8    5 1    
     8   12    5 1    
     9   10    9 ar   
    10   11    9 ar   
    11   12    9 1    
    12   13    9 1    
    13   14   13 1    
    14   15   14 1    
    15   32   14 1    
    16   33   14 1    
    17   16   15 1    
    18   17   15 1    
    19   34   15 1    
    20   21   16 1    
    21   18   17 1    
    22   19   17 1    
    23   35   17 1    
    24   42   18 1    
    25   20   19 1    
    26   21   19 1    
    27   36   19 1    
    28   43   20 1    
    29   22   21 1    
    30   37   21 1    
    31   23   22 1    
    32   31   22 1    
    33   24   23 2    
    34   38   23 1    
    35   25   24 1    
    36   26   25 ar   
    37   31   25 ar   
    38   27   26 1    
    39   28   26 ar   
    40   39   27 1    
    41   40   27 1    
    42   29   28 ar   
    43   30   29 ar   
    44   41   29 1    
    45   31   30 ar   
@<TRIPOS>SUBSTRUCTURE
     1 ATP202      1 GROUP   
@<TRIPOS>SET

