#    Name: 2g0g_SP0_1_INTS_M
#    Modification time : Tue Mar 25 13:20:04 2014

@<TRIPOS>MOLECULE
2g0g_SP0_1_INTS_M
   66     0     3     0     0
SMALL
NO_CHARGES


@<TRIPOS>ATOM
      1 CA          8.5605   -4.1500   32.9760 C.3       1 GLC5        0.0000 
      2 CA          8.7880   -4.9270   34.9140 C.3       3 GLL5        0.0000 
      3 CA          8.3330   -3.3730   31.0380 C.3       2 GLP5        0.0000 
      4 CA          5.6210   -5.6580   33.9360 C.3       1 GLC5        0.0000 
      5 CA          6.6150   -4.0840   34.9810 C.3       3 GLL5        0.0000 
      6 CA          4.6270   -7.2320   32.8910 C.3       2 GLP5        0.0000 
      7 CA          7.4740   -3.7285   33.0095 C.3       1 GLC5        0.0000 
      8 CA          8.2975   -5.7275   37.5850 C.3       1 GLC5        0.0000 
      9 CA          8.0890   -3.6380   36.8280 C.3       3 GLL5        0.0000 
     10 CA          8.5060   -7.8170   38.3420 C.3       2 GLP5        0.0000 
     11 CA         13.7355   -6.1525   42.4890 C.3       1 GLC5        0.0000 
     12 CA         13.6760   -7.8890   41.1390 C.3       3 GLL5        0.0000 
     13 CA         13.7950   -4.4160   43.8390 C.3       2 GLP5        0.0000 
     14 CA         14.4135   -8.8065   43.5050 C.3       1 GLC5        0.0000 
     15 CA         13.6070   -9.1520   41.5440 C.3       3 GLL5        0.0000 
     16 CA         15.2200   -8.4610   45.4660 C.3       2 GLP5        0.0000 
     17 CA         15.1325  -10.5090   42.1615 C.3       1 GLC5        0.0000 
     18 CA         16.6580  -11.8660   42.7790 C.3       2 GLP5        0.0000 
     19 CA         11.3335  -10.9185   40.6150 C.3       1 GLC5        0.0000 
     20 CA         12.8020   -9.9810   40.2920 C.3       3 GLL5        0.0000 
     21 CA          9.8650  -11.8560   40.9380 C.3       2 GLP5        0.0000 
     22 CA         12.1095  -13.0210   33.8830 C.3       1 GLC5        0.0000 
     23 CA         10.0860  -12.5730   34.7220 C.3       3 GLL5        0.0000 
     24 CA         14.1330  -13.4690   33.0440 C.3       2 GLP5        0.0000 
     25 CA          8.9945  -12.8750   31.4320 C.3       1 GLC5        0.0000 
     26 CA          8.4950  -12.9550   32.9970 C.3       3 GLL5        0.0000 
     27 CA          9.4940  -12.7950   29.8670 C.3       2 GLP5        0.0000 
     28 CA          8.9573   -6.4030   36.7795 C.3       1 GLC5        0.0000 
     29 CA          5.4570   -4.7875   36.1037 C.3       1 GLC5        0.0000 
     30 CA          7.8130   -4.2080   35.5880 C.3       3 GLL5        0.0000 
     31 CA          3.7000   -5.4290   36.9230 C.3       2 GLP5        0.0000 
     32 CA          9.3250   -1.8500   36.6133 C.3       1 GLC5        0.0000 
     33 CA          9.9350    0.0030   36.1000 C.3       2 GLP5        0.0000 
     34 CA          9.5215   -5.5690   38.4382 C.3       1 GLC5        0.0000 
     35 CA          9.3410   -3.7680   37.4250 C.3       3 GLL5        0.0000 
     36 CA          9.2100   -7.0130   39.7870 C.3       2 GLP5        0.0000 
     37 CA         11.4430   -3.3785   38.0503 C.3       1 GLC5        0.0000 
     38 CA         13.0530   -2.6320   39.0110 C.3       2 GLP5        0.0000 
     39 CA         10.8250   -3.0198   35.3925 C.3       1 GLC5        0.0000 
     40 CA         10.3250   -4.4820   36.7540 C.3       3 GLL5        0.0000 
     41 CA         11.4730   -1.2730   34.6480 C.3       2 GLP5        0.0000 
     42 CA         10.0533   -7.8842   37.4823 C.3       1 GLC5        0.0000 
     43 CA         11.9300   -7.6960   37.1410 C.3       3 GLL5        0.0000 
     44 CA         11.0355   -7.5665   39.7035 C.3       1 GLC5        0.0000 
     45 CA         12.5830   -8.6240   39.2880 C.3       3 GLL5        0.0000 
     46 CA         12.9558   -5.7812   40.3948 C.3       1 GLC5        0.0000 
     47 CA         12.5040   -3.8100   40.2440 C.3       2 GLP5        0.0000 
     48 CA         11.9661   -8.0321   42.2759 C.3       1 GLC5        0.0000 
     49 CA         13.1390   -7.6160   39.9520 C.3       3 GLL5        0.0000 
     50 CA         10.4250   -7.6120   43.5070 C.3       2 GLP5        0.0000 
     51 CA          9.1623   -8.9588   36.7373 C.3       1 GLC5        0.0000 
     52 CA         10.3100  -10.3190   35.5720 C.3       3 GLL5        0.0000 
     53 CA          7.6836  -12.4374   35.1160 C.3       1 GLC5        0.0000 
     54 CA          6.3230  -12.2250   36.5890 C.3       2 GLP5        0.0000 
     55 CA          8.6761  -14.3569   33.9510 C.3       1 GLC5        0.0000 
     56 CA          9.1010  -12.1160   33.8560 C.3       3 GLL5        0.0000 
     57 CA          8.3080  -16.0640   34.2590 C.3       2 GLP5        0.0000 
     58 CA          7.6591  -10.6029   35.3484 C.3       1 GLC5        0.0000 
     59 CA          8.7200  -10.7830   33.8310 C.3       3 GLL5        0.0000 
     60 CA          6.0490  -10.7640   36.2150 C.3       2 GLP5        0.0000 
     61 CA          7.3987   -9.2843   33.5060 C.3       1 GLC5        0.0000 
     62 CA          5.7740   -8.2360   32.7500 C.3       2 GLP5        0.0000 
     63 CA          6.9185  -12.0181   33.0704 C.3       1 GLC5        0.0000 
     64 CA          5.0780  -12.3770   32.5120 C.3       2 GLP5        0.0000 
     65 CA         14.8072   -8.5872   39.5239 C.3       1 GLC5        0.0000 
     66 CA         16.3780   -8.3890   38.3990 C.3       2 GLP5        0.0000 
@<TRIPOS>BOND
@<TRIPOS>SUBSTRUCTURE
     1 GLC5        1 GROUP        1 X    GLC  0     ROOT GLC X 6
     2 GLP5        3 GROUP        1 Y    GLP  0     ROOT GLP Y 13
     3 GLL5        2 GROUP        1 Z    GLL  0     ROOT GLL Z 20
@<TRIPOS>SET

