#    Name: 2g0g_SP0_1_ligand
#    Modification time : Tue Mar 25 13:20:04 2014

@<TRIPOS>MOLECULE
2g0g_SP0_1_ligand
   41    44     1     0     0
SMALL
NO_CHARGES


@<TRIPOS>ATOM
      1 C22         8.7880   -4.9270   34.9140 C.ar      1 SP0101      0.0000 
      2 C23         7.8130   -4.2080   35.5880 C.ar      1 SP0101      0.0000 
      3 F40         6.6150   -4.0840   34.9810 F         1 SP0101      0.0000 
      4 C24         8.0890   -3.6380   36.8280 C.ar      1 SP0101      0.0000 
      5 C25         9.3410   -3.7680   37.4250 C.ar      1 SP0101      0.0000 
      6 C26        10.3250   -4.4820   36.7540 C.ar      1 SP0101      0.0000 
      7 C21        10.0290   -5.0510   35.5200 C.ar      1 SP0101      0.0000 
      8 S18        11.2250   -5.9890   34.6800 S.o2      1 SP0101      0.0000 
      9 O19        12.5760   -5.5080   35.1340 O.2       1 SP0101      0.0000 
     10 O20        10.9880   -5.8400   33.2030 O.2       1 SP0101      0.0000 
     11 N17        10.9860   -7.5790   34.9630 N.pl3     1 SP0101      0.0000 
     12 C9         11.2710   -8.2070   36.1040 C.2       1 SP0101      0.0000 
     13 C10        11.9300   -7.6960   37.1410 C.2       1 SP0101      0.0000 
     14 C6         11.9790   -8.6780   38.0360 C.2       1 SP0101      0.0000 
     15 C4         12.5830   -8.6240   39.2880 C.2       1 SP0101      0.0000 
     16 C5         13.1390   -7.6160   39.9520 C.2       1 SP0101      0.0000 
     17 C1         13.6760   -7.8890   41.1390 C.2       1 SP0101      0.0000 
     18 C2         13.6070   -9.1520   41.5440 C.2       1 SP0101      0.0000 
     19 S3         12.8020   -9.9810   40.2920 S.3       1 SP0101      0.0000 
     20 N7         11.3670   -9.7370   37.5060 N.2       1 SP0101      0.0000 
     21 N8         10.9310   -9.4620   36.3870 N.pl3     1 SP0101      0.0000 
     22 C11        10.3100  -10.3190   35.5720 C.ar      1 SP0101      0.0000 
     23 C12        10.6890  -11.6600   35.5730 C.ar      1 SP0101      0.0000 
     24 C13        10.0860  -12.5730   34.7220 C.ar      1 SP0101      0.0000 
     25 C14         9.1010  -12.1160   33.8560 C.ar      1 SP0101      0.0000 
     26 F27         8.4950  -12.9550   32.9970 F         1 SP0101      0.0000 
     27 C15         8.7200  -10.7830   33.8310 C.ar      1 SP0101      0.0000 
     28 C16         9.3270   -9.8820   34.6930 C.ar      1 SP0101      0.0000 
     29 H           8.6007   -5.3467   34.0113 H         1 SP0101      0.0000 
     30 H           7.3462   -3.1047   37.3184 H         1 SP0101      0.0000 
     31 H           9.5283   -3.3481   38.3332 H         1 SP0101      0.0000 
     32 H          11.2573   -4.5888   37.1619 H         1 SP0101      0.0000 
     33 H          10.5759   -8.0361   34.1183 H         1 SP0101      0.0000 
     34 H          12.2883   -6.8178   37.2235 H         1 SP0101      0.0000 
     35 H          13.1543   -6.6612   39.5645 H         1 SP0101      0.0000 
     36 H          14.1192   -7.1615   41.7095 H         1 SP0101      0.0000 
     37 H          13.8472   -9.6600   42.2422 H         1 SP0101      0.0000 
     38 H          11.4328  -11.9761   36.2206 H         1 SP0101      0.0000 
     39 H          10.3573  -13.5538   34.7305 H         1 SP0101      0.0000 
     40 H           7.9938  -10.4652   33.1791 H         1 SP0101      0.0000 
     41 H           9.0505   -8.8914   34.6823 H         1 SP0101      0.0000 
@<TRIPOS>BOND
     1    2    1 ar   
     2    7    1 ar   
     3   29    1 1    
     4    3    2 1    
     5    4    2 ar   
     6    5    4 ar   
     7   30    4 1    
     8    6    5 ar   
     9   31    5 1    
    10    7    6 ar   
    11   32    6 1    
    12    8    7 1    
    13    9    8 2    
    14   10    8 2    
    15   11    8 1    
    16   12   11 1    
    17   33   11 1    
    18   13   12 2    
    19   21   12 1    
    20   14   13 1    
    21   34   13 1    
    22   15   14 1    
    23   20   14 2    
    24   16   15 2    
    25   19   15 1    
    26   17   16 1    
    27   35   16 1    
    28   18   17 2    
    29   36   17 1    
    30   19   18 1    
    31   37   18 1    
    32   21   20 1    
    33   22   21 1    
    34   23   22 ar   
    35   28   22 ar   
    36   24   23 ar   
    37   38   23 1    
    38   25   24 ar   
    39   39   24 1    
    40   26   25 1    
    41   27   25 ar   
    42   28   27 ar   
    43   40   27 1    
    44   41   28 1    
@<TRIPOS>SUBSTRUCTURE
     1 SP0101      1 GROUP   
@<TRIPOS>SET

