#    Name: 4ee0_0O4_2_INTS_M
#    Modification time : Tue Mar 25 10:56:32 2014

@<TRIPOS>MOLECULE
4ee0_0O4_2_INTS_M
   50     0     3     0     0
SMALL
NO_CHARGES


@<TRIPOS>ATOM
      1 CA          8.2120  -10.8675   -4.2610 C.3       1 GLC5        0.0000 
      2 CA         10.2690  -10.9550   -4.8100 C.3       3 GLL5        0.0000 
      3 CA          6.1550  -10.7800   -3.7120 C.3       2 GLP5        0.0000 
      4 CA          9.6380  -12.5910   -4.3820 C.3       1 GLC5        0.0000 
      5 CA          9.0070  -14.2270   -3.9540 C.3       2 GLP5        0.0000 
      6 CA          7.4940   -9.4075   -4.8430 C.3       1 GLC5        0.0000 
      7 CA          8.7500   -9.4260   -6.0970 C.3       3 GLL5        0.0000 
      8 CA          6.2380   -9.3890   -3.5890 C.3       2 GLP5        0.0000 
      9 CA          6.6945   -9.0595   -6.5235 C.3       1 GLC5        0.0000 
     10 CA          8.5880   -8.9720   -7.5460 C.3       3 GLL5        0.0000 
     11 CA          4.8010   -9.1470   -5.5010 C.3       2 GLP5        0.0000 
     12 CA         14.1495  -14.7700   -3.0145 C.3       1 GLC5        0.0000 
     13 CA         13.3870  -13.9150   -1.4210 C.3       3 GLL5        0.0000 
     14 CA         14.9120  -15.6250   -4.6080 C.3       2 GLP5        0.0000 
     15 CA         10.6280  -12.9420    2.3775 C.3       1 GLC5        0.0000 
     16 CA         12.0040  -13.0710    0.8080 C.3       3 GLL5        0.0000 
     17 CA          9.2520  -12.8130    3.9470 C.3       2 GLP5        0.0000 
     18 CA         11.1365  -15.7050    1.3175 C.3       1 GLC5        0.0000 
     19 CA         12.8040  -14.9630    2.1740 C.3       3 GLL5        0.0000 
     20 CA          9.4690  -16.4470    0.4610 C.3       2 GLP5        0.0000 
     21 CA         11.0115  -16.7670    1.8200 C.3       1 GLC5        0.0000 
     22 CA         12.5540  -17.0870    3.1790 C.3       3 GLL5        0.0000 
     23 CA         11.7280  -19.0135    3.9105 C.3       1 GLC5        0.0000 
     24 CA         10.9020  -20.9400    4.6420 C.3       2 GLP5        0.0000 
     25 CA         13.4150  -17.6000    5.9920 C.3       1 GLC5        0.0000 
     26 CA         12.6510  -16.5250    4.4410 C.3       3 GLL5        0.0000 
     27 CA         14.1790  -18.6750    7.5430 C.3       2 GLP5        0.0000 
     28 CA         11.8105  -14.1490   -2.6543 C.3       1 GLC5        0.0000 
     29 CA         12.6130  -12.7470   -1.4820 C.3       3 GLL5        0.0000 
     30 CA         10.6210  -14.9670   -3.8570 C.3       2 GLP5        0.0000 
     31 CA         13.6880  -11.0598   -1.0733 C.3       1 GLC5        0.0000 
     32 CA         15.1120   -9.5810   -1.2280 C.3       2 GLP5        0.0000 
     33 CA         11.2031  -15.2989    0.3823 C.3       1 GLC5        0.0000 
     34 CA         14.5787  -16.8675    3.8255 C.3       1 GLC5        0.0000 
     35 CA         16.5550  -16.9290    3.8410 C.3       2 GLP5        0.0000 
     36 CA         11.1238  -13.2353    3.7345 C.3       1 GLC5        0.0000 
     37 CA         12.9080  -14.3460    3.4320 C.3       3 GLL5        0.0000 
     38 CA         14.5363  -14.0787    4.8245 C.3       1 GLC5        0.0000 
     39 CA         13.0830  -12.9690    3.6120 C.3       3 GLL5        0.0000 
     40 CA         16.0770  -14.5000    6.1270 C.3       2 GLP5        0.0000 
     41 CA         11.1955  -12.8253    4.6955 C.3       1 GLC5        0.0000 
     42 CA         13.0960  -13.2460    5.9990 C.3       3 GLL5        0.0000 
     43 CA         14.6080  -13.6688    5.7855 C.3       1 GLC5        0.0000 
     44 CA         13.1820  -12.4290    4.8890 C.3       3 GLL5        0.0000 
     45 CA         14.6310  -11.3978    5.8830 C.3       1 GLC5        0.0000 
     46 CA         16.1230   -9.9580    6.3220 C.3       2 GLP5        0.0000 
     47 CA         11.0612  -13.8485    4.5770 C.3       1 GLC5        0.0000 
     48 CA         12.9160  -14.6090    5.8430 C.3       3 GLL5        0.0000 
     49 CA         14.4738  -14.6920    5.6670 C.3       1 GLC5        0.0000 
     50 CA         12.8250  -15.1590    4.5710 C.3       3 GLL5        0.0000 
@<TRIPOS>BOND
@<TRIPOS>SUBSTRUCTURE
     1 GLC5        1 GROUP        1 X    GLC  0     ROOT GLC X 6
     2 GLP5        3 GROUP        1 Y    GLP  0     ROOT GLP Y 13
     3 GLL5        2 GROUP        1 Z    GLL  0     ROOT GLL Z 20
@<TRIPOS>SET

