#    Name: 4ee0_0O4_2_ligand
#    Modification time : Tue Mar 25 10:56:32 2014

@<TRIPOS>MOLECULE
4ee0_0O4_2_ligand
   51    54     1     0     0
SMALL
NO_CHARGES


@<TRIPOS>ATOM
      1 O1         13.2150  -12.2370   -3.6930 O.2       1 0O4201      0.0000 
      2 C2         12.4930  -11.9580   -2.7540 C.2       1 0O4201      0.0000 
      3 N3         11.5710  -10.9990   -2.8480 N.am      1 0O4201      0.0000 
      4 C4         11.2750  -10.1450   -3.9930 C.3       1 0O4201      0.0000 
      5 C5         10.2690  -10.9550   -4.8100 C.3       1 0O4201      0.0000 
      6 N6          9.9780  -10.2060   -6.0260 N.4       1 0O4201      0.0000 
      7 C11         8.7500   -9.4260   -6.0970 C.3       1 0O4201      0.0000 
      8 C10         8.5880   -8.9720   -7.5460 C.3       1 0O4201      0.0000 
      9 O9          8.7920  -10.0900   -8.4120 O.3       1 0O4201      0.0000 
     10 C8         10.1440  -10.5650   -8.4280 C.3       1 0O4201      0.0000 
     11 C7         10.9210  -10.2470   -7.1470 C.3       1 0O4201      0.0000 
     12 C12        12.6130  -12.7470   -1.4820 C.ar      1 0O4201      0.0000 
     13 C13        13.3870  -13.9150   -1.4210 C.ar      1 0O4201      0.0000 
     14 C17        11.9150  -12.3300   -0.3550 C.ar      1 0O4201      0.0000 
     15 C16        12.0040  -13.0710    0.8080 C.ar      1 0O4201      0.0000 
     16 C15        12.8050  -14.2140    0.8900 C.ar      1 0O4201      0.0000 
     17 C14        13.4700  -14.6590   -0.2420 C.ar      1 0O4201      0.0000 
     18 C18        12.8040  -14.9630    2.1740 C.ar      1 0O4201      0.0000 
     19 N19        12.6350  -16.3090    2.0860 N.ar      1 0O4201      0.0000 
     20 C20        12.5540  -17.0870    3.1790 C.ar      1 0O4201      0.0000 
     21 C27        12.9080  -14.3460    3.4320 C.ar      1 0O4201      0.0000 
     22 C26        13.0830  -12.9690    3.6120 C.ar      1 0O4201      0.0000 
     23 C25        13.1820  -12.4290    4.8890 C.ar      1 0O4201      0.0000 
     24 C22        12.8250  -15.1590    4.5710 C.ar      1 0O4201      0.0000 
     25 C21        12.6510  -16.5250    4.4410 C.ar      1 0O4201      0.0000 
     26 C23        12.9160  -14.6090    5.8430 C.ar      1 0O4201      0.0000 
     27 C24        13.0960  -13.2460    5.9990 C.ar      1 0O4201      0.0000 
     28 H          10.9387  -10.7933   -1.9899 H         1 0O4201      0.0000 
     29 H          12.1449   -9.9744   -4.5915 H         1 0O4201      0.0000 
     30 H          10.8132   -9.2288   -3.6911 H         1 0O4201      0.0000 
     31 H           9.3760  -11.0957   -4.2114 H         1 0O4201      0.0000 
     32 H          10.7099  -11.9190   -5.0377 H         1 0O4201      0.0000 
     33 H           9.2837  -11.3546   -6.5626 H         1 0O4201      0.0000 
     34 H           8.8040   -8.5482   -5.4667 H         1 0O4201      0.0000 
     35 H           7.8886  -10.0222   -5.8262 H         1 0O4201      0.0000 
     36 H           9.3150   -8.1764   -7.7312 H         1 0O4201      0.0000 
     37 H           7.5847   -8.5511   -7.6552 H         1 0O4201      0.0000 
     38 H          10.7136  -10.1295   -9.2773 H         1 0O4201      0.0000 
     39 H          10.1820  -11.6663   -8.5733 H         1 0O4201      0.0000 
     40 H          11.6694  -11.0205   -6.9994 H         1 0O4201      0.0000 
     41 H          11.4162   -9.2886   -7.2757 H         1 0O4201      0.0000 
     42 H          13.9008  -14.2265   -2.2594 H         1 0O4201      0.0000 
     43 H          11.3413  -11.4814   -0.3896 H         1 0O4201      0.0000 
     44 H          11.4644  -12.7769    1.6471 H         1 0O4201      0.0000 
     45 H          14.0174  -15.5233   -0.2188 H         1 0O4201      0.0000 
     46 H          12.4186  -18.1128    3.0965 H         1 0O4201      0.0000 
     47 H          13.1385  -12.3530    2.7869 H         1 0O4201      0.0000 
     48 H          13.3203  -11.4129    5.0038 H         1 0O4201      0.0000 
     49 H          12.5938  -17.1210    5.2769 H         1 0O4201      0.0000 
     50 H          12.8491  -15.2192    6.6709 H         1 0O4201      0.0000 
     51 H          13.1658  -12.8414    6.9449 H         1 0O4201      0.0000 
@<TRIPOS>BOND
     1    2    1 2    
     2    3    2 am   
     3   12    2 1    
     4    4    3 1    
     5   28    3 1    
     6    5    4 1    
     7   29    4 1    
     8   30    4 1    
     9    6    5 1    
    10   31    5 1    
    11   32    5 1    
    12    7    6 1    
    13   11    6 1    
    14   33    6 1    
    15    8    7 1    
    16   34    7 1    
    17   35    7 1    
    18    9    8 1    
    19   36    8 1    
    20   37    8 1    
    21   10    9 1    
    22   11   10 1    
    23   38   10 1    
    24   39   10 1    
    25   40   11 1    
    26   41   11 1    
    27   13   12 ar   
    28   14   12 ar   
    29   17   13 ar   
    30   42   13 1    
    31   15   14 ar   
    32   43   14 1    
    33   16   15 ar   
    34   44   15 1    
    35   17   16 ar   
    36   18   16 1    
    37   45   17 1    
    38   19   18 ar   
    39   21   18 ar   
    40   20   19 ar   
    41   25   20 ar   
    42   46   20 1    
    43   22   21 ar   
    44   24   21 ar   
    45   23   22 ar   
    46   47   22 1    
    47   27   23 ar   
    48   48   23 1    
    49   25   24 ar   
    50   26   24 ar   
    51   49   25 1    
    52   27   26 ar   
    53   50   26 1    
    54   51   27 1    
@<TRIPOS>SUBSTRUCTURE
     1 0O4201      1 GROUP   
@<TRIPOS>SET

