#    Name: 3FUL_1_CAVITY_N1_ALL.mol2
#    Modification time : Mon Mar 10 17:21:37 2014

@<TRIPOS>MOLECULE
3FUL_1_CAVITY_N1_ALL.mol2
   50     0     6     0     0
SMALL
NO_CHARGES


@<TRIPOS>ATOM
      1 CA        -21.2739   -3.7762    6.2970 C.3       5 GLY6        0.0000 
      2 CA        -21.7788   -2.3638    6.2917 C.3       5 GLY6        0.0000 
      3 CA        -21.0651   -3.7072    4.8132 C.3       5 GLY6        0.0000 
      4 CA        -21.5701   -2.2948    4.8079 C.3       5 GLY6        0.0000 
      5 CA        -21.3613   -2.2257    3.3241 C.3       5 GLY6        0.0000 
      6 CA        -21.8663   -0.8133    3.3187 C.3       5 GLY6        0.0000 
      7 CA        -22.6708   -4.2765    6.0772 C.3       5 GLY6        0.0000 
      8 CA        -23.1758   -2.8640    6.0719 C.3       5 GLY6        0.0000 
      9 CA        -23.6807   -1.4516    6.0665 C.3       5 GLY6        0.0000 
     10 CA        -22.4621   -4.2074    4.5934 C.3       5 GLY6        0.0000 
     11 CA        -22.9670   -2.7950    4.5881 C.3       5 GLY6        0.0000 
     12 CA        -23.4720   -1.3825    4.5827 C.3       5 GLY6        0.0000 
     13 N         -22.7583   -2.7259    3.1043 N.2       2 ALA2        0.0000 
     14 DU        -23.2632   -1.3135    3.0989 H         6 CUB7        0.0000 
     15 N         -23.7682    0.0990    3.0936 N.2       2 ALA2        0.0000 
     16 CA        -23.0545   -1.2445    1.6151 C.3       5 GLY6        0.0000 
     17 CA        -23.5594    0.1680    1.6098 C.3       5 GLY6        0.0000 
     18 CA        -24.3640   -3.2952    4.3683 C.3       5 GLY6        0.0000 
     19 CZ        -24.8689   -1.8828    4.3630 C.ar      4 PHE5        0.0000 
     20 N         -24.1552   -3.2262    2.8845 N.2       2 ALA2        0.0000 
     21 CZ        -24.6602   -1.8137    2.8792 C.ar      4 PHE5        0.0000 
     22 CZ        -25.1651   -0.4013    2.8738 C.ar      4 PHE5        0.0000 
     23 N         -25.6700    1.0112    2.8685 N.2       2 ALA2        0.0000 
     24 N         -24.4514   -1.7447    1.3954 N.2       2 ALA2        0.0000 
     25 N         -24.9564   -0.3322    1.3900 N.2       2 ALA2        0.0000 
     26 CA        -25.4613    1.0802    1.3847 C.3       5 GLY6        0.0000 
     27 CZ        -26.0571   -2.3139    2.6594 C.ar      4 PHE5        0.0000 
     28 CZ        -27.0670    0.5110    2.6487 C.ar      4 PHE5        0.0000 
     29 CZ        -25.8484   -2.2449    1.1756 C.ar      4 PHE5        0.0000 
     30 CZ        -26.3533   -0.8325    1.1702 C.ar      4 PHE5        0.0000 
     31 CA        -26.8583    0.5800    1.1649 C.3       5 GLY6        0.0000 
     32 N         -26.1446   -0.7634   -0.3136 N.2       2 ALA2        0.0000 
     33 CA        -26.6495    0.6490   -0.3189 C.3       5 GLY6        0.0000 
     34 CZ        -27.7503   -1.3327    0.9505 C.ar      4 PHE5        0.0000 
     35 CZ        -28.2552    0.0798    0.9451 C.ar      4 PHE5        0.0000 
     36 CZ        -27.5415   -1.2636   -0.5333 C.ar      4 PHE5        0.0000 
     37 CA        -28.0465    0.1488   -0.5387 C.3       5 GLY6        0.0000 
     38 NZ        -27.3328   -1.1946   -2.0171 N.2       3 LYS4        0.0000 
     39 O         -27.8377    0.2178   -2.0225 O.2       2 ALA2        0.0000 
     40 CZ        -29.1472   -1.8329    0.7307 C.ar      4 PHE5        0.0000 
     41 N         -29.6522   -0.4205    0.7253 N.2       2 ALA2        0.0000 
     42 CZ        -28.9385   -1.7639   -0.7531 C.ar      4 PHE5        0.0000 
     43 N         -29.4434   -0.3514   -0.7585 N.2       2 ALA2        0.0000 
     44 NZ        -28.7298   -1.6948   -2.2369 N.2       3 LYS4        0.0000 
     45 N         -29.2347   -0.2824   -2.2423 N.2       2 ALA2        0.0000 
     46 CZ        -30.5442   -2.3331    0.5109 C.ar      4 PHE5        0.0000 
     47 CZ        -30.3354   -2.2641   -0.9729 C.ar      4 PHE5        0.0000 
     48 OG        -30.1267   -2.1951   -2.4567 O.2       1 SER1        0.0000 
     49 N         -30.6316   -0.7826   -2.4620 N.2       2 ALA2        0.0000 
     50 CZ        -31.7324   -2.7643   -1.1927 C.ar      4 PHE5        0.0000 
@<TRIPOS>BOND
@<TRIPOS>SUBSTRUCTURE
     1 SER1       48 GROUP   
     2 ALA2       13 GROUP   
     3 LYS4       38 GROUP   
     4 PHE5       19 GROUP   
     5 GLY6        1 GROUP   
     6 CUB7       14 GROUP   
@<TRIPOS>SET

