#    Name: 3ful_52D_1_INTS_M
#    Modification time : Tue Mar 25 06:31:27 2014

@<TRIPOS>MOLECULE
3ful_52D_1_INTS_M
   58     0     6     0     0
SMALL
NO_CHARGES


@<TRIPOS>ATOM
      1 CA        -24.6960   -3.9975    4.6740 C.3       2 GLC5        0.0000 
      2 CA        -23.2920   -3.1470    3.4920 C.3       6 GLL5        0.0000 
      3 CA        -26.1000   -4.8480    5.8560 C.3       4 GLP5        0.0000 
      4 CA        -24.6905   -3.2545    5.5660 C.3       2 GLC5        0.0000 
      5 CA        -23.2810   -1.6610    5.2760 C.3       6 GLL5        0.0000 
      6 CA        -27.0945    0.4310    3.7385 C.3       2 GLC5        0.0000 
      7 CA        -27.4930    0.2860    1.5550 C.3       6 GLL5        0.0000 
      8 CA        -26.6960    0.5760    5.9220 C.3       4 GLP5        0.0000 
      9 CA        -25.5625   -1.4235   -2.6275 C.3       2 GLC5        0.0000 
     10 CA        -26.7890   -0.8820   -0.8280 C.3       6 GLL5        0.0000 
     11 CA        -24.3360   -1.9650   -4.4270 C.3       4 GLP5        0.0000 
     12 CA        -31.0040    0.7515   -0.9080 C.3       2 GLC5        0.0000 
     13 CA        -30.3870   -0.6820   -1.5040 C.3       6 GLL5        0.0000 
     14 CA        -31.6210    2.1850   -0.3120 C.3       4 GLP5        0.0000 
     15 CA        -31.7325    0.2325   -1.9635 C.3       2 GLC5        0.0000 
     16 CA        -31.0370   -1.7890   -2.2990 C.3       6 GLL5        0.0000 
     17 CA        -32.4280    2.2540   -1.6280 C.3       4 GLP5        0.0000 
     18 CA        -31.2050   -2.7915   -3.4745 C.3       2 GLC5        0.0000 
     19 CA        -31.3730   -3.7940   -4.6500 C.3       4 GLP5        0.0000 
     20 O         -32.2900   -1.0810   -0.4825 O.2       1 ALC1        0.0000 
     21 O         -32.1620   -2.2520   -1.4770 O.2       5 ALL1        0.0000 
     22 O         -32.4180    0.0900    0.5120 O.2       3 ALP1        0.0000 
     23 CA        -32.9775    0.1855   -1.7115 C.3       2 GLC5        0.0000 
     24 CA        -33.5270   -1.8830   -1.7950 C.3       6 GLL5        0.0000 
     25 CA        -33.6370   -2.9605   -3.3165 C.3       2 GLC5        0.0000 
     26 CA        -33.7470   -4.0380   -4.8380 C.3       4 GLP5        0.0000 
     27 CA        -30.5940   -3.8950    0.3030 C.3       2 GLC5        0.0000 
     28 CA        -31.9960   -3.1430   -0.3390 C.3       6 GLL5        0.0000 
     29 CA        -29.1920   -4.6470    0.9450 C.3       4 GLP5        0.0000 
     30 CA        -31.5790   -4.7555    0.1385 C.3       2 GLC5        0.0000 
     31 CA        -33.3940   -3.7170   -0.1240 C.3       6 GLL5        0.0000 
     32 CA        -29.7640   -5.7940    0.4010 C.3       4 GLP5        0.0000 
     33 CA        -34.0385   -3.9615   -2.4165 C.3       2 GLC5        0.0000 
     34 CA        -34.3420   -2.9070   -0.9910 C.3       6 GLL5        0.0000 
     35 CA        -33.7350   -5.0160   -3.8420 C.3       4 GLP5        0.0000 
     36 CA        -22.1113   -2.6845    1.7167 C.3       2 GLC5        0.0000 
     37 CA        -23.9790   -2.2550    2.6650 C.3       6 GLL5        0.0000 
     38 CA        -20.5870   -2.6680    0.3550 C.3       4 GLP5        0.0000 
     39 CA        -24.1447   -3.8145    1.5312 C.3       2 GLC5        0.0000 
     40 CA        -24.6540   -4.9280   -0.0160 C.3       4 GLP5        0.0000 
     41 CA        -25.2069   -0.3480    5.2420 C.3       2 GLC5        0.0000 
     42 CA        -24.3440   -1.0220    3.1900 C.3       6 GLL5        0.0000 
     43 CA        -21.8625   -0.6783    5.2190 C.3       2 GLC5        0.0000 
     44 CA        -23.9650   -0.7440    4.5060 C.3       6 GLL5        0.0000 
     45 CA        -20.1020   -0.1540    5.5470 C.3       4 GLP5        0.0000 
     46 CA        -27.8340    1.7448   -0.0838 C.3       2 GLC5        0.0000 
     47 CA        -27.6870    3.2850   -1.2330 C.3       4 GLP5        0.0000 
     48 CA        -26.0643   -2.6530   -0.6342 C.3       2 GLC5        0.0000 
     49 CA        -25.8230   -4.5000   -0.9280 C.3       4 GLP5        0.0000 
     50 CA        -27.5667    1.3040   -0.9795 C.3       2 GLC5        0.0000 
     51 CA        -25.1671    0.4511   -0.8342 C.3       2 GLC5        0.0000 
     52 CA        -23.9400    1.5670   -1.6290 C.3       4 GLP5        0.0000 
     53 CA        -29.9537    1.0052   -0.1680 C.3       2 GLC5        0.0000 
     54 CA        -28.1040   -0.4720   -0.6240 C.3       6 GLL5        0.0000 
     55 CA        -34.8407   -1.0165   -1.1860 C.3       2 GLC5        0.0000 
     56 CA        -35.7470    0.3620   -0.9790 C.3       4 GLP5        0.0000 
     57 CA        -32.6125   -4.3995   -1.7572 C.3       2 GLC5        0.0000 
     58 CA        -32.5300   -5.3690   -3.2830 C.3       4 GLP5        0.0000 
@<TRIPOS>BOND
@<TRIPOS>SUBSTRUCTURE
     1 ALC1       20 GROUP        1 X    ALC  0     ROOT ALC X 1
     2 GLC5        1 GROUP        1 X    GLC  0     **** GLC X 6
     3 ALP1       22 GROUP        1 Y    ALP  0     ROOT ALP Y 8
     4 GLP5        3 GROUP        1 Y    GLP  0     **** GLP Y 13
     5 ALL1       21 GROUP        1 Z    ALL  0     ROOT ALL Z 15
     6 GLL5        2 GROUP        1 Z    GLL  0     **** GLL Z 20
@<TRIPOS>SET

