#    Name: 3ful_52D_1_ligand
#    Modification time : Tue Mar 25 06:31:28 2014

@<TRIPOS>MOLECULE
3ful_52D_1_ligand
   43    45     1     0     0
SMALL
NO_CHARGES


@<TRIPOS>ATOM
      1 O8        -24.8920    1.1990    2.6490 O.2       1 52D710      0.0000 
      2 C7        -25.1170    0.0300    2.4050 C.2       1 52D710      0.0000 
      3 C9        -24.3440   -1.0220    3.1900 C.ar      1 52D710      0.0000 
      4 C14       -23.9790   -2.2550    2.6650 C.ar      1 52D710      0.0000 
      5 C13       -23.2920   -3.1470    3.4920 C.ar      1 52D710      0.0000 
      6 N12       -22.9570   -2.8330    4.7470 N.ar      1 52D710      0.0000 
      7 C11       -23.2810   -1.6610    5.2760 C.ar      1 52D710      0.0000 
      8 C10       -23.9650   -0.7440    4.5060 C.ar      1 52D710      0.0000 
      9 C6        -26.1770   -0.1650    1.3510 C.ar      1 52D710      0.0000 
     10 C1        -27.4930    0.2860    1.5550 C.ar      1 52D710      0.0000 
     11 C5        -25.8220   -0.7300    0.1470 C.ar      1 52D710      0.0000 
     12 C4        -26.7890   -0.8820   -0.8280 C.ar      1 52D710      0.0000 
     13 C3        -28.1040   -0.4720   -0.6240 C.ar      1 52D710      0.0000 
     14 C2        -28.4690    0.1230    0.5760 C.ar      1 52D710      0.0000 
     15 O15       -28.9800   -0.6730   -1.6680 O.3       1 52D710      0.0000 
     16 C16       -30.3870   -0.6820   -1.5040 C.3       1 52D710      0.0000 
     17 C17       -31.0370   -1.7890   -2.2990 C.3       1 52D710      0.0000 
     18 N23       -32.1620   -2.2520   -1.4770 N.4       1 52D710      0.0000 
     19 C19       -33.5270   -1.8830   -1.7950 C.3       1 52D710      0.0000 
     20 C22       -31.9960   -3.1430   -0.3390 C.3       1 52D710      0.0000 
     21 C21       -33.3940   -3.7170   -0.1240 C.3       1 52D710      0.0000 
     22 C20       -34.3420   -2.9070   -0.9910 C.3       1 52D710      0.0000 
     23 H         -24.2035   -2.5046    1.7073 H         1 52D710      0.0000 
     24 H         -23.0433   -4.0853    3.0915 H         1 52D710      0.0000 
     25 H         -23.0351   -1.4146    6.2508 H         1 52D710      0.0000 
     26 H         -24.2099    0.1851    4.9099 H         1 52D710      0.0000 
     27 H         -27.7336    0.7454    2.4488 H         1 52D710      0.0000 
     28 H         -24.8592   -1.0329   -0.0252 H         1 52D710      0.0000 
     29 H         -26.5326   -1.3136   -1.7402 H         1 52D710      0.0000 
     30 H         -29.4238    0.4322    0.7372 H         1 52D710      0.0000 
     31 H         -30.8397    0.2765   -1.8262 H         1 52D710      0.0000 
     32 H         -30.6714   -0.8167   -0.4417 H         1 52D710      0.0000 
     33 H         -30.3239   -2.5791   -2.4545 H         1 52D710      0.0000 
     34 H         -31.3837   -1.3944   -3.2377 H         1 52D710      0.0000 
     35 H         -32.0461   -1.1116   -0.6175 H         1 52D710      0.0000 
     36 H         -33.7457   -2.0145   -2.8277 H         1 52D710      0.0000 
     37 H         -33.7693   -0.9087   -1.4433 H         1 52D710      0.0000 
     38 H         -31.7052   -2.6099    0.5403 H         1 52D710      0.0000 
     39 H         -31.3261   -3.9456   -0.5607 H         1 52D710      0.0000 
     40 H         -33.6684   -3.6148    0.9090 H         1 52D710      0.0000 
     41 H         -33.4100   -4.7459   -0.4304 H         1 52D710      0.0000 
     42 H         -34.8615   -3.5618   -1.6759 H         1 52D710      0.0000 
     43 H         -35.0514   -2.3828   -0.3667 H         1 52D710      0.0000 
@<TRIPOS>BOND
     1    2    1 2    
     2    3    2 1    
     3    9    2 1    
     4    4    3 ar   
     5    8    3 ar   
     6    5    4 ar   
     7   23    4 1    
     8    6    5 ar   
     9   24    5 1    
    10    7    6 ar   
    11    8    7 ar   
    12   25    7 1    
    13   26    8 1    
    14   10    9 ar   
    15   11    9 ar   
    16   14   10 ar   
    17   27   10 1    
    18   12   11 ar   
    19   28   11 1    
    20   13   12 ar   
    21   29   12 1    
    22   14   13 ar   
    23   15   13 1    
    24   30   14 1    
    25   16   15 1    
    26   17   16 1    
    27   31   16 1    
    28   32   16 1    
    29   18   17 1    
    30   33   17 1    
    31   34   17 1    
    32   19   18 1    
    33   20   18 1    
    34   35   18 1    
    35   22   19 1    
    36   36   19 1    
    37   37   19 1    
    38   21   20 1    
    39   38   20 1    
    40   39   20 1    
    41   22   21 1    
    42   40   21 1    
    43   41   21 1    
    44   42   22 1    
    45   43   22 1    
@<TRIPOS>SUBSTRUCTURE
     1 52D710      1 GROUP   
@<TRIPOS>SET

