#    Name: 1eyq_NAR_1_INTS_M
#    Modification time : Tue Mar 25 00:24:18 2014

@<TRIPOS>MOLECULE
1eyq_NAR_1_INTS_M
   58     0     9     0     0
SMALL
NO_CHARGES


@<TRIPOS>ATOM
      1 CA         28.8630   18.0980   36.3800 C.3       3 GLC5        0.0000 
      2 CA         26.9340   18.8600   35.8070 C.3       9 GLL5        0.0000 
      3 CA         30.7920   17.3360   36.9530 C.3       6 GLP5        0.0000 
      4 CA         25.9065   18.3705   34.0285 C.3       3 GLC5        0.0000 
      5 CA         25.6030   18.8720   36.0770 C.3       9 GLL5        0.0000 
      6 CA         26.2100   17.8690   31.9800 C.3       6 GLP5        0.0000 
      7 CA         24.1965   18.3785   37.4885 C.3       3 GLC5        0.0000 
      8 CA         22.7900   17.8850   38.9000 C.3       6 GLP5        0.0000 
      9 CA         24.8160   22.2965   35.5850 C.3       3 GLC5        0.0000 
     10 CA         25.1660   20.6810   34.4540 C.3       9 GLL5        0.0000 
     11 CA         24.4660   23.9120   36.7160 C.3       6 GLP5        0.0000 
     12 CA         23.3285   21.3850   35.3020 C.3       3 GLC5        0.0000 
     13 CA         21.4910   22.0890   36.1500 C.3       6 GLP5        0.0000 
     14 CA         24.4395   23.6745   34.1890 C.3       3 GLC5        0.0000 
     15 CA         25.0450   22.6680   32.8190 C.3       9 GLL5        0.0000 
     16 CA         23.8340   24.6810   35.5590 C.3       6 GLP5        0.0000 
     17 CA         23.4735   23.4135   32.5260 C.3       3 GLC5        0.0000 
     18 CA         21.9020   24.1590   32.2330 C.3       6 GLP5        0.0000 
     19 CA         26.2495   19.9545   32.1020 C.3       3 GLC5        0.0000 
     20 CA         26.2890   22.0400   32.2240 C.3       9 GLL5        0.0000 
     21 CA         29.0080   25.4715   31.9870 C.3       3 GLC5        0.0000 
     22 CA         27.1220   24.3420   31.6870 C.3       9 GLL5        0.0000 
     23 CA         30.8940   26.6010   32.2870 C.3       6 GLP5        0.0000 
     24 CA         29.0290   26.5495   31.1690 C.3       3 GLC5        0.0000 
     25 CA         27.8160   25.3220   30.7580 C.3       9 GLL5        0.0000 
     26 CA         30.2420   27.7770   31.5800 C.3       6 GLP5        0.0000 
     27 CA         29.5405   26.4180   29.8600 C.3       3 GLC5        0.0000 
     28 CA         28.3010   24.9220   29.5550 C.3       9 GLL5        0.0000 
     29 CA         30.7800   27.9140   30.1650 C.3       6 GLP5        0.0000 
     30 CA         28.9595   21.7820   30.7355 C.3       3 GLC5        0.0000 
     31 CA         27.5160   22.5790   29.9640 C.3       9 GLL5        0.0000 
     32 CA         30.4030   20.9850   31.5070 C.3       6 GLP5        0.0000 
     33 N          28.9660   18.8370   36.6270 N.am      2 SEC2        0.0000 
     34 N          27.7480   17.9970   36.4440 N.am      8 SEL2        0.0000 
     35 N          30.1840   19.6770   36.8100 N.am      5 SEP2        0.0000 
     36 O          27.1315   17.2185   37.3600 O.2       1 ALC1        0.0000 
     37 O          27.7480   17.9970   36.4440 O.2       7 ALL1        0.0000 
     38 O          26.5150   16.4400   38.2760 O.2       4 ALP1        0.0000 
     39 CA         27.8543   18.2270   33.9980 C.3       3 GLC5        0.0000 
     40 CA         28.4980   17.1110   32.7070 C.3       6 GLP5        0.0000 
     41 CA         26.9232   17.7025   37.5875 C.3       3 GLC5        0.0000 
     42 CA         27.5780   16.5390   39.2330 C.3       6 GLP5        0.0000 
     43 CA         26.0680   19.2800   33.1320 C.3       3 GLC5        0.0000 
     44 CA         26.6860   20.7010   34.1140 C.3       9 GLL5        0.0000 
     45 CA         24.6310   21.2605   31.3383 C.3       3 GLC5        0.0000 
     46 CA         23.5950   20.1670   30.1550 C.3       6 GLP5        0.0000 
     47 CA         28.5165   21.7602   31.6390 C.3       3 GLC5        0.0000 
     48 CA         26.8355   26.3830   32.4342 C.3       3 GLC5        0.0000 
     49 CA         26.2020   27.9340   33.6460 C.3       6 GLP5        0.0000 
     50 CA         26.0645   26.1910   30.5778 C.3       3 GLC5        0.0000 
     51 CA         24.6600   27.5500   29.9330 C.3       6 GLP5        0.0000 
     52 CA         29.6457   23.1370   30.0215 C.3       3 GLC5        0.0000 
     53 CA         28.1340   23.4660   29.1450 C.3       9 GLL5        0.0000 
     54 CA         31.0740   22.0800   30.6930 C.3       6 GLP5        0.0000 
     55 CA         27.3145   21.7168   28.2778 C.3       3 GLC5        0.0000 
     56 CA         26.8040   20.4110   27.0010 C.3       6 GLP5        0.0000 
     57 CA         26.4084   23.8648   28.4830 C.3       3 GLC5        0.0000 
     58 CA         24.9500   24.3430   27.3090 C.3       6 GLP5        0.0000 
@<TRIPOS>BOND
@<TRIPOS>SUBSTRUCTURE
     1 ALC1       36 GROUP        1 X    ALC  0     ROOT ALC X 1
     2 SEC2       33 GROUP        1 X    SEC  0     **** SEC X 2
     3 GLC5        1 GROUP        1 X    GLC  0     **** GLC X 6
     4 ALP1       38 GROUP        1 Y    ALP  0     ROOT ALP Y 8
     5 SEP2       35 GROUP        1 Y    SEP  0     **** SEP Y 9
     6 GLP5        3 GROUP        1 Y    GLP  0     **** GLP Y 13
     7 ALL1       37 GROUP        1 Z    ALL  0     ROOT ALL Z 15
     8 SEL2       34 GROUP        1 Z    SEL  0     **** SEL Z 16
     9 GLL5        2 GROUP        1 Z    GLL  0     **** GLL Z 20
@<TRIPOS>SET

