#    Name: 1eyq_NAR_1_ligand
#    Modification time : Tue Mar 25 00:24:18 2014

@<TRIPOS>MOLECULE
1eyq_NAR_1_ligand
   31    33     1     0     0
SMALL
NO_CHARGES


@<TRIPOS>ATOM
      1 C1         27.4870   19.8260   34.7710 C.ar      1 NAR501      0.0000 
      2 C2         26.9340   18.8600   35.8070 C.ar      1 NAR501      0.0000 
      3 C3         25.6030   18.8720   36.0770 C.ar      1 NAR501      0.0000 
      4 C4         24.6400   19.8290   35.3820 C.ar      1 NAR501      0.0000 
      5 C5         25.1660   20.6810   34.4540 C.ar      1 NAR501      0.0000 
      6 C6         26.6860   20.7010   34.1140 C.ar      1 NAR501      0.0000 
      7 C7         24.2640   21.6920   33.6830 C.2       1 NAR501      0.0000 
      8 C8         25.0450   22.6680   32.8190 C.3       1 NAR501      0.0000 
      9 C9         26.2890   22.0400   32.2240 C.3       1 NAR501      0.0000 
     10 O1         27.1850   21.5640   33.1860 O.3       1 NAR501      0.0000 
     11 O2         23.0580   21.7040   33.7500 O.2       1 NAR501      0.0000 
     12 C10        26.9710   23.0310   31.3180 C.ar      1 NAR501      0.0000 
     13 C11        27.1220   24.3420   31.6870 C.ar      1 NAR501      0.0000 
     14 C12        27.8160   25.3220   30.7580 C.ar      1 NAR501      0.0000 
     15 C13        28.3010   24.9220   29.5550 C.ar      1 NAR501      0.0000 
     16 C14        28.1340   23.4660   29.1450 C.ar      1 NAR501      0.0000 
     17 C15        27.5160   22.5790   29.9640 C.ar      1 NAR501      0.0000 
     18 O3         28.9150   25.8000   28.7430 O.3       1 NAR501      0.0000 
     19 O4         27.7480   17.9970   36.4440 O.3       1 NAR501      0.0000 
     20 O5         23.3090   19.8170   35.6730 O.co2     1 NAR501      0.0000 
     21 H          28.5000   19.7598   34.6149 H         1 NAR501      0.0000 
     22 H          25.1614   18.2417   36.7621 H         1 NAR501      0.0000 
     23 H          25.3323   23.5352   33.4267 H         1 NAR501      0.0000 
     24 H          24.3981   23.0278   32.0091 H         1 NAR501      0.0000 
     25 H          25.9447   21.2106   31.5710 H         1 NAR501      0.0000 
     26 H          26.7925   24.7217   32.5676 H         1 NAR501      0.0000 
     27 H          27.8844   26.2808   31.1065 H         1 NAR501      0.0000 
     28 H          28.5159   23.2249   28.2293 H         1 NAR501      0.0000 
     29 H          27.3778   21.5964   29.7457 H         1 NAR501      0.0000 
     30 H          29.4924   26.3774   29.3204 H         1 NAR501      0.0000 
     31 H          27.1522   17.4929   37.0692 H         1 NAR501      0.0000 
@<TRIPOS>BOND
     1    2    1 ar   
     2    6    1 ar   
     3   21    1 1    
     4    3    2 ar   
     5   19    2 1    
     6    4    3 ar   
     7   22    3 1    
     8    5    4 ar   
     9   20    4 ar   
    10    6    5 ar   
    11    7    5 1    
    12   10    6 1    
    13    8    7 1    
    14   11    7 2    
    15    9    8 1    
    16   23    8 1    
    17   24    8 1    
    18   10    9 1    
    19   12    9 1    
    20   25    9 1    
    21   13   12 ar   
    22   17   12 ar   
    23   14   13 ar   
    24   26   13 1    
    25   15   14 ar   
    26   27   14 1    
    27   16   15 ar   
    28   18   15 1    
    29   17   16 ar   
    30   28   16 1    
    31   29   17 1    
    32   30   18 1    
    33   31   19 1    
@<TRIPOS>SUBSTRUCTURE
     1 NAR501      1 GROUP   
@<TRIPOS>SET

