#    Name: 1qcf_PP1_1_INTS_M
#    Modification time : Mon Mar 24 23:21:35 2014

@<TRIPOS>MOLECULE
1qcf_PP1_1_INTS_M
   62     0     9     0     0
SMALL
NO_CHARGES


@<TRIPOS>ATOM
      1 CA         28.1345   28.0535   37.7855 C.3       3 GLC5        0.0000 
      2 CA         26.4660   28.9640   36.8630 C.3       9 GLL5        0.0000 
      3 CA         29.8030   27.1430   38.7080 C.3       6 GLP5        0.0000 
      4 CA         24.9420   28.8420   35.5125 C.3       3 GLC5        0.0000 
      5 CA         23.4180   28.7200   34.1620 C.3       6 GLP5        0.0000 
      6 CA         24.7565   31.4910   38.1195 C.3       3 GLC5        0.0000 
      7 CA         26.2270   30.4170   38.7760 C.3       9 GLL5        0.0000 
      8 CA         23.2860   32.5650   37.4630 C.3       6 GLP5        0.0000 
      9 N          24.9755   27.4235   36.1135 N.am      2 SEC2        0.0000 
     10 N          25.4280   28.1830   37.3360 N.am      8 SEL2        0.0000 
     11 N          24.5230   26.6640   34.8910 N.am      5 SEP2        0.0000 
     12 O          23.1425   26.4710   38.4015 O.2       1 ALC1        0.0000 
     13 O          23.7760   27.7240   38.9450 O.2       7 ALL1        0.0000 
     14 O          22.5090   25.2180   37.8580 O.2       4 ALP1        0.0000 
     15 CA         24.7690   27.0265   41.0665 C.3       3 GLC5        0.0000 
     16 CA         23.7840   28.6450   42.1270 C.3       9 GLL5        0.0000 
     17 CA         25.7540   25.4080   40.0060 C.3       6 GLP5        0.0000 
     18 CA         22.3940   29.8355   45.7630 C.3       3 GLC5        0.0000 
     19 CA         20.8820   28.9100   44.5720 C.3       9 GLL5        0.0000 
     20 CA         23.9060   30.7610   46.9540 C.3       6 GLP5        0.0000 
     21 CA         20.5035   27.5320   45.7155 C.3       3 GLC5        0.0000 
     22 CA         20.1250   26.1540   46.8590 C.3       6 GLP5        0.0000 
     23 CA         27.2660   32.1910   42.1245 C.3       3 GLC5        0.0000 
     24 CA         27.1890   33.7010   40.5090 C.3       9 GLL5        0.0000 
     25 CA         27.3430   30.6810   43.7400 C.3       6 GLP5        0.0000 
     26 CA         27.1100   32.9995   36.1905 C.3       3 GLC5        0.0000 
     27 CA         27.1830   33.2930   38.1110 C.3       9 GLL5        0.0000 
     28 CA         27.0370   32.7060   34.2700 C.3       6 GLP5        0.0000 
     29 CA         26.2700   34.9255   37.4005 C.3       3 GLC5        0.0000 
     30 CA         25.3570   36.5580   36.6900 C.3       6 GLP5        0.0000 
     31 CA         25.2345   32.9290   37.7870 C.3       3 GLC5        0.0000 
     32 CA         30.0165   30.6275   39.4880 C.3       3 GLC5        0.0000 
     33 CA         28.8370   32.1700   39.5350 C.3       9 GLL5        0.0000 
     34 CA         31.1960   29.0850   39.4410 C.3       6 GLP5        0.0000 
     35 CA         30.3595   32.5195   40.6440 C.3       3 GLC5        0.0000 
     36 CA         31.8820   32.8690   41.7530 C.3       6 GLP5        0.0000 
     37 CA         28.6460   31.0230   41.3030 C.3       3 GLC5        0.0000 
     38 CA         28.4550   29.8760   43.0710 C.3       6 GLP5        0.0000 
     39 CA         26.7777   29.4522   40.5533 C.3       3 GLC5        0.0000 
     40 CA         27.8490   28.8800   42.0900 C.3       6 GLP5        0.0000 
     41 CA         25.3708   27.2385   39.4475 C.3       3 GLC5        0.0000 
     42 CA         25.1860   29.6320   39.2570 C.3       9 GLL5        0.0000 
     43 CA         23.4738   29.7700   38.3155 C.3       3 GLC5        0.0000 
     44 CA         24.7890   28.5060   38.5210 C.3       9 GLL5        0.0000 
     45 CA         21.9600   30.4710   37.7420 C.3       6 GLP5        0.0000 
     46 CA         25.8080   29.0757   41.9480 C.3       3 GLC5        0.0000 
     47 CA         23.7500   29.8980   41.4850 C.3       9 GLL5        0.0000 
     48 CA         23.7233   30.9230   43.6540 C.3       3 GLC5        0.0000 
     49 CA         24.1870   31.4740   45.6420 C.3       6 GLP5        0.0000 
     50 CA         22.6097   30.4215   39.7040 C.3       3 GLC5        0.0000 
     51 CA         22.7690   30.8460   41.8470 C.3       9 GLL5        0.0000 
     52 CA         24.0420   28.4555   44.4688 C.3       3 GLC5        0.0000 
     53 CA         24.7660   28.4230   46.3120 C.3       6 GLP5        0.0000 
     54 CA         21.8415   27.1700   42.5828 C.3       3 GLC5        0.0000 
     55 CA         22.8520   28.3310   43.1240 C.3       9 GLL5        0.0000 
     56 CA         20.3650   25.8520   42.5400 C.3       6 GLP5        0.0000 
     57 CA         23.0190   30.6850   44.4087 C.3       3 GLC5        0.0000 
     58 CA         21.8750   29.2650   43.4940 C.3       9 GLL5        0.0000 
     59 CA         20.8717   27.4698   43.2865 C.3       3 GLC5        0.0000 
     60 CA         20.8835   31.4723   41.2805 C.3       3 GLC5        0.0000 
     61 CA         21.8270   30.5270   42.8570 C.3       9 GLL5        0.0000 
     62 CA         19.4690   32.2580   40.2090 C.3       6 GLP5        0.0000 
@<TRIPOS>BOND
@<TRIPOS>SUBSTRUCTURE
     1 ALC1       12 GROUP        1 X    ALC  0     ROOT ALC X 1
     2 SEC2        9 GROUP        1 X    SEC  0     **** SEC X 2
     3 GLC5        1 GROUP        1 X    GLC  0     **** GLC X 6
     4 ALP1       14 GROUP        1 Y    ALP  0     ROOT ALP Y 8
     5 SEP2       11 GROUP        1 Y    SEP  0     **** SEP Y 9
     6 GLP5        3 GROUP        1 Y    GLP  0     **** GLP Y 13
     7 ALL1       13 GROUP        1 Z    ALL  0     ROOT ALL Z 15
     8 SEL2       10 GROUP        1 Z    SEL  0     **** SEL Z 16
     9 GLL5        2 GROUP        1 Z    GLL  0     **** GLL Z 20
@<TRIPOS>SET

