#    Name: 1qcf_PP1_1_ligand
#    Modification time : Mon Mar 24 23:21:35 2014

@<TRIPOS>MOLECULE
1qcf_PP1_1_ligand
   40    42     1     0     0
SMALL
NO_CHARGES


@<TRIPOS>ATOM
      1 N1         26.4280   31.4610   39.6680 N.pl3     1 PP1532      0.0000 
      2 C2         26.4660   28.9640   36.8630 C.ar      1 PP1532      0.0000 
      3 N3         26.8600   30.0840   37.5840 N.ar      1 PP1532      0.0000 
      4 C4         26.2270   30.4170   38.7760 C.ar      1 PP1532      0.0000 
      5 C5         25.1860   29.6320   39.2570 C.ar      1 PP1532      0.0000 
      6 C6         24.7890   28.5060   38.5210 C.ar      1 PP1532      0.0000 
      7 N7         25.4280   28.1830   37.3360 N.ar      1 PP1532      0.0000 
      8 N8         25.5200   31.3110   40.6990 N.2       1 PP1532      0.0000 
      9 C9         24.7540   30.1870   40.4540 C.2       1 PP1532      0.0000 
     10 N10        23.7760   27.7240   38.9450 N.pl3     1 PP1532      0.0000 
     11 C11        23.7500   29.8980   41.4850 C.ar      1 PP1532      0.0000 
     12 C12        23.7840   28.6450   42.1270 C.ar      1 PP1532      0.0000 
     13 C13        22.8520   28.3310   43.1240 C.ar      1 PP1532      0.0000 
     14 C14        21.8750   29.2650   43.4940 C.ar      1 PP1532      0.0000 
     15 C15        21.8270   30.5270   42.8570 C.ar      1 PP1532      0.0000 
     16 C16        22.7690   30.8460   41.8470 C.ar      1 PP1532      0.0000 
     17 C24        20.8820   28.9100   44.5720 C.3       1 PP1532      0.0000 
     18 C28        27.3650   32.5990   39.4610 C.3       1 PP1532      0.0000 
     19 C29        27.1890   33.7010   40.5090 C.3       1 PP1532      0.0000 
     20 C33        27.1830   33.2930   38.1110 C.3       1 PP1532      0.0000 
     21 C37        28.8370   32.1700   39.5350 C.3       1 PP1532      0.0000 
     22 H          26.9428   28.7212   35.9879 H         1 PP1532      0.0000 
     23 H          23.5920   26.9073   38.3981 H         1 PP1532      0.0000 
     24 H          23.2988   28.0302   39.7687 H         1 PP1532      0.0000 
     25 H          24.4996   27.9581   41.8593 H         1 PP1532      0.0000 
     26 H          22.8842   27.4149   43.5850 H         1 PP1532      0.0000 
     27 H          21.1161   31.2074   43.1231 H         1 PP1532      0.0000 
     28 H          22.7359   31.7531   41.3877 H         1 PP1532      0.0000 
     29 H          21.3340   28.7017   45.4393 H         1 PP1532      0.0000 
     30 H          20.2413   29.6574   44.7475 H         1 PP1532      0.0000 
     31 H          20.3370   28.1086   44.3256 H         1 PP1532      0.0000 
     32 H          27.3476   33.3608   41.4359 H         1 PP1532      0.0000 
     33 H          27.8252   34.4584   40.3619 H         1 PP1532      0.0000 
     34 H          26.2662   34.0858   40.4919 H         1 PP1532      0.0000 
     35 H          27.8253   34.0504   37.9932 H         1 PP1532      0.0000 
     36 H          27.3284   32.6639   37.3474 H         1 PP1532      0.0000 
     37 H          26.2627   33.6705   38.0086 H         1 PP1532      0.0000 
     38 H          29.4564   32.9418   39.3917 H         1 PP1532      0.0000 
     39 H          29.0640   31.7733   40.4244 H         1 PP1532      0.0000 
     40 H          29.0590   31.4835   38.8426 H         1 PP1532      0.0000 
@<TRIPOS>BOND
     1    4    1 1    
     2    8    1 1    
     3   18    1 1    
     4    3    2 ar   
     5    7    2 ar   
     6   22    2 1    
     7    4    3 ar   
     8    5    4 ar   
     9    6    5 ar   
    10    9    5 1    
    11    7    6 ar   
    12   10    6 1    
    13    9    8 2    
    14   11    9 1    
    15   23   10 1    
    16   24   10 1    
    17   12   11 ar   
    18   16   11 ar   
    19   13   12 ar   
    20   25   12 1    
    21   14   13 ar   
    22   26   13 1    
    23   15   14 ar   
    24   17   14 1    
    25   16   15 ar   
    26   27   15 1    
    27   28   16 1    
    28   29   17 1    
    29   30   17 1    
    30   31   17 1    
    31   19   18 1    
    32   20   18 1    
    33   21   18 1    
    34   32   19 1    
    35   33   19 1    
    36   34   19 1    
    37   35   20 1    
    38   36   20 1    
    39   37   20 1    
    40   38   21 1    
    41   39   21 1    
    42   40   21 1    
@<TRIPOS>SUBSTRUCTURE
     1 PP1532      1 GROUP   
@<TRIPOS>SET

