#    Name: 2xnb_Y8L_1_INTS_M
#    Modification time : Tue Mar 25 06:24:08 2014

@<TRIPOS>MOLECULE
2xnb_Y8L_1_INTS_M
   66     0     9     0     0
SMALL
NO_CHARGES


@<TRIPOS>ATOM
      1 O          23.7005   24.1770   28.2555 O.2       1 ALC1        0.0000 
      2 O          21.9990   24.5490   28.2820 O.2       7 ALL1        0.0000 
      3 O          25.4020   23.8050   28.2290 O.2       4 ALP1        0.0000 
      4 CA         22.1075   26.7760   25.7660 C.3       3 GLC5        0.0000 
      5 CA         23.3890   26.4280   27.5660 C.3       9 GLL5        0.0000 
      6 CA         20.8260   27.1240   23.9660 C.3       6 GLP5        0.0000 
      7 CA         24.9745   27.7230   29.2285 C.3       3 GLC5        0.0000 
      8 CA         23.8190   27.7550   27.7100 C.3       9 GLL5        0.0000 
      9 CA         26.1300   27.6910   30.7470 C.3       6 GLP5        0.0000 
     10 CA         24.3005   27.8240   30.2040 C.3       3 GLC5        0.0000 
     11 CA         22.4710   27.9570   29.6610 C.3       9 GLL5        0.0000 
     12 CA         25.4860   29.0600   29.6095 C.3       3 GLC5        0.0000 
     13 CA         24.8420   30.4290   28.4720 C.3       9 GLL5        0.0000 
     14 CA         26.5455   30.8790   29.4850 C.3       3 GLC5        0.0000 
     15 CA         28.2490   31.3290   30.4980 C.3       6 GLP5        0.0000 
     16 CA         23.7220   30.1750   26.9340 C.3       3 GLC5        0.0000 
     17 CA         22.6020   29.9210   25.3960 C.3       6 GLP5        0.0000 
     18 N          23.9045   32.6420   29.4875 N.am      2 SEC2        0.0000 
     19 N          24.9300   31.7550   28.6910 N.am      8 SEL2        0.0000 
     20 N          22.8790   33.5290   30.2840 N.am      5 SEP2        0.0000 
     21 CA         25.3695   33.2285   29.9955 C.3       3 GLC5        0.0000 
     22 CA         25.9450   32.4780   28.2440 C.3       9 GLL5        0.0000 
     23 CA         24.7940   33.9790   31.7470 C.3       6 GLP5        0.0000 
     24 CA         24.4940   34.1015   27.8855 C.3       3 GLC5        0.0000 
     25 CA         23.0430   35.7250   27.5270 C.3       6 GLP5        0.0000 
     26 CA         24.5195   31.9040   26.6130 C.3       3 GLC5        0.0000 
     27 CA         23.0940   31.3300   24.9820 C.3       6 GLP5        0.0000 
     28 CA         24.9795   30.9155   26.1200 C.3       3 GLC5        0.0000 
     29 CA         26.8650   30.5010   27.2580 C.3       9 GLL5        0.0000 
     30 CA         29.6785   29.3680   27.3635 C.3       3 GLC5        0.0000 
     31 CA         29.2070   30.6630   25.7370 C.3       9 GLL5        0.0000 
     32 CA         30.1500   28.0730   28.9900 C.3       6 GLP5        0.0000 
     33 CA         30.3240   31.9510   26.6085 C.3       3 GLC5        0.0000 
     34 CA         31.4410   33.2390   27.4800 C.3       6 GLP5        0.0000 
     35 CA         28.0205   31.6495   24.1955 C.3       3 GLC5        0.0000 
     36 CA         26.8340   32.6360   22.6540 C.3       6 GLP5        0.0000 
     37 N          31.9775   28.9035   23.6635 N.am      2 SEC2        0.0000 
     38 N          30.6760   29.1880   24.1620 N.am      8 SEL2        0.0000 
     39 N          33.2790   28.6190   23.1650 N.am      5 SEP2        0.0000 
     40 CA         30.6205   26.1495   23.7120 C.3       3 GLC5        0.0000 
     41 CA         29.0250   26.9260   24.5410 C.3       9 GLL5        0.0000 
     42 CA         32.2160   25.3730   22.8830 C.3       6 GLP5        0.0000 
     43 CA         30.0195   26.8245   25.7730 C.3       3 GLC5        0.0000 
     44 CA         31.0140   26.7230   27.0050 C.3       6 GLP5        0.0000 
     45 CA         29.4255   27.6475   26.4900 C.3       3 GLC5        0.0000 
     46 CA         27.8370   28.5720   25.9750 C.3       9 GLL5        0.0000 
     47 CA         26.7265   26.9065   28.4335 C.3       3 GLC5        0.0000 
     48 CA         26.8040   27.5160   26.3780 C.3       9 GLL5        0.0000 
     49 CA         26.6490   26.2970   30.4890 C.3       6 GLP5        0.0000 
     50 CA         28.6130   27.0660   27.4065 C.3       3 GLC5        0.0000 
     51 CA         30.4220   26.6160   28.4350 C.3       6 GLP5        0.0000 
     52 CA         23.1030   28.5063   26.5170 C.3       3 GLC5        0.0000 
     53 CA         24.0156   25.8179   29.7644 C.3       3 GLC5        0.0000 
     54 CA         25.5620   25.2400   30.7640 C.3       6 GLP5        0.0000 
     55 CA         20.5310   28.0145   28.8227 C.3       3 GLC5        0.0000 
     56 CA         22.0090   26.6430   29.5180 C.3       9 GLL5        0.0000 
     57 CA         18.8220   28.7290   28.0560 C.3       6 GLP5        0.0000 
     58 CA         27.3473   31.7520   29.1863 C.3       3 GLC5        0.0000 
     59 CA         26.8178   33.9715   26.9597 C.3       3 GLC5        0.0000 
     60 CA         26.9460   31.8720   27.5050 C.3       9 GLL5        0.0000 
     61 CA         27.1900   35.7680   26.0450 C.3       6 GLP5        0.0000 
     62 CA         28.0983   33.4985   28.1857 C.3       3 GLC5        0.0000 
     63 CA         29.7510   34.8220   28.4970 C.3       6 GLP5        0.0000 
     64 CA         28.7505   29.1360   27.9202 C.3       3 GLC5        0.0000 
     65 CA         27.8000   30.7640   28.6743 C.3       3 GLC5        0.0000 
     66 CA         27.8370   29.8970   26.4430 C.3       9 GLL5        0.0000 
@<TRIPOS>BOND
@<TRIPOS>SUBSTRUCTURE
     1 ALC1        1 GROUP        1 X    ALC  0     ROOT ALC X 1
     2 SEC2       18 GROUP        1 X    SEC  0     **** SEC X 2
     3 GLC5        4 GROUP        1 X    GLC  0     **** GLC X 6
     4 ALP1        3 GROUP        1 Y    ALP  0     ROOT ALP Y 8
     5 SEP2       20 GROUP        1 Y    SEP  0     **** SEP Y 9
     6 GLP5        6 GROUP        1 Y    GLP  0     **** GLP Y 13
     7 ALL1        2 GROUP        1 Z    ALL  0     ROOT ALL Z 15
     8 SEL2       19 GROUP        1 Z    SEL  0     **** SEL Z 16
     9 GLL5        5 GROUP        1 Z    GLL  0     **** GLL Z 20
@<TRIPOS>SET

