#    Name: 2xnb_Y8L_1_ligand
#    Modification time : Tue Mar 25 06:24:08 2014

@<TRIPOS>MOLECULE
2xnb_Y8L_1_ligand
   49    52     1     0     0
SMALL
NO_CHARGES


@<TRIPOS>ATOM
      1 C17        21.0300   24.0090   29.2560 C.3       1 Y8L1299     0.0000 
      2 C18        20.8700   22.4770   29.2510 C.3       1 Y8L1299     0.0000 
      3 N19        21.7240   21.8210   28.2490 N.3       1 Y8L1299     0.0000 
      4 C20        21.5470   22.5040   26.9750 C.3       1 Y8L1299     0.0000 
      5 C21        22.3130   23.8260   27.0370 C.3       1 Y8L1299     0.0000 
      6 N16        21.9990   24.5490   28.2820 N.4       1 Y8L1299     0.0000 
      7 C12        22.4700   25.8690   28.4570 C.2       1 Y8L1299     0.0000 
      8 C13        23.3890   26.4280   27.5660 C.2       1 Y8L1299     0.0000 
      9 C14        23.8190   27.7550   27.7100 C.3       1 Y8L1299     0.0000 
     10 C11        22.0090   26.6430   29.5180 C.2       1 Y8L1299     0.0000 
     11 C10        22.4710   27.9570   29.6610 C.2       1 Y8L1299     0.0000 
     12 C9         23.3580   28.5430   28.7540 C.2       1 Y8L1299     0.0000 
     13 N7         23.7530   29.8120   28.9680 N.2       1 Y8L1299     0.0000 
     14 C4         24.8420   30.4290   28.4720 C.ar      1 Y8L1299     0.0000 
     15 N5         25.7860   29.8320   27.7130 N.ar      1 Y8L1299     0.0000 
     16 N3         24.9300   31.7550   28.6910 N.ar      1 Y8L1299     0.0000 
     17 C2         25.9450   32.4780   28.2440 C.ar      1 Y8L1299     0.0000 
     18 C1         26.9460   31.8720   27.5050 C.ar      1 Y8L1299     0.0000 
     19 C6         26.8650   30.5010   27.2580 C.ar      1 Y8L1299     0.0000 
     20 C15        27.8370   29.8970   26.4430 C.2       1 Y8L1299     0.0000 
     21 S23        29.2070   30.6630   25.7370 S.3       1 Y8L1299     0.0000 
     22 C24        29.6770   29.2860   24.8710 C.2       1 Y8L1299     0.0000 
     23 O28        30.6760   29.1880   24.1620 O.2       1 Y8L1299     0.0000 
     24 N25        28.8420   28.2790   25.1390 N.am      1 Y8L1299     0.0000 
     25 C29        29.0250   26.9260   24.5410 C.3       1 Y8L1299     0.0000 
     26 C26        27.8370   28.5720   25.9750 C.2       1 Y8L1299     0.0000 
     27 C27        26.8040   27.5160   26.3780 C.3       1 Y8L1299     0.0000 
     28 H          21.3141   24.3146   30.2885 H         1 Y8L1299     0.0000 
     29 H          20.0239   24.4533   29.0818 H         1 Y8L1299     0.0000 
     30 H          19.8082   22.2489   29.0646 H         1 Y8L1299     0.0000 
     31 H          21.1065   22.1094   30.2625 H         1 Y8L1299     0.0000 
     32 H          20.5009   22.7238   26.7876 H         1 Y8L1299     0.0000 
     33 H          21.9455   21.9165   26.1541 H         1 Y8L1299     0.0000 
     34 H          22.0382   24.4251   26.1641 H         1 Y8L1299     0.0000 
     35 H          23.3832   23.6076   26.9780 H         1 Y8L1299     0.0000 
     36 H          23.0826   23.9916   28.9575 H         1 Y8L1299     0.0000 
     37 H          23.7587   25.8577   26.7890 H         1 Y8L1299     0.0000 
     38 H          23.6311   28.3110   26.7068 H         1 Y8L1299     0.0000 
     39 H          24.9812   27.7640   27.7158 H         1 Y8L1299     0.0000 
     40 H          21.3396   26.2593   30.1883 H         1 Y8L1299     0.0000 
     41 H          22.1401   28.5185   30.4753 H         1 Y8L1299     0.0000 
     42 H          26.0147   33.4973   28.4325 H         1 Y8L1299     0.0000 
     43 H          27.7322   32.4140   27.1445 H         1 Y8L1299     0.0000 
     44 H          29.9046   26.5236   24.7948 H         1 Y8L1299     0.0000 
     45 H          28.3143   26.2889   24.8393 H         1 Y8L1299     0.0000 
     46 H          28.9929   26.9541   23.5419 H         1 Y8L1299     0.0000 
     47 H          26.9791   26.6370   25.9345 H         1 Y8L1299     0.0000 
     48 H          26.8059   27.3521   27.3645 H         1 Y8L1299     0.0000 
     49 H          25.8754   27.7905   26.1283 H         1 Y8L1299     0.0000 
@<TRIPOS>BOND
     1    2    1 1    
     2    6    1 1    
     3   28    1 1    
     4   29    1 1    
     5    3    2 1    
     6   30    2 1    
     7   31    2 1    
     8    4    3 1    
     9    5    4 1    
    10   32    4 1    
    11   33    4 1    
    12    6    5 1    
    13   34    5 1    
    14   35    5 1    
    15    7    6 1    
    16   36    6 1    
    17    8    7 2    
    18   10    7 1    
    19    9    8 1    
    20   37    8 1    
    21   12    9 1    
    22   38    9 1    
    23   39    9 1    
    24   11   10 2    
    25   40   10 1    
    26   12   11 1    
    27   41   11 1    
    28   13   12 2    
    29   14   13 1    
    30   15   14 ar   
    31   16   14 ar   
    32   19   15 ar   
    33   17   16 ar   
    34   18   17 ar   
    35   42   17 1    
    36   19   18 ar   
    37   43   18 1    
    38   20   19 1    
    39   21   20 1    
    40   26   20 2    
    41   22   21 1    
    42   23   22 2    
    43   24   22 am   
    44   25   24 1    
    45   26   24 1    
    46   44   25 1    
    47   45   25 1    
    48   46   25 1    
    49   27   26 1    
    50   47   27 1    
    51   48   27 1    
    52   49   27 1    
@<TRIPOS>SUBSTRUCTURE
     1 Y8L1299     1 GROUP   
@<TRIPOS>SET

