#    Name: 3MAG_2_CAVITY_N1_6.mol2
#    Modification time : Tue Mar 11 13:11:36 2014

@<TRIPOS>MOLECULE
3MAG_2_CAVITY_N1_6.mol2
   60     0     7     0     0
SMALL
NO_CHARGES


@<TRIPOS>ATOM
      1 CZ         20.3198   11.6134   20.8757 C.ar      5 PHE5        0.0000 
      2 CZ         18.9611   12.2430   20.9620 C.ar      5 PHE5        0.0000 
      3 CZ         19.2539   13.0439   19.7280 C.ar      5 PHE5        0.0000 
      4 CZ         18.3970   11.1421   20.1136 C.ar      5 PHE5        0.0000 
      5 CZ         18.6898   11.9430   18.8796 C.ar      5 PHE5        0.0000 
      6 CZ         18.4592   14.7745   20.6626 C.ar      5 PHE5        0.0000 
      7 NZ         18.7520   15.5754   19.4286 N.2       4 LYS4        0.0000 
      8 OG         17.3096   12.0717   22.2823 O.2       1 SER1        0.0000 
      9 OG         17.6024   12.8726   21.0483 O.2       1 SER1        0.0000 
     10 CZ         17.8951   13.6736   19.8142 C.ar      5 PHE5        0.0000 
     11 CA         16.4934   13.3014   26.5334 C.3       6 GLY6        0.0000 
     12 OG         16.7862   14.1023   25.2994 O.2       1 SER1        0.0000 
     13 CZ         17.0790   14.9033   24.0653 C.ar      5 PHE5        0.0000 
     14 CZ         17.6645   16.5051   21.5973 C.ar      5 PHE5        0.0000 
     15 CA         17.9573   17.3060   20.3633 C.3       6 GLY6        0.0000 
     16 CA         15.6366   11.3995   26.9190 C.3       6 GLY6        0.0000 
     17 CA         15.9294   12.2005   25.6850 C.3       6 GLY6        0.0000 
     18 OG         16.2221   13.0014   24.4510 O.2       1 SER1        0.0000 
     19 OG         16.5149   13.8023   23.2170 O.2       1 SER1        0.0000 
     20 CZ         16.8077   14.6032   21.9829 C.ar      5 PHE5        0.0000 
     21 CZ         17.1005   15.4041   20.7489 C.ar      5 PHE5        0.0000 
     22 CA         17.3932   16.2051   19.5149 C.3       6 GLY6        0.0000 
     23 DU         15.6581   11.9004   23.6026 H         7 CUB7        0.0000 
     24 CZ         15.9509   12.7013   22.3686 C.ar      5 PHE5        0.0000 
     25 CZ         16.2436   13.5023   21.1346 C.ar      5 PHE5        0.0000 
     26 CZ         16.8699   18.2357   22.5319 C.ar      5 PHE5        0.0000 
     27 N          17.1626   19.0366   21.2979 N.2       2 ALA2        0.0000 
     28 CA         14.8419   13.1301   27.8537 C.3       6 GLY6        0.0000 
     29 CA         15.1347   13.9310   26.6197 C.3       6 GLY6        0.0000 
     30 N          15.4275   14.7320   25.3856 N.2       2 ALA2        0.0000 
     31 N          16.0130   16.3338   22.9176 N.2       2 ALA2        0.0000 
     32 N          16.3058   17.1347   21.6836 N.2       2 ALA2        0.0000 
     33 N          16.5986   17.9356   20.4495 N.2       2 ALA2        0.0000 
     34 DU         14.2779   12.0292   27.0053 H         7 CUB7        0.0000 
     35 DU         14.5707   12.8301   25.7713 H         7 CUB7        0.0000 
     36 N          14.8634   13.6310   24.5373 N.2       2 ALA2        0.0000 
     37 N          15.1562   14.4319   23.3032 N.2       2 ALA2        0.0000 
     38 N          15.4490   15.2328   22.0692 N.2       2 ALA2        0.0000 
     39 CZ         15.7418   16.0338   20.8352 C.ar      5 PHE5        0.0000 
     40 CZ         16.0345   16.8347   19.6012 C.ar      5 PHE5        0.0000 
     41 CA         16.3273   17.6356   18.3672 C.3       6 GLY6        0.0000 
     42 DU         14.2994   12.5301   23.6889 H         7 CUB7        0.0000 
     43 CZ         14.5921   13.3310   22.4549 C.ar      5 PHE5        0.0000 
     44 OD1        13.4832   13.7598   27.9400 O.3       3 ASP3        0.0000 
     45 CA         13.7760   14.5607   26.7060 C.3       6 GLY6        0.0000 
     46 CA         14.9471   17.7643   21.7699 C.3       6 GLY6        0.0000 
     47 CA         15.2399   18.5653   20.5358 C.3       6 GLY6        0.0000 
     48 DU         12.9192   12.6588   27.0916 H         7 CUB7        0.0000 
     49 N          13.2119   13.4597   25.8576 N.2       2 ALA2        0.0000 
     50 N          13.5047   14.2606   24.6236 N.2       2 ALA2        0.0000 
     51 N          14.0903   15.8625   22.1555 N.2       2 ALA2        0.0000 
     52 CA         14.9686   18.2652   18.4534 C.3       6 GLY6        0.0000 
     53 DU         12.6479   12.3588   25.0092 H         7 CUB7        0.0000 
     54 DU         12.9406   13.1597   23.7752 H         7 CUB7        0.0000 
     55 CZ         13.2334   13.9606   22.5412 C.ar      5 PHE5        0.0000 
     56 CZ         13.5262   14.7615   21.3071 C.ar      5 PHE5        0.0000 
     57 CZ         12.6694   12.8596   21.6928 C.ar      5 PHE5        0.0000 
     58 CA         11.8532   14.0893   25.9439 C.3       6 GLY6        0.0000 
     59 DU         11.2892   12.9884   25.0955 H         7 CUB7        0.0000 
     60 OD1        11.8747   14.5902   22.6274 O.3       3 ASP3        0.0000 
@<TRIPOS>BOND
@<TRIPOS>SUBSTRUCTURE
     1 SER1        8 GROUP   
     2 ALA2       27 GROUP   
     3 ASP3       44 GROUP   
     4 LYS4        7 GROUP   
     5 PHE5        1 GROUP   
     6 GLY6       11 GROUP   
     7 CUB7       23 GROUP   
@<TRIPOS>SET

