#    Name: 3mag_3MA_2_INTS_M
#    Modification time : Mon Mar 24 22:53:43 2014

@<TRIPOS>MOLECULE
3mag_3MA_2_INTS_M
    9     0     6     0     0
SMALL
NO_CHARGES


@<TRIPOS>ATOM
      1 CA         15.4245   11.5045   21.1215 C.3       2 GLC5        0.0000 
      2 CA         15.9830   11.3630   23.0630 C.3       6 GLL5        0.0000 
      3 CA         14.8660   11.6460   19.1800 C.3       4 GLP5        0.0000 
      4 CA         17.8160   12.5020   18.0120 C.3       2 GLC5        0.0000 
      5 CA         18.6270   12.4840   19.8580 C.3       6 GLL5        0.0000 
      6 CA         17.0050   12.5200   16.1660 C.3       4 GLP5        0.0000 
      7 O          19.7065   12.0820   17.2950 O.2       1 ALC1        0.0000 
      8 O          19.4260   12.7090   18.8290 O.2       5 ALL1        0.0000 
      9 O          19.9870   11.4550   15.7610 O.2       3 ALP1        0.0000 
@<TRIPOS>BOND
@<TRIPOS>SUBSTRUCTURE
     1 ALC1        7 GROUP        1 X    ALC  0     ROOT ALC X 1
     2 GLC5        1 GROUP        1 X    GLC  0     **** GLC X 6
     3 ALP1        9 GROUP        1 Y    ALP  0     ROOT ALP Y 8
     4 GLP5        3 GROUP        1 Y    GLP  0     **** GLP Y 13
     5 ALL1        8 GROUP        1 Z    ALL  0     ROOT ALL Z 15
     6 GLL5        2 GROUP        1 Z    GLL  0     **** GLL Z 20
@<TRIPOS>SET

