#    Name: 3mag_3MA_2_ligand
#    Modification time : Mon Mar 24 22:53:43 2014

@<TRIPOS>MOLECULE
3mag_3MA_2_ligand
   19    20     1     0     0
SMALL
NO_CHARGES


@<TRIPOS>ATOM
      1 N9         16.5870   14.2580   22.1700 N.pl3     1 3MA600      0.0000 
      2 C4         17.1230   13.1000   21.6220 C.ar      1 3MA600      0.0000 
      3 N3         16.8770   11.8110   22.0090 N.pl3     1 3MA600      0.0000 
      4 CN3        15.9830   11.3630   23.0630 C.3       1 3MA600      0.0000 
      5 C2         17.5900   10.9680   21.2410 C.ar      1 3MA600      0.0000 
      6 N1         18.4220   11.2170   20.2240 N.ar      1 3MA600      0.0000 
      7 C6         18.6270   12.4840   19.8580 C.ar      1 3MA600      0.0000 
      8 N6         19.4260   12.7090   18.8290 N.pl3     1 3MA600      0.0000 
      9 C5         17.9490   13.5030   20.5930 C.ar      1 3MA600      0.0000 
     10 N7         17.9290   14.9000   20.4880 N.2       1 3MA600      0.0000 
     11 C8         17.1130   15.2860   21.4340 C.2       1 3MA600      0.0000 
     12 H          15.9931   14.3119   22.8898 H         1 3MA600      0.0000 
     13 H          17.4656    9.8881   21.4952 H         1 3MA600      0.0000 
     14 H          19.7929   11.8990   18.3714 H         1 3MA600      0.0000 
     15 H          19.5910   13.6687   18.6016 H         1 3MA600      0.0000 
     16 H          16.8726   16.2435   21.6293 H         1 3MA600      0.0000 
     17 H          15.9777   10.3665   23.1469 H         1 3MA600      0.0000 
     18 H          16.2465   11.7309   23.9548 H         1 3MA600      0.0000 
     19 H          15.0392   11.6480   22.8956 H         1 3MA600      0.0000 
@<TRIPOS>BOND
     1    2    1 1    
     2   11    1 1    
     3   12    1 1    
     4    3    2 ar   
     5    9    2 ar   
     6    4    3 1    
     7    5    3 ar   
     8   17    4 1    
     9   18    4 1    
    10   19    4 1    
    11    6    5 ar   
    12   13    5 1    
    13    7    6 ar   
    14    8    7 1    
    15    9    7 ar   
    16   14    8 1    
    17   15    8 1    
    18   10    9 1    
    19   11   10 2    
    20   16   11 1    
@<TRIPOS>SUBSTRUCTURE
     1 3MA600      1 GROUP   
@<TRIPOS>SET

