#    Name: 2qnn_QN1_1_INTS_M
#    Modification time : Mon Mar 24 22:32:03 2014

@<TRIPOS>MOLECULE
2qnn_QN1_1_INTS_M
  105     0    12     0     0
SMALL
NO_CHARGES


@<TRIPOS>ATOM
      1 CA         14.1460  -24.9240  -14.3895 C.3       4 GLC5        0.0000 
      2 CA         15.8320  -24.1530  -13.4220 C.3      12 GLL5        0.0000 
      3 CA         12.4600  -25.6950  -15.3570 C.3       8 GLP5        0.0000 
      4 CA         14.4505  -22.7765  -11.9865 C.3       4 GLC5        0.0000 
      5 CA         14.3730  -21.8360  -13.8250 C.3      12 GLL5        0.0000 
      6 CA         14.5280  -23.7170  -10.1480 C.3       8 GLP5        0.0000 
      7 CA         15.8445  -21.0400  -12.5270 C.3       4 GLC5        0.0000 
      8 CA         17.3160  -20.2440  -11.2290 C.3       8 GLP5        0.0000 
      9 CA         12.4920  -22.7280  -13.3240 C.3       4 GLC5        0.0000 
     10 CA         10.6110  -23.6200  -12.8230 C.3       8 GLP5        0.0000 
     11 CA         11.6905  -21.5200  -13.5940 C.3       4 GLC5        0.0000 
     12 CA         13.6040  -20.6820  -14.0630 C.3      12 GLL5        0.0000 
     13 CA          9.7770  -22.3580  -13.1250 C.3       8 GLP5        0.0000 
     14 CA         12.8325  -16.1705  -19.2790 C.3       4 GLC5        0.0000 
     15 CA         12.7820  -17.6020  -17.8960 C.3      12 GLL5        0.0000 
     16 CA         12.8830  -14.7390  -20.6620 C.3       8 GLP5        0.0000 
     17 CA         12.0790  -15.7320  -17.5725 C.3       4 GLC5        0.0000 
     18 CA         11.3760  -13.8620  -17.2490 C.3       8 GLP5        0.0000 
     19 OD1        14.6685  -16.8375  -18.1935 O.co2     3 ASC3        0.0000 
     20 OD1        14.1300  -18.1670  -18.2000 O.co2    11 ASL3        0.0000 
     21 OD1        15.2070  -15.5080  -18.1870 O.co2     7 ASP3        0.0000 
     22 OD1        14.8105  -17.4660  -17.2930 O.co2     3 ASC3        0.0000 
     23 OD1        15.4910  -16.7650  -16.3860 O.co2     7 ASP3        0.0000 
     24 OD1        14.7755  -17.6675  -19.3310 O.co2     3 ASC3        0.0000 
     25 OD1        15.4210  -17.1680  -20.4620 O.co2     7 ASP3        0.0000 
     26 OD1        13.9115  -18.2725  -19.6645 O.co2     3 ASC3        0.0000 
     27 OD1        13.6930  -18.3780  -21.1290 O.co2     7 ASP3        0.0000 
     28 CA         16.0585  -18.6865  -18.2630 C.3       4 GLC5        0.0000 
     29 CA         14.0500  -19.6200  -18.2230 C.3      12 GLL5        0.0000 
     30 CA         18.0670  -17.7530  -18.3030 C.3       8 GLP5        0.0000 
     31 CA          6.9145  -14.3070  -22.1805 C.3       4 GLC5        0.0000 
     32 CA          7.0570  -16.0210  -20.8730 C.3      12 GLL5        0.0000 
     33 CA          6.7720  -12.5930  -23.4880 C.3       8 GLP5        0.0000 
     34 CA          5.8530  -19.7045  -21.6285 C.3       4 GLC5        0.0000 
     35 CA          5.9840  -17.8300  -21.4720 C.3      12 GLL5        0.0000 
     36 CA          5.7220  -21.5790  -21.7850 C.3       8 GLP5        0.0000 
     37 CA          7.1610  -18.4260  -23.1580 C.3       4 GLC5        0.0000 
     38 CA          8.3380  -19.0220  -24.8440 C.3       8 GLP5        0.0000 
     39 CA         12.4540  -22.4805  -21.5750 C.3       4 GLC5        0.0000 
     40 CA         13.3330  -23.4130  -20.0920 C.3      12 GLL5        0.0000 
     41 CA         11.5750  -21.5480  -23.0580 C.3       8 GLP5        0.0000 
     42 CA         14.4045  -24.9595  -22.3315 C.3       4 GLC5        0.0000 
     43 CA         14.5120  -23.9520  -20.6350 C.3      12 GLL5        0.0000 
     44 CA         14.2970  -25.9670  -24.0280 C.3       8 GLP5        0.0000 
     45 N          18.4230  -24.2225  -22.0830 N.am      2 SEC2        0.0000 
     46 N          17.1470  -24.4690  -21.5110 N.am     10 SEL2        0.0000 
     47 N          19.6990  -23.9760  -22.6550 N.am      6 SEP2        0.0000 
     48 O          18.6120  -26.3275  -20.5420 O.2       1 ALC1        0.0000 
     49 O          17.6640  -25.5970  -19.6980 O.2       9 ALL1        0.0000 
     50 O          19.5600  -27.0580  -21.3860 O.2       5 ALP1        0.0000 
     51 CA         16.6170  -22.4205  -19.4435 C.3       4 GLC5        0.0000 
     52 CA         15.4810  -23.9470  -18.4130 C.3      12 GLL5        0.0000 
     53 CA         17.7530  -20.8940  -20.4740 C.3       8 GLP5        0.0000 
     54 N           9.5620  -23.8535  -18.4915 N.am      2 SEC2        0.0000 
     55 N          10.6580  -22.9630  -18.8910 N.am     10 SEL2        0.0000 
     56 N           8.4660  -24.7440  -18.0920 N.am      6 SEP2        0.0000 
     57 N          11.4465  -23.4165  -15.3455 N.am      2 SEC2        0.0000 
     58 N          11.7310  -22.6690  -16.6410 N.am     10 SEL2        0.0000 
     59 N          11.1620  -24.1640  -14.0500 N.am      6 SEP2        0.0000 
     60 N           7.9815  -12.2120  -14.8660 N.am      2 SEC2        0.0000 
     61 N           6.9750  -13.3560  -14.8400 N.am     10 SEL2        0.0000 
     62 N           8.9880  -11.0680  -14.8920 N.am      6 SEP2        0.0000 
     63 CA          6.4168  -16.9148  -13.8780 C.3       4 GLC5        0.0000 
     64 CA          7.7030  -15.5870  -15.1660 C.3      12 GLL5        0.0000 
     65 CA          5.2650  -17.6100  -12.3220 C.3       8 GLP5        0.0000 
     66 CA         10.7903  -14.9360  -15.2225 C.3       4 GLC5        0.0000 
     67 CA          8.9190  -15.3360  -14.5120 C.3      12 GLL5        0.0000 
     68 CA         12.1860  -14.0250  -15.9720 C.3       8 GLP5        0.0000 
     69 CA          9.8008  -15.4515  -12.6310 C.3       4 GLC5        0.0000 
     70 CA          9.8700  -16.3580  -14.4340 C.3      12 GLL5        0.0000 
     71 CA         10.2070  -15.0560  -10.7890 C.3       8 GLP5        0.0000 
     72 CA          8.5199  -17.1442  -12.9422 C.3       4 GLC5        0.0000 
     73 CA          7.5630  -17.5560  -11.1860 C.3       8 GLP5        0.0000 
     74 CA         17.5678  -19.1958  -14.8102 C.3       4 GLC5        0.0000 
     75 CA         15.5200  -19.6240  -15.0740 C.3      12 GLL5        0.0000 
     76 CA         19.2270  -18.1950  -14.6610 C.3       8 GLP5        0.0000 
     77 CA         16.6122  -20.2203  -13.0942 C.3       4 GLC5        0.0000 
     78 CA         16.2970  -20.7690  -14.8450 C.3      12 GLL5        0.0000 
     79 CA         15.9243  -18.7517  -13.8622 C.3       4 GLC5        0.0000 
     80 CA         15.9400  -17.3070  -12.7650 C.3       8 GLP5        0.0000 
     81 CA         17.0870  -21.4444  -12.4334 C.3       4 GLC5        0.0000 
     82 CA         17.5820  -22.7700  -13.1700 C.3      12 GLL5        0.0000 
     83 CA         15.4900  -23.6357  -11.8225 C.3       4 GLC5        0.0000 
     84 CA         14.8144  -18.5490  -13.5951 C.3       4 GLC5        0.0000 
     85 CA          8.6430  -20.5338  -20.8615 C.3       4 GLC5        0.0000 
     86 CA         10.1870  -19.6400  -19.8400 C.3      12 GLL5        0.0000 
     87 CA          7.1250  -21.9260  -21.3940 C.3       8 GLP5        0.0000 
     88 CA         10.1710  -17.2000  -22.2018 C.3       4 GLC5        0.0000 
     89 CA         10.1350  -18.6430  -20.8180 C.3      12 GLL5        0.0000 
     90 CA         10.7880  -16.1210  -23.4940 C.3       8 GLP5        0.0000 
     91 CA          8.9460  -18.6505  -22.8768 C.3       4 GLC5        0.0000 
     92 CA          8.9730  -17.9150  -21.0010 C.3      12 GLL5        0.0000 
     93 CA         11.0278  -20.4416  -21.6816 C.3       4 GLC5        0.0000 
     94 CA          7.7755  -19.9720  -20.9922 C.3       4 GLC5        0.0000 
     95 CA          7.8333  -21.1500  -18.2903 C.3       4 GLC5        0.0000 
     96 CA          7.9460  -19.0880  -19.1750 C.3      12 GLL5        0.0000 
     97 CA          7.1420  -22.8420  -17.5000 C.3       8 GLP5        0.0000 
     98 CA          7.8247  -20.6920  -20.2372 C.3       4 GLC5        0.0000 
     99 CA          9.1030  -19.8280  -18.9860 C.3      12 GLL5        0.0000 
    100 CA         13.1197  -24.4870  -16.8180 C.3       4 GLC5        0.0000 
    101 CA         13.2540  -23.1460  -18.7230 C.3      12 GLL5        0.0000 
    102 CA         12.7149  -24.8389  -20.4441 C.3       4 GLC5        0.0000 
    103 CA         11.5270  -26.0620  -20.8670 C.3       8 GLP5        0.0000 
    104 CA         15.7539  -22.4674  -20.8419 C.3       4 GLC5        0.0000 
    105 CA         16.7660  -20.9740  -21.6180 C.3       8 GLP5        0.0000 
@<TRIPOS>BOND
@<TRIPOS>SUBSTRUCTURE
     1 ALC1       48 GROUP        1 X    ALC  0     ROOT ALC X 1
     2 SEC2       45 GROUP        1 X    SEC  0     **** SEC X 2
     3 ASC3       19 GROUP        1 X    ASC  0     **** ASC X 3
     4 GLC5        1 GROUP        1 X    GLC  0     **** GLC X 6
     5 ALP1       50 GROUP        1 Y    ALP  0     ROOT ALP Y 8
     6 SEP2       47 GROUP        1 Y    SEP  0     **** SEP Y 9
     7 ASP3       21 GROUP        1 Y    ASP  0     **** ASP Y 10
     8 GLP5        3 GROUP        1 Y    GLP  0     **** GLP Y 13
     9 ALL1       49 GROUP        1 Z    ALL  0     ROOT ALL Z 15
    10 SEL2       46 GROUP        1 Z    SEL  0     **** SEL Z 16
    11 ASL3       20 GROUP        1 Z    ASL  0     **** ASL Z 17
    12 GLL5        2 GROUP        1 Z    GLL  0     **** GLL Z 20
@<TRIPOS>SET

