#    Name: 2qnn_QN1_1_ligand
#    Modification time : Mon Mar 24 22:32:03 2014

@<TRIPOS>MOLECULE
2qnn_QN1_1_ligand
   83    87     1     0     0
SMALL
NO_CHARGES


@<TRIPOS>ATOM
      1 N1          5.4650  -14.7950  -15.7110 N.am      1 QN12501     0.0000 
      2 C8          6.6870  -14.4800  -15.2260 C.2       1 QN12501     0.0000 
      3 C6          7.7030  -15.5870  -15.1660 C.ar      1 QN12501     0.0000 
      4 C2          8.9190  -15.3360  -14.5120 C.ar      1 QN12501     0.0000 
      5 C18         9.8700  -16.3580  -14.4340 C.ar      1 QN12501     0.0000 
      6 C27         9.5590  -17.6180  -14.9240 C.ar      1 QN12501     0.0000 
      7 C20         8.3650  -17.8910  -15.6180 C.ar      1 QN12501     0.0000 
      8 C5          7.4340  -16.8520  -15.7020 C.ar      1 QN12501     0.0000 
      9 S9         10.7120  -18.9050  -14.7960 S.o2      1 QN12501     0.0000 
     10 O40        11.0780  -18.9590  -13.3840 O.2       1 QN12501     0.0000 
     11 O11        10.0950  -20.0770  -15.4220 O.2       1 QN12501     0.0000 
     12 N32        12.1460  -18.5450  -15.6620 N.pl3     1 QN12501     0.0000 
     13 C33        13.3740  -18.2470  -14.9170 C.3       1 QN12501     0.0000 
     14 C34        14.1730  -19.5530  -14.6580 C.ar      1 QN12501     0.0000 
     15 C38        15.5200  -19.6240  -15.0740 C.ar      1 QN12501     0.0000 
     16 C39        16.2970  -20.7690  -14.8450 C.ar      1 QN12501     0.0000 
     17 C37        15.7060  -21.8970  -14.2370 C.ar      1 QN12501     0.0000 
     18 C10        16.5620  -23.1420  -13.9740 C.3       1 QN12501     0.0000 
     19 F6         17.0300  -23.6700  -15.1400 F         1 QN12501     0.0000 
     20 F5         17.5820  -22.7700  -13.1700 F         1 QN12501     0.0000 
     21 F4         15.8320  -24.1530  -13.4220 F         1 QN12501     0.0000 
     22 C36        14.3730  -21.8360  -13.8250 C.ar      1 QN12501     0.0000 
     23 C35        13.6040  -20.6820  -14.0630 C.ar      1 QN12501     0.0000 
     24 C24        12.0200  -18.6950  -17.1220 C.3       1 QN12501     0.0000 
     25 C25        12.7820  -17.6020  -17.8960 C.3       1 QN12501     0.0000 
     26 N22        14.1300  -18.1670  -18.2000 N.4       1 QN12501     0.0000 
     27 C21        14.0500  -19.6200  -18.2230 C.3       1 QN12501     0.0000 
     28 C23        12.7260  -20.0290  -17.5390 C.3       1 QN12501     0.0000 
     29 N28        11.9440  -20.8450  -18.4430 N.pl3     1 QN12501     0.0000 
     30 C7         11.4650  -20.4150  -19.7450 C.3       1 QN12501     0.0000 
     31 C12        10.1870  -19.6400  -19.8400 C.ar      1 QN12501     0.0000 
     32 C14        10.1350  -18.6430  -20.8180 C.ar      1 QN12501     0.0000 
     33 C30         8.9730  -17.9150  -21.0010 C.ar      1 QN12501     0.0000 
     34 C31         7.8790  -18.1210  -20.1800 C.ar      1 QN12501     0.0000 
     35 C11         6.6210  -17.2570  -20.4290 C.3       1 QN12501     0.0000 
     36 F3          7.0570  -16.0210  -20.8730 F         1 QN12501     0.0000 
     37 F2          5.9840  -17.8300  -21.4720 F         1 QN12501     0.0000 
     38 F1          5.9090  -17.0620  -19.3220 F         1 QN12501     0.0000 
     39 C29         7.9460  -19.0880  -19.1750 C.ar      1 QN12501     0.0000 
     40 C13         9.1030  -19.8280  -18.9860 C.ar      1 QN12501     0.0000 
     41 S8         11.7530  -22.4550  -18.0800 S.o2      1 QN12501     0.0000 
     42 C26        13.2540  -23.1460  -18.7230 C.ar      1 QN12501     0.0000 
     43 C17        13.3330  -23.4130  -20.0920 C.ar      1 QN12501     0.0000 
     44 C1         14.5120  -23.9520  -20.6350 C.ar      1 QN12501     0.0000 
     45 C4         15.5610  -24.2390  -19.7680 C.ar      1 QN12501     0.0000 
     46 C9         16.8530  -24.7890  -20.3680 C.2       1 QN12501     0.0000 
     47 O1         17.1470  -24.4690  -21.5110 O.2       1 QN12501     0.0000 
     48 N2         17.6640  -25.5970  -19.6980 N.am      1 QN12501     0.0000 
     49 C3         15.4810  -23.9470  -18.4130 C.ar      1 QN12501     0.0000 
     50 C19        14.3050  -23.4120  -17.8350 C.ar      1 QN12501     0.0000 
     51 O41        10.6580  -22.9630  -18.8910 O.2       1 QN12501     0.0000 
     52 O10        11.7310  -22.6690  -16.6410 O.2       1 QN12501     0.0000 
     53 O2          6.9750  -13.3560  -14.8400 O.2       1 QN12501     0.0000 
     54 H           4.7963  -14.0519  -15.7352 H         1 QN12501     0.0000 
     55 H           5.3383  -15.7431  -16.0025 H         1 QN12501     0.0000 
     56 H           9.1036  -14.4232  -14.1015 H         1 QN12501     0.0000 
     57 H          10.7869  -16.1730  -14.0178 H         1 QN12501     0.0000 
     58 H           8.1955  -18.7881  -16.0300 H         1 QN12501     0.0000 
     59 H           6.5261  -17.0204  -16.1702 H         1 QN12501     0.0000 
     60 H          13.1488  -17.7977  -13.9492 H         1 QN12501     0.0000 
     61 H          14.0190  -17.5680  -15.4756 H         1 QN12501     0.0000 
     62 H          15.9391  -18.8129  -15.5573 H         1 QN12501     0.0000 
     63 H          17.2793  -20.7900  -15.1137 H         1 QN12501     0.0000 
     64 H          13.9461  -22.6380  -13.3438 H         1 QN12501     0.0000 
     65 H          12.6097  -20.6736  -13.7937 H         1 QN12501     0.0000 
     66 H          11.0280  -18.7393  -17.4524 H         1 QN12501     0.0000 
     67 H          12.8663  -16.7329  -17.2730 H         1 QN12501     0.0000 
     68 H          12.2487  -17.3842  -18.8009 H         1 QN12501     0.0000 
     69 H          14.8643  -20.0728  -17.6716 H         1 QN12501     0.0000 
     70 H          14.0345  -20.0024  -19.2357 H         1 QN12501     0.0000 
     71 H          12.9866  -20.5528  -16.6358 H         1 QN12501     0.0000 
     72 H          11.3704  -21.3200  -20.4296 H         1 QN12501     0.0000 
     73 H          12.2760  -19.8061  -20.2628 H         1 QN12501     0.0000 
     74 H          10.9630  -18.4556  -21.3977 H         1 QN12501     0.0000 
     75 H           8.9219  -17.2115  -21.7573 H         1 QN12501     0.0000 
     76 H           7.1257  -19.2498  -18.5706 H         1 QN12501     0.0000 
     77 H           9.1632  -20.5106  -18.2226 H         1 QN12501     0.0000 
     78 H          12.5342  -23.2174  -20.7028 H         1 QN12501     0.0000 
     79 H          14.5888  -24.1239  -21.6298 H         1 QN12501     0.0000 
     80 H          17.3952  -25.8102  -18.7587 H         1 QN12501     0.0000 
     81 H          18.4708  -25.9198  -20.1928 H         1 QN12501     0.0000 
     82 H          16.2979  -24.1213  -17.7987 H         1 QN12501     0.0000 
     83 H          14.2357  -23.2383  -16.8595 H         1 QN12501     0.0000 
@<TRIPOS>BOND
     1    2    1 am   
     2   54    1 1    
     3   55    1 1    
     4    3    2 1    
     5   53    2 2    
     6    4    3 ar   
     7    8    3 ar   
     8    5    4 ar   
     9   56    4 1    
    10    6    5 ar   
    11   57    5 1    
    12    7    6 ar   
    13    9    6 1    
    14    8    7 ar   
    15   58    7 1    
    16   59    8 1    
    17   10    9 2    
    18   11    9 2    
    19   12    9 1    
    20   13   12 1    
    21   24   12 1    
    22   14   13 1    
    23   60   13 1    
    24   61   13 1    
    25   15   14 ar   
    26   23   14 ar   
    27   16   15 ar   
    28   62   15 1    
    29   17   16 ar   
    30   63   16 1    
    31   18   17 1    
    32   22   17 ar   
    33   19   18 1    
    34   20   18 1    
    35   21   18 1    
    36   23   22 ar   
    37   64   22 1    
    38   65   23 1    
    39   25   24 1    
    40   28   24 1    
    41   66   24 1    
    42   26   25 1    
    43   67   25 1    
    44   68   25 1    
    45   27   26 1    
    46   28   27 1    
    47   69   27 1    
    48   70   27 1    
    49   29   28 1    
    50   71   28 1    
    51   30   29 1    
    52   41   29 1    
    53   31   30 1    
    54   72   30 1    
    55   73   30 1    
    56   32   31 ar   
    57   40   31 ar   
    58   33   32 ar   
    59   74   32 1    
    60   34   33 ar   
    61   75   33 1    
    62   35   34 1    
    63   39   34 ar   
    64   36   35 1    
    65   37   35 1    
    66   38   35 1    
    67   40   39 ar   
    68   76   39 1    
    69   77   40 1    
    70   42   41 1    
    71   51   41 2    
    72   52   41 2    
    73   43   42 ar   
    74   50   42 ar   
    75   44   43 ar   
    76   78   43 1    
    77   45   44 ar   
    78   79   44 1    
    79   46   45 1    
    80   49   45 ar   
    81   47   46 2    
    82   48   46 am   
    83   80   48 1    
    84   81   48 1    
    85   50   49 ar   
    86   82   49 1    
    87   83   50 1    
@<TRIPOS>SUBSTRUCTURE
     1 QN12501     1 GROUP   
@<TRIPOS>SET

