#    Name: 3oez_STI_2_INTS_M
#    Modification time : Tue Mar 25 04:29:01 2014

@<TRIPOS>MOLECULE
3oez_STI_2_INTS_M
   97     0     9     0     0
SMALL
NO_CHARGES


@<TRIPOS>ATOM
      1 CA         -1.9170   65.9515   33.3915 C.3       3 GLC5        0.0000 
      2 CA         -3.4510   67.1000   32.2970 C.3       9 GLL5        0.0000 
      3 CA         -0.3830   64.8030   34.4860 C.3       6 GLP5        0.0000 
      4 CA         -2.4075   65.6415   31.1215 C.3       3 GLC5        0.0000 
      5 CA         -1.3640   64.1830   29.9460 C.3       6 GLP5        0.0000 
      6 N          -1.2705   66.0275   31.9920 N.am      2 SEC2        0.0000 
      7 N          -2.1230   67.1000   31.9220 N.am      8 SEL2        0.0000 
      8 N          -0.4180   64.9550   32.0620 N.am      5 SEP2        0.0000 
      9 CA         -0.8395   66.3085   30.8845 C.3       3 GLC5        0.0000 
     10 CA         -1.5860   68.0800   31.0650 C.3       9 GLL5        0.0000 
     11 CA         -0.0930   64.5370   30.7040 C.3       6 GLP5        0.0000 
     12 CA         -8.1530   70.6135   33.2225 C.3       3 GLC5        0.0000 
     13 CA         -8.0380   69.0190   32.3890 C.3       9 GLL5        0.0000 
     14 CA         -8.2680   72.2080   34.0560 C.3       6 GLP5        0.0000 
     15 CA         -6.4495   66.0720   31.7550 C.3       3 GLC5        0.0000 
     16 CA         -7.4280   66.9690   33.4730 C.3       9 GLL5        0.0000 
     17 CA         -5.4710   65.1750   30.0370 C.3       6 GLP5        0.0000 
     18 O          -6.6530   65.1315   35.1980 O.2       1 ALC1        0.0000 
     19 O          -7.7580   65.8630   34.2410 O.2       7 ALL1        0.0000 
     20 O          -5.5480   64.4000   36.1550 O.2       4 ALP1        0.0000 
     21 CA        -11.7175   67.7810   35.7130 C.3       3 GLC5        0.0000 
     22 CA        -11.6700   65.7490   35.9750 C.3       9 GLL5        0.0000 
     23 CA        -11.7650   69.8130   35.4510 C.3       6 GLP5        0.0000 
     24 CA        -10.4400   63.3415   35.2350 C.3       3 GLC5        0.0000 
     25 CA        -10.0330   65.0010   34.2620 C.3       9 GLL5        0.0000 
     26 CA        -10.8470   61.6820   36.2080 C.3       6 GLP5        0.0000 
     27 CA         -8.8030   64.3190   35.7660 C.3       3 GLC5        0.0000 
     28 CA         -7.5730   63.6370   37.2700 C.3       6 GLP5        0.0000 
     29 O         -13.5460   64.6460   34.6700 O.2       1 ALC1        0.0000 
     30 O         -12.3750   64.0470   34.3000 O.2       7 ALL1        0.0000 
     31 O         -14.7170   65.2450   35.0400 O.2       4 ALP1        0.0000 
     32 CA        -11.6270   61.7965   30.6270 C.3       3 GLC5        0.0000 
     33 CA        -13.1200   61.1480   31.9180 C.3       9 GLL5        0.0000 
     34 CA        -10.1340   62.4450   29.3360 C.3       6 GLP5        0.0000 
     35 CA        -15.5355   57.6335   33.0370 C.3       3 GLC5        0.0000 
     36 CA        -16.5280   59.2420   32.2420 C.3       9 GLL5        0.0000 
     37 CA        -14.5430   56.0250   33.8320 C.3       6 GLP5        0.0000 
     38 CA        -18.1285   59.8890   29.0545 C.3       3 GLC5        0.0000 
     39 CA        -17.8920   60.9010   30.9160 C.3       9 GLL5        0.0000 
     40 CA        -18.3650   58.8770   27.1930 C.3       6 GLP5        0.0000 
     41 CA        -16.2395   62.2775   30.5980 C.3       3 GLC5        0.0000 
     42 CA        -14.5870   63.6540   30.2800 C.3       6 GLP5        0.0000 
     43 O         -20.1635   59.2610   29.9915 O.2       1 ALC1        0.0000 
     44 O         -20.4220   60.7280   30.8310 O.2       7 ALL1        0.0000 
     45 O         -19.9050   57.7940   29.1520 O.2       4 ALP1        0.0000 
     46 O         -19.8135   60.8895   29.2975 O.2       1 ALC1        0.0000 
     47 O         -19.2050   61.0510   27.7640 O.2       4 ALP1        0.0000 
     48 CA        -22.4700   61.2515   29.5410 C.3       3 GLC5        0.0000 
     49 CA        -21.7400   61.3860   30.8980 C.3       9 GLL5        0.0000 
     50 CA        -23.2000   61.1170   28.1840 C.3       6 GLP5        0.0000 
     51 CA        -18.3885   58.6920   33.6510 C.3       3 GLC5        0.0000 
     52 CA        -18.9980   58.8110   31.7790 C.3       9 GLL5        0.0000 
     53 CA        -17.7790   58.5730   35.5230 C.3       6 GLP5        0.0000 
     54 N         -11.6945   63.4565   31.2260 N.am      2 SEC2        0.0000 
     55 N         -11.2910   63.1790   32.4080 N.am      8 SEL2        0.0000 
     56 N         -12.0980   63.7340   30.0440 N.am      5 SEP2        0.0000 
     57 CA         -6.9955   68.6415   37.9825 C.3       3 GLC5        0.0000 
     58 CA         -8.2630   67.5770   36.6550 C.3       9 GLL5        0.0000 
     59 CA         -5.7280   69.7060   39.3100 C.3       6 GLP5        0.0000 
     60 CA         -9.1645   68.7620   36.9735 C.3       3 GLC5        0.0000 
     61 CA        -10.0660   69.9470   37.2920 C.3       6 GLP5        0.0000 
     62 CA         -7.9180   65.6070   36.9625 C.3       3 GLC5        0.0000 
     63 CA         -2.7623   70.8905   31.8120 C.3       3 GLC5        0.0000 
     64 CA         -3.7830   69.1720   30.9150 C.3       9 GLL5        0.0000 
     65 CA         -2.4340   72.6240   32.8980 C.3       6 GLP5        0.0000 
     66 CA         -1.7135   68.5755   28.6965 C.3       3 GLC5        0.0000 
     67 CA         -2.3980   69.1420   30.5370 C.3       9 GLL5        0.0000 
     68 CA         -1.4350   68.5400   26.5920 C.3       6 GLP5        0.0000 
     69 CA         -3.5116   67.6492   29.5438 C.3       3 GLC5        0.0000 
     70 CA         -4.6850   66.6800   28.1920 C.3       6 GLP5        0.0000 
     71 CA         -6.0168   70.2530   33.0810 C.3       3 GLC5        0.0000 
     72 CA         -5.7620   68.1340   32.2350 C.3       9 GLL5        0.0000 
     73 CA         -5.7970   71.8580   34.0960 C.3       6 GLP5        0.0000 
     74 CA         -4.1357   67.8991   33.9219 C.3       3 GLC5        0.0000 
     75 CA         -3.4450   67.9190   35.7010 C.3       6 GLP5        0.0000 
     76 CA         -5.1487   66.5271   31.0899 C.3       3 GLC5        0.0000 
     77 CA        -10.0315   68.2908   36.7860 C.3       3 GLC5        0.0000 
     78 CA         -9.3340   66.6650   36.0020 C.3       9 GLL5        0.0000 
     79 CA         -8.7474   65.0314   36.6280 C.3       3 GLC5        0.0000 
     80 CA        -10.6600   66.6040   36.5580 C.3       9 GLL5        0.0000 
     81 CA        -11.9245   63.8787   36.1593 C.3       3 GLC5        0.0000 
     82 CA        -12.3240   62.4090   36.9220 C.3       6 GLP5        0.0000 
     83 CA        -10.8652   65.7504   37.9153 C.3       3 GLC5        0.0000 
     84 CA        -10.8970   65.3090   39.7030 C.3       6 GLP5        0.0000 
     85 CA        -13.9062   62.6640   31.3495 C.3       3 GLC5        0.0000 
     86 CA        -13.3310   62.2000   32.9200 C.3       9 GLL5        0.0000 
     87 CA        -14.6755   61.9260   31.1725 C.3       3 GLC5        0.0000 
     88 CA        -14.1490   60.1610   31.6790 C.3       9 GLL5        0.0000 
     89 CA        -15.8153   63.0210   34.8723 C.3       3 GLC5        0.0000 
     90 CA        -15.5600   61.2830   33.4370 C.3       9 GLL5        0.0000 
     91 CA        -16.5710   64.2780   36.1880 C.3       6 GLP5        0.0000 
     92 CA        -14.1303   61.3939   35.1082 C.3       3 GLC5        0.0000 
     93 CA        -13.5080   61.0350   36.8490 C.3       6 GLP5        0.0000 
     94 CA        -14.8232   62.7090   31.9183 C.3       3 GLC5        0.0000 
     95 CA        -14.5590   62.2450   33.6760 C.3       9 GLL5        0.0000 
     96 CA        -16.8889   59.2867   34.0580 C.3       3 GLC5        0.0000 
     97 CA        -15.3790   60.2350   32.4510 C.3       9 GLL5        0.0000 
@<TRIPOS>BOND
@<TRIPOS>SUBSTRUCTURE
     1 ALC1       18 GROUP        1 X    ALC  0     ROOT ALC X 1
     2 SEC2        6 GROUP        1 X    SEC  0     **** SEC X 2
     3 GLC5        1 GROUP        1 X    GLC  0     **** GLC X 6
     4 ALP1       20 GROUP        1 Y    ALP  0     ROOT ALP Y 8
     5 SEP2        8 GROUP        1 Y    SEP  0     **** SEP Y 9
     6 GLP5        3 GROUP        1 Y    GLP  0     **** GLP Y 13
     7 ALL1       19 GROUP        1 Z    ALL  0     ROOT ALL Z 15
     8 SEL2        7 GROUP        1 Z    SEL  0     **** SEL Z 16
     9 GLL5        2 GROUP        1 Z    GLL  0     **** GLL Z 20
@<TRIPOS>SET

