#    Name: 3oez_STI_2_ligand
#    Modification time : Tue Mar 25 04:29:01 2014

@<TRIPOS>MOLECULE
3oez_STI_2_ligand
   69    73     1     0     0
SMALL
NO_CHARGES


@<TRIPOS>ATOM
      1 C1         -2.3980   69.1420   30.5370 C.ar      1 STI601      0.0000 
      2 C6         -3.7830   69.1720   30.9150 C.ar      1 STI601      0.0000 
      3 C5         -4.3310   68.1490   31.8040 C.ar      1 STI601      0.0000 
      4 C4         -3.4510   67.1000   32.2970 C.ar      1 STI601      0.0000 
      5 N3         -2.1230   67.1000   31.9220 N.ar      1 STI601      0.0000 
      6 C2         -1.5860   68.0800   31.0650 C.ar      1 STI601      0.0000 
      7 C7         -5.7620   68.1340   32.2350 C.ar      1 STI601      0.0000 
      8 C12        -6.7110   69.1620   31.8970 C.ar      1 STI601      0.0000 
      9 C11        -8.0380   69.0190   32.3890 C.ar      1 STI601      0.0000 
     10 N10        -8.3730   67.9260   33.1670 N.ar      1 STI601      0.0000 
     11 C9         -7.4280   66.9690   33.4730 C.ar      1 STI601      0.0000 
     12 N8         -6.1590   67.0760   33.0270 N.ar      1 STI601      0.0000 
     13 N13        -7.7580   65.8630   34.2410 N.pl3     1 STI601      0.0000 
     14 C14        -9.0330   65.8300   34.8260 C.ar      1 STI601      0.0000 
     15 C19        -9.3340   66.6650   36.0020 C.ar      1 STI601      0.0000 
     16 C18       -10.6600   66.6040   36.5580 C.ar      1 STI601      0.0000 
     17 C17       -11.6700   65.7490   35.9750 C.ar      1 STI601      0.0000 
     18 C16       -11.3800   64.9480   34.8180 C.ar      1 STI601      0.0000 
     19 C15       -10.0330   65.0010   34.2620 C.ar      1 STI601      0.0000 
     20 N21       -12.3750   64.0470   34.3000 N.am      1 STI601      0.0000 
     21 C22       -12.2440   63.1960   33.1980 C.2       1 STI601      0.0000 
     22 C23       -13.3310   62.2000   32.9200 C.ar      1 STI601      0.0000 
     23 C25       -13.1200   61.1480   31.9180 C.ar      1 STI601      0.0000 
     24 C26       -14.1490   60.1610   31.6790 C.ar      1 STI601      0.0000 
     25 C27       -15.3790   60.2350   32.4510 C.ar      1 STI601      0.0000 
     26 C28       -15.5600   61.2830   33.4370 C.ar      1 STI601      0.0000 
     27 C29       -14.5590   62.2450   33.6760 C.ar      1 STI601      0.0000 
     28 C46       -16.5280   59.2420   32.2420 C.3       1 STI601      0.0000 
     29 N48       -17.8780   59.8270   31.9670 N.3       1 STI601      0.0000 
     30 C53       -17.8920   60.9010   30.9160 C.3       1 STI601      0.0000 
     31 C52       -19.2360   61.6680   30.9570 C.3       1 STI601      0.0000 
     32 N51       -20.4220   60.7280   30.8310 N.4       1 STI601      0.0000 
     33 C54       -21.7400   61.3860   30.8980 C.3       1 STI601      0.0000 
     34 C50       -20.4010   59.4960   31.7410 C.3       1 STI601      0.0000 
     35 C49       -18.9980   58.8110   31.7790 C.3       1 STI601      0.0000 
     36 O29       -11.2910   63.1790   32.4080 O.2       1 STI601      0.0000 
     37 C20        -8.2630   67.5770   36.6550 C.3       1 STI601      0.0000 
     38 H          -2.0132   69.8320   29.9308 H         1 STI601      0.0000 
     39 H          -4.3934   69.9019   30.5695 H         1 STI601      0.0000 
     40 H          -3.8426   66.3909   32.9088 H         1 STI601      0.0000 
     41 H          -0.5920   68.0459   30.8037 H         1 STI601      0.0000 
     42 H          -6.4406   69.9423   31.3383 H         1 STI601      0.0000 
     43 H          -8.7327   69.7353   32.1572 H         1 STI601      0.0000 
     44 H          -7.1072   65.1014   34.3797 H         1 STI601      0.0000 
     45 H         -10.8927   67.1684   37.3715 H         1 STI601      0.0000 
     46 H         -12.5975   65.7170   36.3928 H         1 STI601      0.0000 
     47 H          -9.8236   64.4196   33.4462 H         1 STI601      0.0000 
     48 H         -13.3073   64.0382   34.8229 H         1 STI601      0.0000 
     49 H         -12.2562   61.1223   31.4029 H         1 STI601      0.0000 
     50 H         -14.0213   59.4414   30.9983 H         1 STI601      0.0000 
     51 H         -16.4405   61.3091   33.9614 H         1 STI601      0.0000 
     52 H         -14.6863   62.9712   34.3723 H         1 STI601      0.0000 
     53 H         -16.5852   58.5865   33.1448 H         1 STI601      0.0000 
     54 H         -16.2438   58.5573   31.4063 H         1 STI601      0.0000 
     55 H         -17.7764   60.4627   29.9287 H         1 STI601      0.0000 
     56 H         -17.0868   61.6090   31.0908 H         1 STI601      0.0000 
     57 H         -19.2492   62.3892   30.1382 H         1 STI601      0.0000 
     58 H         -19.2963   62.2124   31.9008 H         1 STI601      0.0000 
     59 H         -20.3563   60.2893   29.7643 H         1 STI601      0.0000 
     60 H         -21.1302   58.7666   31.3852 H         1 STI601      0.0000 
     61 H         -20.6686   59.7882   32.7576 H         1 STI601      0.0000 
     62 H         -18.9890   58.0953   32.6005 H         1 STI601      0.0000 
     63 H         -18.8547   58.2726   30.8426 H         1 STI601      0.0000 
     64 H         -21.8723   61.8650   31.7658 H         1 STI601      0.0000 
     65 H         -21.8553   62.0616   30.1698 H         1 STI601      0.0000 
     66 H         -22.4883   60.7286   30.8090 H         1 STI601      0.0000 
     67 H          -7.4764   67.0521   36.9800 H         1 STI601      0.0000 
     68 H          -7.9147   68.2595   36.0125 H         1 STI601      0.0000 
     69 H          -8.6285   68.0746   37.4416 H         1 STI601      0.0000 
@<TRIPOS>BOND
     1    2    1 ar   
     2    6    1 ar   
     3   38    1 1    
     4    3    2 ar   
     5   39    2 1    
     6    4    3 ar   
     7    7    3 1    
     8    5    4 ar   
     9   40    4 1    
    10    6    5 ar   
    11   41    6 1    
    12    8    7 ar   
    13   12    7 ar   
    14    9    8 ar   
    15   42    8 1    
    16   10    9 ar   
    17   43    9 1    
    18   11   10 ar   
    19   12   11 ar   
    20   13   11 1    
    21   14   13 1    
    22   44   13 1    
    23   15   14 ar   
    24   19   14 ar   
    25   16   15 ar   
    26   37   15 1    
    27   17   16 ar   
    28   45   16 1    
    29   18   17 ar   
    30   46   17 1    
    31   19   18 ar   
    32   20   18 1    
    33   47   19 1    
    34   21   20 am   
    35   48   20 1    
    36   22   21 1    
    37   36   21 2    
    38   23   22 ar   
    39   27   22 ar   
    40   24   23 ar   
    41   49   23 1    
    42   25   24 ar   
    43   50   24 1    
    44   26   25 ar   
    45   28   25 1    
    46   27   26 ar   
    47   51   26 1    
    48   52   27 1    
    49   29   28 1    
    50   53   28 1    
    51   54   28 1    
    52   30   29 1    
    53   35   29 1    
    54   31   30 1    
    55   55   30 1    
    56   56   30 1    
    57   32   31 1    
    58   57   31 1    
    59   58   31 1    
    60   33   32 1    
    61   34   32 1    
    62   59   32 1    
    63   64   33 1    
    64   65   33 1    
    65   66   33 1    
    66   35   34 1    
    67   60   34 1    
    68   61   34 1    
    69   62   35 1    
    70   63   35 1    
    71   67   37 1    
    72   68   37 1    
    73   69   37 1    
@<TRIPOS>SUBSTRUCTURE
     1 STI601      1 GROUP   
@<TRIPOS>SET

