#    Name: 3dux_64U_1_INTS_M
#    Modification time : Tue Mar 25 00:23:03 2014

@<TRIPOS>MOLECULE
3dux_64U_1_INTS_M
   78     0     9     0     0
SMALL
NO_CHARGES


@<TRIPOS>ATOM
      1 CA         19.9120  -12.1175   23.8020 C.3       3 GLC5        0.0000 
      2 CA         19.2230  -14.1140   24.5550 C.3       9 GLL5        0.0000 
      3 CA         20.6010  -10.1210   23.0490 C.3       6 GLP5        0.0000 
      4 CA         19.5810  -14.3685   28.1035 C.3       3 GLC5        0.0000 
      5 CA         19.4910  -13.7480   26.0370 C.3       9 GLL5        0.0000 
      6 CA         19.6710  -14.9890   30.1700 C.3       6 GLP5        0.0000 
      7 CA         18.1105  -12.9435   26.8745 C.3       3 GLC5        0.0000 
      8 CA         16.7300  -12.1390   27.7120 C.3       6 GLP5        0.0000 
      9 CA         20.7005  -11.5270   24.6030 C.3       3 GLC5        0.0000 
     10 CA         20.8000  -12.9330   26.1570 C.3       9 GLL5        0.0000 
     11 CA         19.1380  -11.9660   26.7820 C.3       3 GLC5        0.0000 
     12 CA         17.4760  -10.9990   27.4070 C.3       6 GLP5        0.0000 
     13 CA         22.3975  -13.9885   21.9470 C.3       3 GLC5        0.0000 
     14 CA         21.7380  -14.0550   24.0710 C.3       9 GLL5        0.0000 
     15 CA         23.0570  -13.9220   19.8230 C.3       6 GLP5        0.0000 
     16 CA         22.4160  -12.1740   23.4200 C.3       3 GLC5        0.0000 
     17 CA         23.0940  -10.2930   22.7690 C.3       6 GLP5        0.0000 
     18 O          15.0170  -15.2130   23.8325 O.2       1 ALC1        0.0000 
     19 O          16.1710  -15.9180   23.2080 O.2       7 ALL1        0.0000 
     20 O          13.8630  -14.5080   24.4570 O.2       4 ALP1        0.0000 
     21 N          15.2800  -12.4365   24.0080 N.am      2 SEC2        0.0000 
     22 N          16.1630  -13.0030   22.9900 N.am      8 SEL2        0.0000 
     23 N          14.3970  -11.8700   25.0260 N.am      5 SEP2        0.0000 
     24 CA         17.3100  -11.2565   22.8845 C.3       3 GLC5        0.0000 
     25 CA         17.4290  -11.8450   20.9360 C.3       9 GLL5        0.0000 
     26 CA         17.1910  -10.6680   24.8330 C.3       6 GLP5        0.0000 
     27 CA         18.1895  -13.2485   18.4280 C.3       3 GLC5        0.0000 
     28 CA         18.3990  -11.6260   19.7770 C.3       9 GLL5        0.0000 
     29 CA         17.9800  -14.8710   17.0790 C.3       6 GLP5        0.0000 
     30 CA         20.9625  -13.5545   19.1570 C.3       3 GLC5        0.0000 
     31 CA         19.3320  -12.8270   19.7330 C.3       9 GLL5        0.0000 
     32 CA         22.5930  -14.2820   18.5810 C.3       6 GLP5        0.0000 
     33 CA         20.9730  -13.8830   20.3065 C.3       3 GLC5        0.0000 
     34 CA         18.8890  -13.8440   20.7900 C.3       9 GLL5        0.0000 
     35 O          16.1055   -9.6315   21.6110 O.2       1 ALC1        0.0000 
     36 O          15.3670  -10.6120   20.8330 O.2       7 ALL1        0.0000 
     37 O          16.8440   -8.6510   22.3890 O.2       4 ALP1        0.0000 
     38 CA         14.6865   -8.7535   18.9505 C.3       3 GLC5        0.0000 
     39 CA         14.0480  -10.3120   20.2910 C.3       9 GLL5        0.0000 
     40 CA         15.3250   -7.1950   17.6100 C.3       6 GLP5        0.0000 
     41 CA          9.9545  -12.7505   21.8925 C.3       3 GLC5        0.0000 
     42 CA         11.2970  -11.3430   22.7390 C.3       9 GLL5        0.0000 
     43 CA          8.6120  -14.1580   21.0460 C.3       6 GLP5        0.0000 
     44 CA         11.1520   -9.6205   25.7855 C.3       3 GLC5        0.0000 
     45 CA         11.2870  -10.2800   23.6420 C.3       9 GLL5        0.0000 
     46 CA         11.0170   -8.9610   27.9290 C.3       6 GLP5        0.0000 
     47 CA         10.6215   -7.6480   23.3625 C.3       3 GLC5        0.0000 
     48 CA         12.1650   -7.9020   24.5830 C.3       9 GLL5        0.0000 
     49 CA          9.0780   -7.3940   22.1420 C.3       6 GLP5        0.0000 
     50 CA         11.5910   -8.4315   26.2560 C.3       3 GLC5        0.0000 
     51 CA         13.2700   -7.5535   26.4925 C.3       3 GLC5        0.0000 
     52 CA         14.3750   -7.2050   28.4020 C.3       6 GLP5        0.0000 
     53 CA         11.2085   -6.2790   25.4045 C.3       3 GLC5        0.0000 
     54 CA         10.2520   -4.6560   26.2260 C.3       6 GLP5        0.0000 
     55 CA         17.8843  -12.5972   24.6887 C.3       3 GLC5        0.0000 
     56 CA         17.9320  -14.9390   24.5340 C.3       9 GLL5        0.0000 
     57 CA         22.6485  -12.3633   26.9163 C.3       3 GLC5        0.0000 
     58 CA         23.9040  -11.3780   27.9630 C.3       6 GLP5        0.0000 
     59 CA         18.8370  -10.4936   19.1269 C.3       3 GLC5        0.0000 
     60 CA         19.0510   -8.7060   18.2090 C.3       6 GLP5        0.0000 
     61 CA         18.9707  -14.5302   18.9947 C.3       3 GLC5        0.0000 
     62 CA         18.8310  -15.7250   17.7280 C.3       6 GLP5        0.0000 
     63 CA         19.6120  -11.2011   21.5469 C.3       3 GLC5        0.0000 
     64 CA         12.7605   -7.8450   21.6532 C.3       3 GLC5        0.0000 
     65 CA         13.0700  -10.3010   21.4780 C.3       9 GLL5        0.0000 
     66 CA         12.4490   -5.9280   21.3790 C.3       6 GLP5        0.0000 
     67 CA         14.4585   -9.9135   23.1692 C.3       3 GLC5        0.0000 
     68 CA         13.0740   -9.2230   22.3770 C.3       9 GLL5        0.0000 
     69 CA         15.8450  -10.0650   24.4110 C.3       6 GLP5        0.0000 
     70 CA         10.2882  -11.1895   21.0260 C.3       3 GLC5        0.0000 
     71 CA         12.1820  -11.3530   21.6650 C.3       9 GLL5        0.0000 
     72 CA          8.8370  -11.0310   19.8500 C.3       6 GLP5        0.0000 
     73 CA         12.3100   -7.2460   22.6985 C.3       3 GLC5        0.0000 
     74 CA         12.1770   -9.2260   23.4530 C.3       9 GLL5        0.0000 
     75 CA         14.0080   -9.3145   24.2145 C.3       3 GLC5        0.0000 
     76 CA         12.5768  -11.3009   24.5769 C.3       3 GLC5        0.0000 
     77 CA         13.4190  -12.5830   25.8320 C.3       6 GLP5        0.0000 
     78 CA         10.7405   -8.4410   22.5521 C.3       3 GLC5        0.0000 
@<TRIPOS>BOND
@<TRIPOS>SUBSTRUCTURE
     1 ALC1       18 GROUP        1 X    ALC  0     ROOT ALC X 1
     2 SEC2       21 GROUP        1 X    SEC  0     **** SEC X 2
     3 GLC5        1 GROUP        1 X    GLC  0     **** GLC X 6
     4 ALP1       20 GROUP        1 Y    ALP  0     ROOT ALP Y 8
     5 SEP2       23 GROUP        1 Y    SEP  0     **** SEP Y 9
     6 GLP5        3 GROUP        1 Y    GLP  0     **** GLP Y 13
     7 ALL1       19 GROUP        1 Z    ALL  0     ROOT ALL Z 15
     8 SEL2       22 GROUP        1 Z    SEL  0     **** SEL Z 16
     9 GLL5        2 GROUP        1 Z    GLL  0     **** GLL Z 20
@<TRIPOS>SET

