#    Name: 3dux_64U_1_ligand
#    Modification time : Tue Mar 25 00:23:03 2014

@<TRIPOS>MOLECULE
3dux_64U_1_ligand
   58    60     1     0     0
SMALL
NO_CHARGES


@<TRIPOS>ATOM
      1 C11        19.2230  -14.1140   24.5550 C.3       1 64U901      0.0000 
      2 C12        19.4910  -13.7480   26.0370 C.3       1 64U901      0.0000 
      3 C13        20.8000  -12.9330   26.1570 C.3       1 64U901      0.0000 
      4 C16        21.9860  -13.7640   25.5820 C.3       1 64U901      0.0000 
      5 C17        21.7380  -14.0550   24.0710 C.3       1 64U901      0.0000 
      6 C18        20.4160  -14.8770   23.9260 C.3       1 64U901      0.0000 
      7 N          16.1710  -15.9180   23.2080 N.4       1 64U901      0.0000 
      8 C15        17.3660  -15.0440   23.0940 C.3       1 64U901      0.0000 
      9 C1         17.9320  -14.9390   24.5340 C.3       1 64U901      0.0000 
     10 C14        17.0830  -13.6790   22.5060 C.2       1 64U901      0.0000 
     11 O32        16.1630  -13.0030   22.9900 O.2       1 64U901      0.0000 
     12 N1         17.7750  -13.1570   21.4440 N.am      1 64U901      0.0000 
     13 C5         17.4290  -11.8450   20.9360 C.3       1 64U901      0.0000 
     14 C7         15.9810  -11.7680   20.4910 C.2       1 64U901      0.0000 
     15 O22        15.4240  -12.6860   19.9010 O.2       1 64U901      0.0000 
     16 C2         18.3990  -11.6260   19.7770 C.3       1 64U901      0.0000 
     17 C3         19.3320  -12.8270   19.7330 C.3       1 64U901      0.0000 
     18 C4         18.8890  -13.8440   20.7900 C.3       1 64U901      0.0000 
     19 N23        15.3670  -10.6120   20.8330 N.am      1 64U901      0.0000 
     20 C24        14.0480  -10.3120   20.2910 C.3       1 64U901      0.0000 
     21 C25        13.0700  -10.3010   21.4780 C.ar      1 64U901      0.0000 
     22 C26        12.1820  -11.3530   21.6650 C.ar      1 64U901      0.0000 
     23 C27        11.2970  -11.3430   22.7390 C.ar      1 64U901      0.0000 
     24 C28        11.2870  -10.2800   23.6420 C.ar      1 64U901      0.0000 
     25 C29        12.1770   -9.2260   23.4530 C.ar      1 64U901      0.0000 
     26 C30        13.0740   -9.2230   22.3770 C.ar      1 64U901      0.0000 
     27 CL21       12.1650   -7.9020   24.5830 Cl        1 64U901      0.0000 
     28 H          19.0547  -13.2004   24.0136 H         1 64U901      0.0000 
     29 H          19.5836  -14.6575   26.6149 H         1 64U901      0.0000 
     30 H          18.6669  -13.1550   26.4096 H         1 64U901      0.0000 
     31 H          20.9942  -12.7179   27.1953 H         1 64U901      0.0000 
     32 H          20.7064  -12.0196   25.5923 H         1 64U901      0.0000 
     33 H          22.0536  -14.6978   26.1145 H         1 64U901      0.0000 
     34 H          22.8968  -13.1989   25.6874 H         1 64U901      0.0000 
     35 H          22.5545  -14.6331   23.6832 H         1 64U901      0.0000 
     36 H          21.6328  -13.1261   23.5443 H         1 64U901      0.0000 
     37 H          20.2216  -15.0408   22.8741 H         1 64U901      0.0000 
     38 H          20.5395  -15.8266   24.4302 H         1 64U901      0.0000 
     39 H          18.1220  -15.5528   22.5042 H         1 64U901      0.0000 
     40 H          17.1884  -14.4654   25.1682 H         1 64U901      0.0000 
     41 H          18.1349  -15.9398   24.9037 H         1 64U901      0.0000 
     42 H          17.6302  -11.0956   21.6771 H         1 64U901      0.0000 
     43 H          18.9683  -10.7306   19.9500 H         1 64U901      0.0000 
     44 H          17.8484  -11.5605   18.8559 H         1 64U901      0.0000 
     45 H          20.3438  -12.5097   19.9462 H         1 64U901      0.0000 
     46 H          19.2868  -13.2871   18.7552 H         1 64U901      0.0000 
     47 H          18.5683  -14.7301   20.2987 H         1 64U901      0.0000 
     48 H          19.6948  -14.0113   21.4624 H         1 64U901      0.0000 
     49 H          15.7850   -9.9249   21.4621 H         1 64U901      0.0000 
     50 H          13.7245  -11.0701   19.5937 H         1 64U901      0.0000 
     51 H          14.0236   -9.3388   19.8241 H         1 64U901      0.0000 
     52 H          12.1778  -12.1451   21.0058 H         1 64U901      0.0000 
     53 H          10.6413  -12.1290   22.8698 H         1 64U901      0.0000 
     54 H          10.6373  -10.2758   24.4284 H         1 64U901      0.0000 
     55 H          13.7225   -8.4477   22.2473 H         1 64U901      0.0000 
     56 H          16.2667  -16.5832   23.9484 H         1 64U901      0.0000 
     57 H          15.3416  -15.3908   23.3929 H         1 64U901      0.0000 
     58 H          16.0081  -16.4357   22.3681 H         1 64U901      0.0000 
@<TRIPOS>BOND
     1    2    1 1    
     2    6    1 1    
     3    9    1 1    
     4   28    1 1    
     5    3    2 1    
     6   29    2 1    
     7   30    2 1    
     8    4    3 1    
     9   31    3 1    
    10   32    3 1    
    11    5    4 1    
    12   33    4 1    
    13   34    4 1    
    14    6    5 1    
    15   35    5 1    
    16   36    5 1    
    17   37    6 1    
    18   38    6 1    
    19    8    7 1    
    20   56    7 1    
    21   57    7 1    
    22   58    7 1    
    23    9    8 1    
    24   10    8 1    
    25   39    8 1    
    26   40    9 1    
    27   41    9 1    
    28   11   10 2    
    29   12   10 am   
    30   13   12 1    
    31   18   12 1    
    32   14   13 1    
    33   16   13 1    
    34   42   13 1    
    35   15   14 2    
    36   19   14 am   
    37   17   16 1    
    38   43   16 1    
    39   44   16 1    
    40   18   17 1    
    41   45   17 1    
    42   46   17 1    
    43   47   18 1    
    44   48   18 1    
    45   20   19 1    
    46   49   19 1    
    47   21   20 1    
    48   50   20 1    
    49   51   20 1    
    50   22   21 ar   
    51   26   21 ar   
    52   23   22 ar   
    53   52   22 1    
    54   24   23 ar   
    55   53   23 1    
    56   25   24 ar   
    57   54   24 1    
    58   26   25 ar   
    59   27   25 1    
    60   55   26 1    
@<TRIPOS>SUBSTRUCTURE
     1 64U901      1 GROUP   
@<TRIPOS>SET

