#    Name: 4I9Q_2_CAVITY_N1_ALL.mol2
#    Modification time : Tue Mar 11 04:52:15 2014

@<TRIPOS>MOLECULE
4I9Q_2_CAVITY_N1_ALL.mol2
   86     0     7     0     0
SMALL
NO_CHARGES


@<TRIPOS>ATOM
      1 CZ        -14.7312    6.0953  -24.2380 C.ar      5 PHE5        0.0000 
      2 CZ        -12.5165    4.7054  -26.3387 C.ar      5 PHE5        0.0000 
      3 CA        -13.8437    4.7774  -25.6435 C.3       6 GLY6        0.0000 
      4 CA        -12.3796    8.3760  -29.6940 C.3       6 GLY6        0.0000 
      5 CA        -13.7068    8.4480  -28.9988 C.3       6 GLY6        0.0000 
      6 CZ        -15.0340    8.5201  -28.3035 C.ar      5 PHE5        0.0000 
      7 CZ        -16.3612    8.5921  -27.6083 C.ar      5 PHE5        0.0000 
      8 N         -10.1648    6.9861  -31.7947 N.2       2 ALA2        0.0000 
      9 OG        -11.4920    7.0581  -31.0995 O.2       1 SER1        0.0000 
     10 NZ        -12.8192    7.1302  -30.4043 N.2       4 LYS4        0.0000 
     11 DU        -14.1464    7.2022  -29.7091 H         7 CUB7        0.0000 
     12 OG        -15.4736    7.2742  -29.0138 O.2       1 SER1        0.0000 
     13 CZ        -16.8009    7.3462  -28.3186 C.ar      5 PHE5        0.0000 
     14 CZ        -18.1281    7.4182  -27.6234 C.ar      5 PHE5        0.0000 
     15 CA        -13.8518    8.5870  -22.8174 C.3       6 GLY6        0.0000 
     16 CZ        -12.9643    7.2691  -24.2229 C.ar      5 PHE5        0.0000 
     17 CZ        -14.2915    7.3412  -23.5277 C.ar      5 PHE5        0.0000 
     18 N         -15.6187    7.4132  -22.8324 N.2       2 ALA2        0.0000 
     19 CZ        -12.0768    5.9513  -25.6284 C.ar      5 PHE5        0.0000 
     20 CZ        -13.4040    6.0233  -24.9332 C.ar      5 PHE5        0.0000 
     21 O         -10.5090    7.4717  -29.2658 O.2       2 ALA2        0.0000 
     22 CA        -11.8362    7.5438  -28.5705 C.3       6 GLY6        0.0000 
     23 DU        -13.1634    7.6158  -27.8753 H         7 CUB7        0.0000 
     24 CZ        -14.4906    7.6878  -27.1801 C.ar      5 PHE5        0.0000 
     25 CZ        -15.8178    7.7598  -26.4849 C.ar      5 PHE5        0.0000 
     26 CZ        -17.1451    7.8318  -25.7896 C.ar      5 PHE5        0.0000 
     27 OG        -10.9487    6.2259  -29.9761 O.2       1 SER1        0.0000 
     28 NZ        -12.2759    6.2979  -29.2808 N.2       4 LYS4        0.0000 
     29 NZ        -13.6031    6.3699  -28.5856 N.2       4 LYS4        0.0000 
     30 CA        -14.9303    6.4419  -27.8904 C.3       6 GLY6        0.0000 
     31 CA        -16.2575    6.5140  -27.1952 C.3       6 GLY6        0.0000 
     32 CA        -17.5847    6.5860  -26.4999 C.3       6 GLY6        0.0000 
     33 NZ        -14.0428    5.1241  -29.2959 N.2       4 LYS4        0.0000 
     34 CA        -15.3700    5.1961  -28.6007 C.3       6 GLY6        0.0000 
     35 CA        -16.6972    5.2681  -27.9055 C.3       6 GLY6        0.0000 
     36 CA        -18.0244    5.3401  -27.2102 C.3       6 GLY6        0.0000 
     37 NZ        -10.6045    5.7403  -32.5050 N.2       4 LYS4        0.0000 
     38 NZ        -11.9317    5.8123  -31.8098 N.2       4 LYS4        0.0000 
     39 NZ        -13.2589    5.8843  -31.1146 N.2       4 LYS4        0.0000 
     40 NZ        -14.5861    5.9563  -30.4194 N.2       4 LYS4        0.0000 
     41 DU        -15.9133    6.0283  -29.7241 H         7 CUB7        0.0000 
     42 OG        -17.2405    6.1004  -29.0289 O.2       1 SER1        0.0000 
     43 N         -18.5677    6.1724  -28.3337 N.2       2 ALA2        0.0000 
     44 NZ        -11.0442    4.4944  -33.2153 N.2       4 LYS4        0.0000 
     45 NZ        -13.6986    4.6384  -31.8249 N.2       4 LYS4        0.0000 
     46 NZ        -15.0258    4.7105  -31.1297 N.2       4 LYS4        0.0000 
     47 CA        -16.3530    4.7825  -30.4344 C.3       6 GLY6        0.0000 
     48 CA        -17.6802    4.8545  -29.7392 C.3       6 GLY6        0.0000 
     49 N         -19.0074    4.9265  -29.0440 N.2       2 ALA2        0.0000 
     50 CA        -18.4641    4.0943  -27.9205 C.3       6 GLY6        0.0000 
     51 NZ        -14.9221    2.6323  -30.7165 N.2       4 LYS4        0.0000 
     52 OD1       -16.2493    2.7044  -30.0213 O.3       3 ASP3        0.0000 
     53 CA        -17.5766    2.7764  -29.3261 C.3       6 GLY6        0.0000 
     54 N          -9.8206    6.5005  -34.3237 N.2       2 ALA2        0.0000 
     55 N         -11.1478    6.5725  -33.6285 N.2       2 ALA2        0.0000 
     56 DU        -12.4750    6.6445  -32.9333 H         7 CUB7        0.0000 
     57 DU        -13.8022    6.7166  -32.2380 H         7 CUB7        0.0000 
     58 DU        -15.1294    6.7886  -31.5428 H         7 CUB7        0.0000 
     59 OG        -16.4566    6.8606  -30.8476 O.2       1 SER1        0.0000 
     60 OG        -17.7839    6.9326  -30.1524 O.2       1 SER1        0.0000 
     61 OG        -19.1111    7.0046  -29.4571 O.2       1 SER1        0.0000 
     62 N         -10.2603    5.2546  -35.0340 N.2       2 ALA2        0.0000 
     63 N         -10.7081    7.8184  -32.9182 N.2       2 ALA2        0.0000 
     64 OG        -12.0354    7.8904  -32.2230 O.2       1 SER1        0.0000 
     65 OG        -13.3626    7.9624  -31.5277 O.2       1 SER1        0.0000 
     66 CA        -14.6898    8.0344  -30.8325 C.3       6 GLY6        0.0000 
     67 OG        -16.0170    8.1065  -30.1373 O.2       1 SER1        0.0000 
     68 O         -12.5787    8.7226  -33.3464 O.2       2 ALA2        0.0000 
     69 CA        -15.2331    8.8667  -31.9560 C.3       6 GLY6        0.0000 
     70 N         -10.3639    7.3327  -35.4471 N.2       2 ALA2        0.0000 
     71 CA        -11.6911    7.4048  -34.7519 C.3       6 GLY6        0.0000 
     72 N         -12.1804    8.0294  -26.0416 N.2       2 ALA2        0.0000 
     73 CZ        -13.5076    8.1014  -25.3463 C.ar      5 PHE5        0.0000 
     74 CZ        -14.8348    8.1734  -24.6511 C.ar      5 PHE5        0.0000 
     75 N         -16.1621    8.2454  -23.9559 N.2       2 ALA2        0.0000 
     76 OG         -9.9657    6.6395  -28.1423 O.2       1 SER1        0.0000 
     77 CA        -11.2929    6.7115  -27.4471 C.3       6 GLY6        0.0000 
     78 DU        -12.6201    6.7835  -26.7519 H         7 CUB7        0.0000 
     79 DU        -13.9473    6.8555  -26.0566 H         7 CUB7        0.0000 
     80 CA        -15.2745    6.9276  -25.3614 C.3       6 GLY6        0.0000 
     81 CA        -16.6017    6.9996  -24.6662 C.3       6 GLY6        0.0000 
     82 NZ        -11.7326    5.4656  -28.1574 N.2       4 LYS4        0.0000 
     83 NZ        -13.0598    5.5377  -27.4622 N.2       4 LYS4        0.0000 
     84 CA        -14.3870    5.6097  -26.7669 C.3       6 GLY6        0.0000 
     85 N         -12.7238    8.8616  -27.1650 N.2       2 ALA2        0.0000 
     86 CZ        -16.7054    9.0777  -25.0793 C.ar      5 PHE5        0.0000 
@<TRIPOS>BOND
@<TRIPOS>SUBSTRUCTURE
     1 SER1        9 GROUP   
     2 ALA2        8 GROUP   
     3 ASP3       52 GROUP   
     4 LYS4       10 GROUP   
     5 PHE5        1 GROUP   
     6 GLY6        3 GROUP   
     7 CUB7       11 GROUP   
@<TRIPOS>SET

