#    Name: 4i9q_XG4_2_INTS_M
#    Modification time : Tue Mar 25 02:44:35 2014

@<TRIPOS>MOLECULE
4i9q_XG4_2_INTS_M
   36     0    12     0     0
SMALL
NO_CHARGES


@<TRIPOS>ATOM
      1 O         -16.8535    7.7400  -22.5385 O.2       1 ALC1        0.0000 
      2 O         -15.6470    7.6900  -23.3530 O.2       9 ALL1        0.0000 
      3 O         -18.0600    7.7900  -21.7240 O.2       5 ALP1        0.0000 
      4 O         -17.7815    7.5575  -23.2030 O.2       1 ALC1        0.0000 
      5 O         -17.5030    7.3250  -24.6820 O.2       9 ALL1        0.0000 
      6 CA        -12.3275    9.4025  -23.0680 C.3       4 GLC5        0.0000 
      7 CA        -13.4540    8.0450  -24.2920 C.3      12 GLL5        0.0000 
      8 CA        -11.2010   10.7600  -21.8440 C.3       8 GLP5        0.0000 
      9 N         -14.5560    8.7865  -20.6730 N.am      2 SEC2        0.0000 
     10 N         -13.8650    8.0430  -21.9940 N.am     10 SEL2        0.0000 
     11 N         -15.2470    9.5300  -19.3520 N.am      6 SEP2        0.0000 
     12 N         -11.0690    8.4715  -23.1650 N.am      2 SEC2        0.0000 
     13 N         -12.1440    8.2740  -24.4390 N.am     10 SEL2        0.0000 
     14 N          -9.9940    8.6690  -21.8910 N.am      6 SEP2        0.0000 
     15 CA        -12.1465    9.3290  -28.9150 C.3       4 GLC5        0.0000 
     16 CA        -13.0610    8.0170  -27.9570 C.3      12 GLL5        0.0000 
     17 CA        -11.2320   10.6410  -29.8730 C.3       8 GLP5        0.0000 
     18 CA        -13.6070    9.4800  -26.8425 C.3       4 GLC5        0.0000 
     19 CA        -14.1530   10.9430  -25.7280 C.3       8 GLP5        0.0000 
     20 NZ        -20.3210    7.5585  -30.8530 N.4       3 LYC4        0.0000 
     21 NZ        -18.8240    7.3790  -30.1310 N.4      11 LYL4        0.0000 
     22 NZ        -21.8180    7.7380  -31.5750 N.4       7 LYP4        0.0000 
     23 NZ        -20.1445    7.7205  -32.3205 N.4       3 LYC4        0.0000 
     24 NZ        -18.4710    7.7030  -33.0660 N.4      11 LYL4        0.0000 
     25 NZ        -15.4230    9.7770  -33.3915 N.4       3 LYC4        0.0000 
     26 NZ        -15.4820    8.1780  -33.5190 N.4      11 LYL4        0.0000 
     27 NZ        -15.3640   11.3760  -33.2640 N.4       7 LYP4        0.0000 
     28 CA        -12.8845    9.3905  -29.8030 C.3       4 GLC5        0.0000 
     29 CA        -14.5370    8.1400  -29.7330 C.3      12 GLL5        0.0000 
     30 CA        -14.8795    9.5820  -28.1660 C.3       4 GLC5        0.0000 
     31 CA        -15.2220   11.0240  -26.5990 C.3       8 GLP5        0.0000 
     32 CA        -17.3370    9.1480  -29.6220 C.3       4 GLC5        0.0000 
     33 CA        -16.0420    7.8940  -29.8020 C.3      12 GLL5        0.0000 
     34 CA        -18.6320   10.4020  -29.4420 C.3       8 GLP5        0.0000 
     35 CA        -15.3057    9.6170  -30.2862 C.3       4 GLC5        0.0000 
     36 CA        -15.3220   11.2170  -30.8050 C.3       8 GLP5        0.0000 
@<TRIPOS>BOND
@<TRIPOS>SUBSTRUCTURE
     1 ALC1        1 GROUP        1 X    ALC  0     ROOT ALC X 1
     2 SEC2        9 GROUP        1 X    SEC  0     **** SEC X 2
     3 LYC4       20 GROUP        1 X    LYC  0     **** LYC X 4
     4 GLC5        6 GROUP        1 X    GLC  0     **** GLC X 6
     5 ALP1        3 GROUP        1 Y    ALP  0     ROOT ALP Y 8
     6 SEP2       11 GROUP        1 Y    SEP  0     **** SEP Y 9
     7 LYP4       22 GROUP        1 Y    LYP  0     **** LYP Y 11
     8 GLP5        8 GROUP        1 Y    GLP  0     **** GLP Y 13
     9 ALL1        2 GROUP        1 Z    ALL  0     ROOT ALL Z 15
    10 SEL2       10 GROUP        1 Z    SEL  0     **** SEL Z 16
    11 LYL4       21 GROUP        1 Z    LYL  0     **** LYL Z 18
    12 GLL5        7 GROUP        1 Z    GLL  0     **** GLL Z 20
@<TRIPOS>SET

