#    Name: 4i9q_XG4_2_ligand
#    Modification time : Tue Mar 25 02:44:35 2014

@<TRIPOS>MOLECULE
4i9q_XG4_2_ligand
   44    46     1     0     0
SMALL
NO_CHARGES


@<TRIPOS>ATOM
      1 N1        -15.6470    7.6900  -23.3530 N.am      1 XG41002     0.0000 
      2 C2        -16.1660    7.5610  -24.5830 C.2       1 XG41002     0.0000 
      3 N2        -17.5030    7.3250  -24.6820 N.pl3     1 XG41002     0.0000 
      4 N3        -15.3920    7.6690  -25.7080 N.2       1 XG41002     0.0000 
      5 C4        -14.0510    7.8940  -25.6280 C.2       1 XG41002     0.0000 
      6 C5        -13.4540    8.0450  -24.2920 C.2       1 XG41002     0.0000 
      7 C6        -14.3470    7.9260  -23.1380 C.2       1 XG41002     0.0000 
      8 O6        -13.8650    8.0430  -21.9940 O.2       1 XG41002     0.0000 
      9 N7        -12.1440    8.2740  -24.4390 N.2       1 XG41002     0.0000 
     10 C8        -11.9070    8.2780  -25.7650 C.2       1 XG41002     0.0000 
     11 N9        -13.0310    8.0520  -26.4780 N.pl3     1 XG41002     0.0000 
     12 PA        -17.9730    6.1680  -30.2170 P.3       1 XG41002     0.0000 
     13 PB        -18.1780    6.2670  -33.2580 P.3       1 XG41002     0.0000 
     14 PG        -15.7840    7.1020  -34.5370 P.3       1 XG41002     0.0000 
     15 C1'       -13.0610    8.0170  -27.9570 C.3       1 XG41002     0.0000 
     16 O1A       -18.8240    7.3790  -30.1310 O.co2     1 XG41002     0.0000 
     17 O1B       -18.4710    7.7030  -33.0660 O.co2     1 XG41002     0.0000 
     18 O1G       -15.4820    8.1780  -33.5190 O.co2     1 XG41002     0.0000 
     19 C2'       -13.1850    6.6200  -28.5200 C.3       1 XG41002     0.0000 
     20 O2A       -18.3540    5.1480  -29.0280 O.co2     1 XG41002     0.0000 
     21 O2B       -19.1970    5.6480  -34.3430 O.co2     1 XG41002     0.0000 
     22 O2G       -16.6820    7.5280  -35.6710 O.co2     1 XG41002     0.0000 
     23 C3'       -13.7270    6.8760  -29.8960 C.3       1 XG41002     0.0000 
     24 O3'       -12.5900    7.1430  -30.7250 O.3       1 XG41002     0.0000 
     25 N3A       -18.2420    5.3740  -31.7520 N.pl3     1 XG41002     0.0000 
     26 O3B       -16.6560    6.0290  -33.7240 O.3       1 XG41002     0.0000 
     27 O3G       -14.5970    6.2620  -34.9560 O.co2     1 XG41002     0.0000 
     28 C4'       -14.5370    8.1400  -29.7330 C.3       1 XG41002     0.0000 
     29 O4'       -14.1840    8.7240  -28.4740 O.3       1 XG41002     0.0000 
     30 C5'       -16.0420    7.8940  -29.8020 C.3       1 XG41002     0.0000 
     31 O5'       -16.4100    6.5430  -30.0600 O.3       1 XG41002     0.0000 
     32 H         -16.2956    7.6010  -22.5150 H         1 XG41002     0.0000 
     33 H         -17.9944    7.2087  -23.8189 H         1 XG41002     0.0000 
     34 H         -17.8759    7.2887  -25.6091 H         1 XG41002     0.0000 
     35 H         -11.0176    8.4282  -26.1692 H         1 XG41002     0.0000 
     36 H         -12.1451    8.4471  -28.3580 H         1 XG41002     0.0000 
     37 H         -13.8805    6.0610  -27.9484 H         1 XG41002     0.0000 
     38 H         -12.2281    6.1686  -28.5793 H         1 XG41002     0.0000 
     39 H         -14.3133    6.0950  -30.2053 H         1 XG41002     0.0000 
     40 H         -18.4200    4.4731  -31.7702 H         1 XG41002     0.0000 
     41 H         -14.2664    8.8193  -30.5420 H         1 XG41002     0.0000 
     42 H         -16.4531    8.5811  -30.5814 H         1 XG41002     0.0000 
     43 H         -16.4798    8.2557  -28.8397 H         1 XG41002     0.0000 
     44 H         -12.4334    8.1270  -30.6403 H         1 XG41002     0.0000 
@<TRIPOS>BOND
     1    2    1 1    
     2    7    1 am   
     3   32    1 1    
     4    3    2 1    
     5    4    2 2    
     6   33    3 1    
     7   34    3 1    
     8    5    4 1    
     9    6    5 2    
    10   11    5 1    
    11    7    6 1    
    12    9    6 1    
    13    8    7 2    
    14   10    9 2    
    15   11   10 1    
    16   35   10 1    
    17   15   11 1    
    18   16   12 ar   
    19   20   12 ar   
    20   25   12 1    
    21   31   12 1    
    22   17   13 ar   
    23   21   13 ar   
    24   25   13 1    
    25   26   13 1    
    26   18   14 ar   
    27   22   14 ar   
    28   26   14 1    
    29   27   14 ar   
    30   19   15 1    
    31   29   15 1    
    32   36   15 1    
    33   23   19 1    
    34   37   19 1    
    35   38   19 1    
    36   24   23 1    
    37   28   23 1    
    38   39   23 1    
    39   44   24 1    
    40   40   25 1    
    41   29   28 1    
    42   30   28 1    
    43   41   28 1    
    44   31   30 1    
    45   42   30 1    
    46   43   30 1    
@<TRIPOS>SUBSTRUCTURE
     1 XG41002     1 GROUP   
@<TRIPOS>SET

