#    Name: 4bj9_UHB_1_INTS_M
#    Modification time : Tue Mar 25 07:47:45 2014

@<TRIPOS>MOLECULE
4bj9_UHB_1_INTS_M
   77     0     9     0     0
SMALL
NO_CHARGES


@<TRIPOS>ATOM
      1 CA        -40.8530  -14.8150   18.0205 C.3       3 GLC5        0.0000 
      2 CA        -40.1500  -14.1740   16.0990 C.3       9 GLL5        0.0000 
      3 CA        -41.5560  -15.4560   19.9420 C.3       6 GLP5        0.0000 
      4 CA        -37.5205  -13.0965   12.3100 C.3       3 GLC5        0.0000 
      5 CA        -38.7230  -11.8430   12.5980 C.3       9 GLL5        0.0000 
      6 CA        -36.3180  -14.3500   12.0220 C.3       6 GLP5        0.0000 
      7 O         -36.6940  -10.4315   12.6105 O.2       1 ALC1        0.0000 
      8 O         -37.7190  -11.0440   13.2430 O.2       7 ALL1        0.0000 
      9 O         -35.6690   -9.8190   11.9780 O.2       4 ALP1        0.0000 
     10 N         -35.9880   -9.9695   15.0390 N.am      2 SEC2        0.0000 
     11 N         -36.9660  -10.8970   15.4660 N.am      8 SEL2        0.0000 
     12 N         -35.0100   -9.0420   14.6120 N.am      5 SEP2        0.0000 
     13 N         -36.3955  -10.9480   16.7100 N.am      2 SEC2        0.0000 
     14 N         -35.8250  -10.9990   17.9540 N.am      5 SEP2        0.0000 
     15 CA        -43.8250  -15.3720   10.3540 C.3       3 GLC5        0.0000 
     16 CA        -42.2400  -13.9360   10.0940 C.3       9 GLL5        0.0000 
     17 CA        -45.4100  -16.8080   10.6140 C.3       6 GLP5        0.0000 
     18 CA        -43.3655  -12.8605   11.4120 C.3       3 GLC5        0.0000 
     19 CA        -44.4910  -11.7850   12.7300 C.3       6 GLP5        0.0000 
     20 CA        -44.8170   -9.7170    7.1785 C.3       3 GLC5        0.0000 
     21 CA        -43.9600  -10.9700    8.1920 C.3       9 GLL5        0.0000 
     22 CA        -45.6740   -8.4640    6.1650 C.3       6 GLP5        0.0000 
     23 CA        -44.1220  -11.8655   11.0270 C.3       3 GLC5        0.0000 
     24 CA        -43.7530  -11.9460    9.3240 C.3       9 GLL5        0.0000 
     25 CA        -38.2160   -6.7820    6.2670 C.3       3 GLC5        0.0000 
     26 CA        -39.9860   -6.4940    7.4760 C.3       9 GLL5        0.0000 
     27 CA        -36.4460   -7.0700    5.0580 C.3       6 GLP5        0.0000 
     28 CA        -41.2860   -5.8970    5.9285 C.3       3 GLC5        0.0000 
     29 CA        -42.5860   -5.3000    4.3810 C.3       6 GLP5        0.0000 
     30 N         -37.0010   -7.1625    8.8575 N.am      2 SEC2        0.0000 
     31 N         -38.3640   -6.9700    9.2720 N.am      8 SEL2        0.0000 
     32 N         -35.6380   -7.3550    8.4430 N.am      5 SEP2        0.0000 
     33 O         -38.2400   -6.9740   10.6760 O.2       1 ALC1        0.0000 
     34 O         -38.3640   -6.9700    9.2720 O.2       7 ALL1        0.0000 
     35 O         -38.1160   -6.9780   12.0800 O.2       4 ALP1        0.0000 
     36 CA        -37.4385   -4.5830    6.1090 C.3       3 GLC5        0.0000 
     37 CA        -39.5590   -4.2500    6.5470 C.3       9 GLL5        0.0000 
     38 CA        -35.3180   -4.9160    5.6710 C.3       6 GLP5        0.0000 
     39 CA        -41.0725   -4.7750    5.4640 C.3       3 GLC5        0.0000 
     40 N         -41.8025   -2.0045    8.3635 N.am      2 SEC2        0.0000 
     41 N         -40.5310   -3.0010    8.0840 N.am      8 SEL2        0.0000 
     42 N         -43.0740   -1.0080    8.6430 N.am      5 SEP2        0.0000 
     43 CA        -36.8325   -4.1875    5.0575 C.3       3 GLC5        0.0000 
     44 CA        -38.3470   -3.4590    4.4440 C.3       9 GLL5        0.0000 
     45 CA        -36.9275   -1.9725    4.6845 C.3       3 GLC5        0.0000 
     46 CA        -35.5080   -0.4860    4.9250 C.3       6 GLP5        0.0000 
     47 CA        -39.8430   -3.8190    3.4270 C.3       3 GLC5        0.0000 
     48 CA        -41.3390   -4.1790    2.4100 C.3       6 GLP5        0.0000 
     49 CA        -37.4180   -1.1575    5.4515 C.3       3 GLC5        0.0000 
     50 CA        -39.3280   -1.8290    5.9780 C.3       9 GLL5        0.0000 
     51 O         -39.7710    0.2575    7.5660 O.2       1 ALC1        0.0000 
     52 O         -39.5760   -0.4930    6.3130 O.2       7 ALL1        0.0000 
     53 O         -39.9660    1.0080    8.8190 O.2       4 ALP1        0.0000 
     54 CA        -41.0998  -12.5055   15.2145 C.3       3 GLC5        0.0000 
     55 CA        -39.1070  -13.1260   16.1370 C.3       9 GLL5        0.0000 
     56 CA        -42.5710  -11.3610   14.3110 C.3       6 GLP5        0.0000 
     57 CA        -38.9202  -13.1575   17.9850 C.3       3 GLC5        0.0000 
     58 CA        -38.2120  -12.6650   19.8520 C.3       6 GLP5        0.0000 
     59 CA        -38.5252  -14.7585   17.2870 C.3       3 GLC5        0.0000 
     60 CA        -37.4220  -15.8670   18.4560 C.3       6 GLP5        0.0000 
     61 CA        -41.5895  -12.7462   14.2560 C.3       3 GLC5        0.0000 
     62 CA        -40.7960  -14.5070   14.8250 C.3       9 GLL5        0.0000 
     63 CA        -40.7193  -11.7814   13.8676 C.3       3 GLC5        0.0000 
     64 CA        -39.3270  -12.7120   13.6230 C.3       9 GLL5        0.0000 
     65 CA        -42.6063  -13.2175    6.3120 C.3       3 GLC5        0.0000 
     66 CA        -41.6030  -12.5690    8.2900 C.3       9 GLL5        0.0000 
     67 CA        -43.4900  -14.4270    4.8360 C.3       6 GLP5        0.0000 
     68 CA        -40.2867  -13.4030    7.5100 C.3       3 GLC5        0.0000 
     69 CA        -41.8420  -11.4470    7.2860 C.3       9 GLL5        0.0000 
     70 CA        -38.8510  -14.7980    7.2320 C.3       6 GLP5        0.0000 
     71 CA        -41.5120   -1.3918    6.3955 C.3       3 GLC5        0.0000 
     72 CA        -39.8220   -2.9680    6.8920 C.3       9 GLL5        0.0000 
     73 CA        -43.4490   -0.3850    6.3560 C.3       6 GLP5        0.0000 
     74 CA        -40.8330   -3.2897    4.9845 C.3       3 GLC5        0.0000 
     75 CA        -42.0910   -4.1810    3.5340 C.3       6 GLP5        0.0000 
     76 CA        -38.3356   -2.4985    7.9489 C.3       3 GLC5        0.0000 
     77 CA        -37.1620   -2.2780    9.5490 C.3       6 GLP5        0.0000 
@<TRIPOS>BOND
@<TRIPOS>SUBSTRUCTURE
     1 ALC1        7 GROUP        1 X    ALC  0     ROOT ALC X 1
     2 SEC2       10 GROUP        1 X    SEC  0     **** SEC X 2
     3 GLC5        1 GROUP        1 X    GLC  0     **** GLC X 6
     4 ALP1        9 GROUP        1 Y    ALP  0     ROOT ALP Y 8
     5 SEP2       12 GROUP        1 Y    SEP  0     **** SEP Y 9
     6 GLP5        3 GROUP        1 Y    GLP  0     **** GLP Y 13
     7 ALL1        8 GROUP        1 Z    ALL  0     ROOT ALL Z 15
     8 SEL2       11 GROUP        1 Z    SEL  0     **** SEL Z 16
     9 GLL5        2 GROUP        1 Z    GLL  0     **** GLL Z 20
@<TRIPOS>SET

