#    Name: 4bj9_UHB_1_ligand
#    Modification time : Tue Mar 25 07:47:45 2014

@<TRIPOS>MOLECULE
4bj9_UHB_1_ligand
   67    72     1     0     0
SMALL
NO_CHARGES


@<TRIPOS>ATOM
      1 C01       -39.1070  -13.1260   16.1370 C.ar      1 UHB2165     0.0000 
      2 C02       -40.1500  -14.1740   16.0990 C.ar      1 UHB2165     0.0000 
      3 C03       -40.7960  -14.5070   14.8250 C.ar      1 UHB2165     0.0000 
      4 C04       -40.4200  -13.7560   13.5770 C.ar      1 UHB2165     0.0000 
      5 C05       -39.3270  -12.7120   13.6230 C.ar      1 UHB2165     0.0000 
      6 C06       -38.6970  -12.4090   14.8780 C.ar      1 UHB2165     0.0000 
      7 C07       -37.6910  -11.3820   14.6420 C.2       1 UHB2165     0.0000 
      8 C08       -38.7230  -11.8430   12.5980 C.3       1 UHB2165     0.0000 
      9 N09       -37.7190  -11.0440   13.2430 N.am      1 UHB2165     0.0000 
     10 O10       -36.9660  -10.8970   15.4660 O.2       1 UHB2165     0.0000 
     11 N11       -41.0940  -14.1200   12.3630 N.am      1 UHB2165     0.0000 
     12 C12       -41.5470  -13.2230   11.3090 C.2       1 UHB2165     0.0000 
     13 O13       -41.3890  -12.0050   11.3760 O.2       1 UHB2165     0.0000 
     14 C14       -42.2400  -13.9360   10.0940 C.3       1 UHB2165     0.0000 
     15 N15       -42.7430  -12.9510    9.1320 N.4       1 UHB2165     0.0000 
     16 C16       -41.6030  -12.5690    8.2900 C.3       1 UHB2165     0.0000 
     17 C17       -41.8420  -11.4470    7.2860 C.3       1 UHB2165     0.0000 
     18 N18       -42.7310  -10.4050    7.7660 N.am      1 UHB2165     0.0000 
     19 C19       -43.9600  -10.9700    8.1920 C.3       1 UHB2165     0.0000 
     20 C20       -43.7530  -11.9460    9.3240 C.3       1 UHB2165     0.0000 
     21 C21       -42.3960   -8.9750    7.8400 C.2       1 UHB2165     0.0000 
     22 C22       -41.0700   -8.4540    7.3730 C.3       1 UHB2165     0.0000 
     23 C23       -40.0110   -8.5320    8.4560 C.3       1 UHB2165     0.0000 
     24 C24       -39.7140   -7.1500    8.7590 C.3       1 UHB2165     0.0000 
     25 C25       -39.9860   -6.4940    7.4760 C.3       1 UHB2165     0.0000 
     26 O26       -41.2100   -7.0780    6.9960 O.3       1 UHB2165     0.0000 
     27 O27       -43.2050   -8.1570    8.2880 O.2       1 UHB2165     0.0000 
     28 O28       -38.9140   -9.2450    8.0070 O.3       1 UHB2165     0.0000 
     29 O29       -38.3640   -6.9700    9.2720 O.3       1 UHB2165     0.0000 
     30 N30       -40.0950   -5.0860    7.5180 N.pl3     1 UHB2165     0.0000 
     31 C31       -39.8220   -2.9680    6.8920 C.ar      1 UHB2165     0.0000 
     32 C32       -39.5590   -4.2500    6.5470 C.ar      1 UHB2165     0.0000 
     33 C33       -40.6990   -4.3120    8.4520 C.2       1 UHB2165     0.0000 
     34 N34       -40.5310   -3.0010    8.0840 N.2       1 UHB2165     0.0000 
     35 N35       -38.6220   -2.1140    4.7970 N.ar      1 UHB2165     0.0000 
     36 C36       -38.3470   -3.4590    4.4440 C.ar      1 UHB2165     0.0000 
     37 N37       -38.8190   -4.5400    5.3130 N.ar      1 UHB2165     0.0000 
     38 C38       -39.3280   -1.8290    5.9780 C.ar      1 UHB2165     0.0000 
     39 N39       -39.5760   -0.4930    6.3130 N.pl3     1 UHB2165     0.0000 
     40 H         -38.6645  -12.8838   16.9985 H         1 UHB2165     0.0000 
     41 H         -40.4087  -14.6484   16.9378 H         1 UHB2165     0.0000 
     42 H         -41.4831  -15.2250   14.7692 H         1 UHB2165     0.0000 
     43 H         -39.4967  -11.2136   12.1534 H         1 UHB2165     0.0000 
     44 H         -38.2847  -12.4601   11.8109 H         1 UHB2165     0.0000 
     45 H         -37.1749  -10.4112   12.8266 H         1 UHB2165     0.0000 
     46 H         -41.2866  -15.1529   12.2098 H         1 UHB2165     0.0000 
     47 H         -43.0484  -14.5491   10.4964 H         1 UHB2165     0.0000 
     48 H         -41.4982  -14.5948    9.6391 H         1 UHB2165     0.0000 
     49 H         -43.2934  -13.7296    8.3061 H         1 UHB2165     0.0000 
     50 H         -41.2329  -13.4616    7.7213 H         1 UHB2165     0.0000 
     51 H         -40.7359  -12.2698    8.9348 H         1 UHB2165     0.0000 
     52 H         -42.2416  -11.9047    6.3552 H         1 UHB2165     0.0000 
     53 H         -40.8524  -11.0217    7.0113 H         1 UHB2165     0.0000 
     54 H         -44.4663  -11.5075    7.3687 H         1 UHB2165     0.0000 
     55 H         -44.6653  -10.1921    8.5392 H         1 UHB2165     0.0000 
     56 H         -43.5366  -11.3468   10.2531 H         1 UHB2165     0.0000 
     57 H         -44.7475  -12.4279    9.5424 H         1 UHB2165     0.0000 
     58 H         -40.7352   -9.0389    6.5285 H         1 UHB2165     0.0000 
     59 H         -40.4905   -8.9884    9.3154 H         1 UHB2165     0.0000 
     60 H         -40.4566   -6.7990    9.4781 H         1 UHB2165     0.0000 
     61 H         -39.1856   -6.7979    6.7725 H         1 UHB2165     0.0000 
     62 H         -41.1622   -4.6157    9.2318 H         1 UHB2165     0.0000 
     63 H         -37.8343   -3.6912    3.6093 H         1 UHB2165     0.0000 
     64 H         -39.6625   -0.2928    7.2890 H         1 UHB2165     0.0000 
     65 H         -39.6455    0.1469    5.5477 H         1 UHB2165     0.0000 
     66 H         -38.1301   -8.8340    8.4724 H         1 UHB2165     0.0000 
     67 H         -38.4687   -6.9239   10.2654 H         1 UHB2165     0.0000 
@<TRIPOS>BOND
     1    2    1 ar   
     2    6    1 ar   
     3   40    1 1    
     4    3    2 ar   
     5   41    2 1    
     6    4    3 ar   
     7   42    3 1    
     8    5    4 ar   
     9   11    4 1    
    10    6    5 ar   
    11    8    5 1    
    12    7    6 1    
    13    9    7 am   
    14   10    7 2    
    15    9    8 1    
    16   43    8 1    
    17   44    8 1    
    18   45    9 1    
    19   12   11 am   
    20   46   11 1    
    21   13   12 2    
    22   14   12 1    
    23   15   14 1    
    24   47   14 1    
    25   48   14 1    
    26   16   15 1    
    27   20   15 1    
    28   49   15 1    
    29   17   16 1    
    30   50   16 1    
    31   51   16 1    
    32   18   17 1    
    33   52   17 1    
    34   53   17 1    
    35   19   18 1    
    36   21   18 am   
    37   20   19 1    
    38   54   19 1    
    39   55   19 1    
    40   56   20 1    
    41   57   20 1    
    42   22   21 1    
    43   27   21 2    
    44   23   22 1    
    45   26   22 1    
    46   58   22 1    
    47   24   23 1    
    48   28   23 1    
    49   59   23 1    
    50   25   24 1    
    51   29   24 1    
    52   60   24 1    
    53   26   25 1    
    54   30   25 1    
    55   61   25 1    
    56   66   28 1    
    57   67   29 1    
    58   32   30 1    
    59   33   30 1    
    60   32   31 ar   
    61   34   31 1    
    62   38   31 ar   
    63   37   32 ar   
    64   34   33 2    
    65   62   33 1    
    66   36   35 ar   
    67   38   35 ar   
    68   37   36 ar   
    69   63   36 1    
    70   39   38 1    
    71   64   39 1    
    72   65   39 1    
@<TRIPOS>SUBSTRUCTURE
     1 UHB2165     1 GROUP   
@<TRIPOS>SET

