#    Name: 1qjy_W03_1_INTS_M
#    Modification time : Mon Mar 24 23:35:47 2014

@<TRIPOS>MOLECULE
1qjy_W03_1_INTS_M
   77     0     3     0     0
SMALL
NO_CHARGES


@<TRIPOS>ATOM
      1 CA        129.0115 -123.3965   15.0870 C.3       1 GLC5        0.0000 
      2 CA        127.1680 -123.8120   14.1110 C.3       3 GLL5        0.0000 
      3 CA        130.8550 -122.9810   16.0630 C.3       2 GLP5        0.0000 
      4 CA        125.9935 -122.3780   13.5000 C.3       1 GLC5        0.0000 
      5 CA        124.8190 -120.9440   12.8890 C.3       2 GLP5        0.0000 
      6 CA        125.9520 -123.1475   15.6305 C.3       1 GLC5        0.0000 
      7 CA        124.7360 -122.4830   17.1500 C.3       2 GLP5        0.0000 
      8 CA        129.8710 -122.8670   14.2775 C.3       1 GLC5        0.0000 
      9 CA        128.8870 -122.7530   12.4920 C.3       3 GLL5        0.0000 
     10 CA        128.4605 -122.9485   10.5635 C.3       1 GLC5        0.0000 
     11 CA        128.0340 -123.1440    8.6350 C.3       2 GLP5        0.0000 
     12 CA        130.7465 -123.7650   13.7265 C.3       1 GLC5        0.0000 
     13 CA        129.9080 -123.2780   11.7990 C.3       3 GLL5        0.0000 
     14 CA        131.5850 -124.2520   15.6540 C.3       2 GLP5        0.0000 
     15 CA        129.3715 -124.4680   10.5210 C.3       1 GLC5        0.0000 
     16 CA        128.8350 -125.6580    9.2430 C.3       2 GLP5        0.0000 
     17 CA        130.5635 -121.9335    9.0515 C.3       1 GLC5        0.0000 
     18 CA        130.9430 -122.7510   10.8830 C.3       3 GLL5        0.0000 
     19 CA        130.1840 -121.1160    7.2200 C.3       2 GLP5        0.0000 
     20 CA        129.4885 -122.9475    9.7590 C.3       1 GLC5        0.0000 
     21 CA        132.7195 -123.5175   13.4110 C.3       1 GLC5        0.0000 
     22 CA        132.3620 -123.0590   11.3320 C.3       3 GLL5        0.0000 
     23 CA        133.0770 -123.9760   15.4900 C.3       2 GLP5        0.0000 
     24 CA        133.3940 -121.6730   12.7165 C.3       1 GLC5        0.0000 
     25 CA        134.4260 -120.2870   14.1010 C.3       2 GLP5        0.0000 
     26 CA        134.9355 -121.1240   10.5540 C.3       1 GLC5        0.0000 
     27 CA        133.3740 -122.5590   10.3190 C.3       3 GLL5        0.0000 
     28 CA        136.4970 -119.6890   10.7890 C.3       2 GLP5        0.0000 
     29 CA        134.0790 -121.1775    8.9790 C.3       1 GLC5        0.0000 
     30 CA        134.7840 -119.7960    7.6390 C.3       2 GLP5        0.0000 
     31 CA        134.2775 -125.0120    9.3470 C.3       1 GLC5        0.0000 
     32 CA        134.8800 -123.4730    8.6890 C.3       3 GLL5        0.0000 
     33 CA        133.6750 -126.5510   10.0050 C.3       2 GLP5        0.0000 
     34 CA        136.7125 -124.3575   12.1995 C.3       1 GLC5        0.0000 
     35 CA        136.8040 -124.0650   10.2070 C.3       3 GLL5        0.0000 
     36 CA        136.6210 -124.6500   14.1920 C.3       2 GLP5        0.0000 
     37 CA        136.8500 -126.0990   10.7715 C.3       1 GLC5        0.0000 
     38 CA        136.8960 -128.1330   11.3360 C.3       2 GLP5        0.0000 
     39 CA        135.2395 -125.3080   10.1060 C.3       1 GLC5        0.0000 
     40 CA        138.5230 -124.0960   11.1800 C.3       1 GLC5        0.0000 
     41 CA        140.2420 -124.1270   12.1530 C.3       2 GLP5        0.0000 
     42 CA        133.1735 -123.9695    5.5230 C.3       1 GLC5        0.0000 
     43 CA        132.9990 -122.9370    7.0260 C.3       3 GLL5        0.0000 
     44 CA        133.3480 -125.0020    4.0200 C.3       2 GLP5        0.0000 
     45 CA        131.5915 -122.0265    7.1230 C.3       1 GLC5        0.0000 
     46 CA        135.8170 -120.3955    4.8655 C.3       1 GLC5        0.0000 
     47 CA        137.2000 -121.8710    4.4040 C.3       3 GLL5        0.0000 
     48 CA        134.4340 -118.9200    5.3270 C.3       2 GLP5        0.0000 
     49 CA        142.1370 -123.7005    3.9840 C.3       1 GLC5        0.0000 
     50 CA        140.6690 -122.4970    3.6760 C.3       3 GLL5        0.0000 
     51 CA        143.6050 -124.9040    4.2920 C.3       2 GLP5        0.0000 
     52 CA        141.7180 -121.1155    3.3660 C.3       1 GLC5        0.0000 
     53 CA        142.7670 -119.7340    3.0560 C.3       2 GLP5        0.0000 
     54 CA        140.1905 -121.4355    5.2095 C.3       1 GLC5        0.0000 
     55 CA        139.7120 -120.3740    6.7430 C.3       2 GLP5        0.0000 
     56 CA        140.1415 -124.3595    4.6215 C.3       1 GLC5        0.0000 
     57 CA        139.6140 -126.2220    5.5670 C.3       2 GLP5        0.0000 
     58 CA        133.2715 -124.6800   10.4153 C.3       1 GLC5        0.0000 
     59 CA        135.1842 -121.6700    8.2110 C.3       1 GLC5        0.0000 
     60 CA        135.7302 -125.0797    7.7175 C.3       1 GLC5        0.0000 
     61 CA        136.2890 -123.6150    8.8770 C.3       3 GLL5        0.0000 
     62 CA        134.7030 -126.6810    7.0800 C.3       2 GLP5        0.0000 
     63 CA        137.3116 -122.0590    9.7482 C.3       1 GLC5        0.0000 
     64 CA        137.7370 -120.5270   10.8090 C.3       2 GLP5        0.0000 
     65 CA        135.8862 -121.4598    7.4185 C.3       1 GLC5        0.0000 
     66 CA        137.2260 -123.3420    7.8330 C.3       3 GLL5        0.0000 
     67 CA        135.3788 -124.7597    6.7710 C.3       1 GLC5        0.0000 
     68 CA        136.7510 -122.9050    6.5630 C.3       3 GLL5        0.0000 
     69 CA        136.2733 -123.3658    4.3260 C.3       1 GLC5        0.0000 
     70 CA        135.3580 -122.7720    6.3610 C.3       3 GLL5        0.0000 
     71 CA        136.4920 -123.8930    2.1900 C.3       2 GLP5        0.0000 
     72 CA        134.2135 -124.8385    7.1442 C.3       1 GLC5        0.0000 
     73 CA        134.4490 -123.0550    7.3910 C.3       3 GLL5        0.0000 
     74 CA        134.3676 -121.3606    7.2950 C.3       1 GLC5        0.0000 
     75 CA        136.9502 -123.0725    3.5565 C.3       1 GLC5        0.0000 
     76 CA        137.6170 -122.6330    5.4420 C.3       3 GLL5        0.0000 
     77 CA        138.4584 -124.5501    5.9435 C.3       1 GLC5        0.0000 
@<TRIPOS>BOND
@<TRIPOS>SUBSTRUCTURE
     1 GLC5        1 GROUP        1 X    GLC  0     ROOT GLC X 6
     2 GLP5        3 GROUP        1 Y    GLP  0     ROOT GLP Y 13
     3 GLL5        2 GROUP        1 Z    GLL  0     ROOT GLL Z 20
@<TRIPOS>SET

