#    Name: 1qjy_W03_1_ligand
#    Modification time : Mon Mar 24 23:35:47 2014

@<TRIPOS>MOLECULE
1qjy_W03_1_ligand
   46    48     1     0     0
SMALL
NO_CHARGES


@<TRIPOS>ATOM
      1 O1        129.9830 -124.5930   12.0460 O.3       1 W037003     0.0000 
      2 N2        128.9530 -124.9240   12.9460 N.2       1 W037003     0.0000 
      3 C3        128.3240 -123.8170   13.1900 C.2       1 W037003     0.0000 
      4 CM3       127.1680 -123.8120   14.1110 C.3       1 W037003     0.0000 
      5 C4        128.8870 -122.7530   12.4920 C.2       1 W037003     0.0000 
      6 C5        129.9080 -123.2780   11.7990 C.2       1 W037003     0.0000 
      7 C1C       130.9430 -122.7510   10.8830 C.3       1 W037003     0.0000 
      8 C2C       132.3620 -123.0590   11.3320 C.3       1 W037003     0.0000 
      9 C3C       133.3740 -122.5590   10.3190 C.3       1 W037003     0.0000 
     10 O1B       133.9940 -123.6510    9.7060 O.3       1 W037003     0.0000 
     11 C1B       134.8800 -123.4730    8.6890 C.ar      1 W037003     0.0000 
     12 C2B       136.2890 -123.6150    8.8770 C.ar      1 W037003     0.0000 
     13 CM2       136.8040 -124.0650   10.2070 C.3       1 W037003     0.0000 
     14 C3B       137.2260 -123.3420    7.8330 C.ar      1 W037003     0.0000 
     15 C4B       136.7510 -122.9050    6.5630 C.ar      1 W037003     0.0000 
     16 C5B       135.3580 -122.7720    6.3610 C.ar      1 W037003     0.0000 
     17 C6B       134.4490 -123.0550    7.3910 C.ar      1 W037003     0.0000 
     18 CM6       132.9990 -122.9370    7.0260 C.3       1 W037003     0.0000 
     19 C2A       137.6170 -122.6330    5.4420 C.2       1 W037003     0.0000 
     20 C1A       137.2000 -121.8710    4.4040 C.2       1 W037003     0.0000 
     21 N3A       138.9290 -122.9350    5.2900 N.2       1 W037003     0.0000 
     22 C4A       139.2800 -122.3540    4.1630 C.2       1 W037003     0.0000 
     23 CM4       140.6690 -122.4970    3.6760 C.3       1 W037003     0.0000 
     24 O5A       138.2530 -121.6760    3.5710 O.3       1 W037003     0.0000 
     25 H         128.5899 -121.8606   12.5211 H         1 W037003     0.0000 
     26 H         130.8385 -121.6538   10.7855 H         1 W037003     0.0000 
     27 H         130.7994 -123.1699    9.8691 H         1 W037003     0.0000 
     28 H         132.4747 -124.1380   11.4544 H         1 W037003     0.0000 
     29 H         132.5467 -122.5799   12.2954 H         1 W037003     0.0000 
     30 H         134.0891 -121.9171   10.8535 H         1 W037003     0.0000 
     31 H         132.8372 -121.9239    9.5995 H         1 W037003     0.0000 
     32 H         138.2179 -123.4587    7.9965 H         1 W037003     0.0000 
     33 H         135.0107 -122.4626    5.4428 H         1 W037003     0.0000 
     34 H         136.3107 -121.5262    4.2770 H         1 W037003     0.0000 
     35 H         127.4209 -124.1261   15.0261 H         1 W037003     0.0000 
     36 H         126.7780 -122.8968   14.2126 H         1 W037003     0.0000 
     37 H         126.4337 -124.4093   13.7886 H         1 W037003     0.0000 
     38 H         137.8020 -124.1279   10.2169 H         1 W037003     0.0000 
     39 H         136.5427 -123.4355   10.9388 H         1 W037003     0.0000 
     40 H         136.4510 -124.9668   10.4562 H         1 W037003     0.0000 
     41 H         132.8774 -122.6310    6.0818 H         1 W037003     0.0000 
     42 H         132.5214 -123.8111    7.1146 H         1 W037003     0.0000 
     43 H         132.5211 -122.2813    7.6105 H         1 W037003     0.0000 
     44 H         141.3313 -122.1310    4.3298 H         1 W037003     0.0000 
     45 H         140.9107 -123.4545    3.5188 H         1 W037003     0.0000 
     46 H         140.8115 -122.0132    2.8125 H         1 W037003     0.0000 
@<TRIPOS>BOND
     1    2    1 1    
     2    6    1 1    
     3    3    2 2    
     4    4    3 1    
     5    5    3 1    
     6   35    4 1    
     7   36    4 1    
     8   37    4 1    
     9    6    5 2    
    10   25    5 1    
    11    7    6 1    
    12    8    7 1    
    13   26    7 1    
    14   27    7 1    
    15    9    8 1    
    16   28    8 1    
    17   29    8 1    
    18   10    9 1    
    19   30    9 1    
    20   31    9 1    
    21   11   10 1    
    22   12   11 ar   
    23   17   11 ar   
    24   13   12 1    
    25   14   12 ar   
    26   38   13 1    
    27   39   13 1    
    28   40   13 1    
    29   15   14 ar   
    30   32   14 1    
    31   16   15 ar   
    32   19   15 1    
    33   17   16 ar   
    34   33   16 1    
    35   18   17 1    
    36   41   18 1    
    37   42   18 1    
    38   43   18 1    
    39   20   19 2    
    40   21   19 1    
    41   24   20 1    
    42   34   20 1    
    43   22   21 2    
    44   23   22 1    
    45   24   22 1    
    46   44   23 1    
    47   45   23 1    
    48   46   23 1    
@<TRIPOS>SUBSTRUCTURE
     1 W037003     1 GROUP   
@<TRIPOS>SET

