#    Name: 3EFQ_2_CAVITY_N1_6.mol2
#    Modification time : Mon Mar 10 13:14:53 2014

@<TRIPOS>MOLECULE
3EFQ_2_CAVITY_N1_6.mol2
  101     0     7     0     0
SMALL
NO_CHARGES


@<TRIPOS>ATOM
      1 OG         26.4323  -43.4596   19.0725 O.2       1 SER1        0.0000 
      2 OG         27.5916  -44.0290   18.3098 O.2       1 SER1        0.0000 
      3 CA         24.5671  -42.5980   18.5443 C.3       6 GLY6        0.0000 
      4 DU         25.7264  -43.1674   17.7816 H         7 CUB7        0.0000 
      5 N          26.8858  -43.7369   17.0188 N.2       2 ALA2        0.0000 
      6 N          28.0451  -44.3063   16.2561 N.2       2 ALA2        0.0000 
      7 NZ         25.0206  -42.8753   16.4906 N.2       4 LYS4        0.0000 
      8 CA         26.1799  -43.4447   15.7279 C.3       6 GLY6        0.0000 
      9 OG         27.0709  -42.1030   19.0303 O.2       1 SER1        0.0000 
     10 OG         28.2302  -42.6724   18.2676 O.2       1 SER1        0.0000 
     11 CA         25.2057  -41.2414   18.5021 C.3       6 GLY6        0.0000 
     12 CA         26.3651  -41.8108   17.7394 C.3       6 GLY6        0.0000 
     13 N          27.5244  -42.3803   16.9767 N.2       2 ALA2        0.0000 
     14 N          28.6837  -42.9497   16.2140 N.2       2 ALA2        0.0000 
     15 NZ         25.6592  -41.5187   16.4485 N.2       4 LYS4        0.0000 
     16 N          26.8186  -42.0881   15.6858 N.2       2 ALA2        0.0000 
     17 N          27.9779  -42.6576   14.9230 N.2       2 ALA2        0.0000 
     18 CZ         28.8688  -41.3158   18.2255 C.ar      5 PHE5        0.0000 
     19 CA         27.0037  -40.4542   17.6972 C.3       6 GLY6        0.0000 
     20 CA         28.1630  -41.0236   16.9345 C.3       6 GLY6        0.0000 
     21 CA         29.3223  -41.5931   16.1718 C.3       6 GLY6        0.0000 
     22 CA         26.2979  -40.1621   16.4063 C.3       6 GLY6        0.0000 
     23 N          27.4572  -40.7315   15.6436 N.2       2 ALA2        0.0000 
     24 N          28.6165  -41.3009   14.8809 N.2       2 ALA2        0.0000 
     25 CZ         28.8016  -39.6670   16.8924 C.ar      5 PHE5        0.0000 
     26 N          26.9365  -38.8055   16.3642 N.2       2 ALA2        0.0000 
     27 N          28.0958  -39.3749   15.6015 N.2       2 ALA2        0.0000 
     28 N          29.2551  -39.9443   14.8387 N.2       2 ALA2        0.0000 
     29 N          27.5751  -37.4488   16.3220 N.2       2 ALA2        0.0000 
     30 CZ         28.7344  -38.0183   15.5593 C.ar      5 PHE5        0.0000 
     31 N          29.8937  -38.5877   14.7966 N.2       2 ALA2        0.0000 
     32 O          26.8693  -37.1567   15.0311 O.2       2 ALA2        0.0000 
     33 CA         28.0286  -37.7261   14.2684 C.3       6 GLY6        0.0000 
     34 CZ         28.2137  -36.0922   16.2799 C.ar      5 PHE5        0.0000 
     35 CZ         29.3730  -36.6617   15.5171 C.ar      5 PHE5        0.0000 
     36 CA         30.5323  -37.2311   14.7544 C.3       6 GLY6        0.0000 
     37 CA         27.5079  -35.8001   14.9889 C.3       6 GLY6        0.0000 
     38 N          28.6672  -36.3695   14.2262 N.2       2 ALA2        0.0000 
     39 N          29.8265  -36.9390   13.4635 N.2       2 ALA2        0.0000 
     40 CZ         31.8767  -36.1666   16.0032 C.ar      5 PHE5        0.0000 
     41 N          28.8523  -34.7356   16.2377 N.2       2 ALA2        0.0000 
     42 N          30.0116  -35.3051   15.4750 N.2       2 ALA2        0.0000 
     43 CA         31.1709  -35.8745   14.7123 C.3       6 GLY6        0.0000 
     44 CA         28.1465  -34.4435   14.9468 C.3       6 GLY6        0.0000 
     45 CA         29.3058  -35.0129   14.1841 C.3       6 GLY6        0.0000 
     46 NZ         32.5154  -34.8100   15.9610 N.2       4 LYS4        0.0000 
     47 N          30.6502  -33.9484   15.4328 N.2       2 ALA2        0.0000 
     48 CA         31.8095  -34.5179   14.6701 C.3       6 GLY6        0.0000 
     49 CA         28.7851  -33.0869   14.9046 C.3       6 GLY6        0.0000 
     50 O          22.9708  -48.3314   23.3484 O.2       2 ALA2        0.0000 
     51 O          24.1301  -48.9009   22.5857 O.2       2 ALA2        0.0000 
     52 CA         23.1559  -46.6975   25.3599 C.3       6 GLY6        0.0000 
     53 OD1        24.3152  -47.2670   24.5972 O.3       3 ASP3        0.0000 
     54 CA         20.1315  -45.2665   25.5944 C.3       6 GLY6        0.0000 
     55 CA         21.2908  -45.8360   24.8317 C.3       6 GLY6        0.0000 
     56 CA         22.4501  -46.4054   24.0689 C.3       6 GLY6        0.0000 
     57 DU         23.6094  -46.9748   23.3062 H         7 CUB7        0.0000 
     58 CZ         24.7687  -47.5443   22.5435 C.ar      5 PHE5        0.0000 
     59 O          20.5850  -45.5438   23.5407 O.2       2 ALA2        0.0000 
     60 OD1        22.9036  -46.6827   22.0153 O.3       3 ASP3        0.0000 
     61 NZ         24.0629  -47.2521   21.2526 N.2       4 LYS4        0.0000 
     62 CZ         25.2222  -47.8216   20.4899 C.ar      5 PHE5        0.0000 
     63 NZ         24.5164  -47.5294   19.1989 N.2       4 LYS4        0.0000 
     64 N          23.7945  -45.3409   25.3177 N.2       2 ALA2        0.0000 
     65 N          24.9538  -45.9104   24.5550 N.2       2 ALA2        0.0000 
     66 CA         20.7701  -43.9099   25.5522 C.3       6 GLY6        0.0000 
     67 O          21.9294  -44.4793   24.7895 O.2       2 ALA2        0.0000 
     68 O          23.0887  -45.0488   24.0268 O.2       2 ALA2        0.0000 
     69 N          24.2480  -45.6182   23.2641 N.2       2 ALA2        0.0000 
     70 O          25.4073  -46.1876   22.5014 O.2       2 ALA2        0.0000 
     71 O          26.5667  -46.7571   21.7386 O.2       2 ALA2        0.0000 
     72 O          20.0643  -43.6178   24.2613 O.2       2 ALA2        0.0000 
     73 O          23.5422  -45.3261   21.9732 O.2       2 ALA2        0.0000 
     74 DU         24.7015  -45.8955   21.2104 H         7 CUB7        0.0000 
     75 CZ         25.8608  -46.4649   20.4477 C.ar      5 PHE5        0.0000 
     76 N          27.0202  -47.0344   19.6850 N.2       2 ALA2        0.0000 
     77 O          22.8364  -45.0339   20.6822 O.2       2 ALA2        0.0000 
     78 NZ         23.9957  -45.6034   19.9195 N.2       4 LYS4        0.0000 
     79 N          25.1550  -46.1728   19.1568 N.2       2 ALA2        0.0000 
     80 O          22.1306  -44.7418   19.3913 O.2       2 ALA2        0.0000 
     81 NZ         23.2899  -45.3112   18.6286 N.2       4 LYS4        0.0000 
     82 NZ         24.4492  -45.8807   17.8659 N.2       4 LYS4        0.0000 
     83 OD1        22.5841  -45.0191   17.3377 O.3       3 ASP3        0.0000 
     84 OD1        23.7434  -45.5885   16.5749 O.3       3 ASP3        0.0000 
     85 N          24.4331  -43.9843   25.2756 N.2       2 ALA2        0.0000 
     86 CA         22.5680  -43.1227   24.7474 C.3       6 GLY6        0.0000 
     87 CA         23.7273  -43.6922   23.9846 C.3       6 GLY6        0.0000 
     88 O          24.1808  -43.9695   21.9310 O.2       2 ALA2        0.0000 
     89 N          25.3401  -44.5389   21.1683 N.2       2 ALA2        0.0000 
     90 OG         26.4995  -45.1083   20.4056 O.2       1 SER1        0.0000 
     91 OG         27.6588  -45.6778   19.6428 O.2       1 SER1        0.0000 
     92 CA         24.6343  -44.2468   19.8774 C.3       6 GLY6        0.0000 
     93 OG         25.7936  -44.8162   19.1146 O.2       1 SER1        0.0000 
     94 OG         26.9530  -45.3856   18.3519 O.2       1 SER1        0.0000 
     95 O          22.7692  -43.3852   19.3492 O.2       2 ALA2        0.0000 
     96 NZ         23.9285  -43.9546   18.5864 N.2       4 LYS4        0.0000 
     97 DU         25.0878  -44.5240   17.8237 H         7 CUB7        0.0000 
     98 OG         26.2471  -45.0935   17.0610 O.2       1 SER1        0.0000 
     99 NZ         23.2227  -43.6625   17.2955 N.2       4 LYS4        0.0000 
    100 OD1        24.3820  -44.2319   16.5328 O.3       3 ASP3        0.0000 
    101 OD1        25.5413  -44.8013   15.7701 O.3       3 ASP3        0.0000 
@<TRIPOS>BOND
@<TRIPOS>SUBSTRUCTURE
     1 SER1        1 GROUP   
     2 ALA2        5 GROUP   
     3 ASP3       53 GROUP   
     4 LYS4        7 GROUP   
     5 PHE5       18 GROUP   
     6 GLY6        3 GROUP   
     7 CUB7        4 GROUP   
@<TRIPOS>SET

