#    Name: 3efq_714_2_INTS_M
#    Modification time : Tue Mar 25 01:44:58 2014

@<TRIPOS>MOLECULE
3efq_714_2_INTS_M
   84     0    12     0     0
SMALL
NO_CHARGES


@<TRIPOS>ATOM
      1 NZ         20.6870  -46.6265   19.6875 N.4       2 LYC4        0.0000 
      2 NZ         21.0910  -46.2150   18.3840 N.4      10 LYL4        0.0000 
      3 NZ         20.2830  -47.0380   20.9910 N.4       6 LYP4        0.0000 
      4 Zn         20.9995  -46.8355   17.5130 Zn        3 ZIC7        0.0000 
      5 Zn         21.0910  -46.2150   18.3840 Zn       11 ZIL7        0.0000 
      6 Zn         20.9080  -47.4560   16.6420 Zn        7 ZIP7        0.0000 
      7 N          20.6870  -46.6265   19.6875 N.am      1 SEC2        0.0000 
      8 N          21.0910  -46.2150   18.3840 N.am      9 SEL2        0.0000 
      9 N          20.2830  -47.0380   20.9910 N.am      5 SEP2        0.0000 
     10 Zn         20.8240  -43.1985   17.0085 Zn        3 ZIC7        0.0000 
     11 Zn         20.8820  -43.7300   17.9230 Zn       11 ZIL7        0.0000 
     12 Zn         20.7660  -42.6670   16.0940 Zn        7 ZIP7        0.0000 
     13 N          20.7870  -42.7055   19.1795 N.am      1 SEC2        0.0000 
     14 N          20.8820  -43.7300   17.9230 N.am      9 SEL2        0.0000 
     15 N          20.6920  -41.6810   20.4360 N.am      5 SEP2        0.0000 
     16 NZ         21.6585  -43.9860   20.9505 N.4       2 LYC4        0.0000 
     17 NZ         22.0010  -44.5760   20.0360 N.4      10 LYL4        0.0000 
     18 NZ         20.7270  -42.2310   21.6500 N.4       6 LYP4        0.0000 
     19 NZ         21.1420  -45.8070   20.5135 N.4       2 LYC4        0.0000 
     20 N          21.6585  -43.9860   20.9505 N.am      1 SEC2        0.0000 
     21 N          22.0010  -44.5760   20.0360 N.am      9 SEL2        0.0000 
     22 N          21.3160  -43.3960   21.8650 N.am      5 SEP2        0.0000 
     23 N          21.1420  -45.8070   20.5135 N.am      1 SEC2        0.0000 
     24 Zn         21.5680  -46.8835   16.1020 Zn        3 ZIC7        0.0000 
     25 Zn         22.2280  -46.3110   15.5620 Zn       11 ZIL7        0.0000 
     26 NZ         24.9475  -45.9685   14.2100 N.4       2 LYC4        0.0000 
     27 NZ         24.5250  -45.2990   15.3170 N.4      10 LYL4        0.0000 
     28 NZ         25.3700  -46.6380   13.1030 N.4       6 LYP4        0.0000 
     29 N          24.9475  -45.9685   14.2100 N.am      1 SEC2        0.0000 
     30 N          24.5250  -45.2990   15.3170 N.am      9 SEL2        0.0000 
     31 N          25.3700  -46.6380   13.1030 N.am      5 SEP2        0.0000 
     32 Zn         21.6320  -43.2530   15.7285 Zn        3 ZIC7        0.0000 
     33 Zn         22.4980  -43.8390   15.3630 Zn       11 ZIL7        0.0000 
     34 Zn         22.6600  -43.2045   14.5105 Zn        3 ZIC7        0.0000 
     35 Zn         22.8220  -42.5700   13.6580 Zn        7 ZIP7        0.0000 
     36 CA         24.3360  -42.3970   19.7425 C.3       4 GLC5        0.0000 
     37 CA         24.0150  -43.6720   18.1140 C.3      12 GLL5        0.0000 
     38 CA         24.6570  -41.1220   21.3710 C.3       8 GLP5        0.0000 
     39 CA         25.1795  -41.6510   19.3035 C.3       4 GLC5        0.0000 
     40 CA         25.7020  -42.1800   17.2360 C.3      12 GLL5        0.0000 
     41 CA         27.5125  -40.3130   18.0980 C.3       4 GLC5        0.0000 
     42 CA         26.9550  -41.8670   16.7090 C.3      12 GLL5        0.0000 
     43 CA         28.0700  -38.7590   19.4870 C.3       8 GLP5        0.0000 
     44 CA         28.9100  -43.7225   14.9425 C.3       4 GLC5        0.0000 
     45 CA         27.8880  -42.8720   16.4940 C.3      12 GLL5        0.0000 
     46 CA         29.9320  -44.5730   13.3910 C.3       8 GLP5        0.0000 
     47 CA         28.2205  -39.4600   17.5735 C.3       4 GLC5        0.0000 
     48 CA         28.3710  -40.1610   15.6600 C.3      12 GLL5        0.0000 
     49 CA         30.2630  -40.6500   16.0550 C.3       4 GLC5        0.0000 
     50 CA         32.1550  -41.1390   16.4500 C.3       8 GLP5        0.0000 
     51 CA         28.5970  -39.9585   13.6395 C.3       4 GLC5        0.0000 
     52 CA         28.8230  -39.7560   11.6190 C.3       8 GLP5        0.0000 
     53 CA         27.8260  -38.9455   13.5600 C.3       4 GLC5        0.0000 
     54 CA         28.2640  -38.6630   15.3970 C.3      12 GLL5        0.0000 
     55 CA         27.3880  -39.2280   11.7230 C.3       8 GLP5        0.0000 
     56 CA         30.8660  -39.6050   15.6670 C.3       4 GLC5        0.0000 
     57 CA         29.5770  -38.0710   14.8840 C.3      12 GLL5        0.0000 
     58 CA         31.1695  -38.1715   13.6265 C.3       4 GLC5        0.0000 
     59 CA         32.7620  -38.2720   12.3690 C.3       8 GLP5        0.0000 
     60 CA         29.2000  -38.9135   13.2515 C.3       4 GLC5        0.0000 
     61 CA         28.0830  -37.5435   12.9075 C.3       4 GLC5        0.0000 
     62 CA         28.7780  -35.8590   14.0920 C.3      12 GLL5        0.0000 
     63 CA         26.4560  -34.3740   15.5270 C.3       4 GLC5        0.0000 
     64 CA         27.8850  -34.7590   14.6400 C.3      12 GLL5        0.0000 
     65 CA         25.0270  -33.9890   16.4140 C.3       8 GLP5        0.0000 
     66 CA         26.6655  -31.7555   13.4100 C.3       4 GLC5        0.0000 
     67 CA         28.1320  -32.2480   14.7790 C.3      12 GLL5        0.0000 
     68 CA         25.1990  -31.2630   12.0410 C.3       8 GLP5        0.0000 
     69 CA         24.9037  -40.6502   16.7553 C.3       4 GLC5        0.0000 
     70 CA         23.4790  -39.2770   16.5380 C.3       8 GLP5        0.0000 
     71 CA         27.2573  -44.9447   15.2240 C.3       4 GLC5        0.0000 
     72 CA         26.2560  -44.4210   17.3840 C.3      12 GLL5        0.0000 
     73 CA         27.6290  -45.5930   13.3330 C.3       8 GLP5        0.0000 
     74 CA         30.1185  -34.9940   13.4363 C.3       4 GLC5        0.0000 
     75 CA         29.6200  -36.5610   15.1450 C.3      12 GLL5        0.0000 
     76 CA         31.0380  -33.7780   12.2540 C.3       8 GLP5        0.0000 
     77 CA         29.6896  -37.5500   16.8089 C.3       4 GLC5        0.0000 
     78 CA         30.1090  -37.6360   18.4750 C.3       8 GLP5        0.0000 
     79 CA         26.9603  -35.2120   13.2235 C.3       4 GLC5        0.0000 
     80 CA         25.5890  -35.1150   12.0810 C.3       8 GLP5        0.0000 
     81 CA         27.0365  -32.9292   16.1675 C.3       4 GLC5        0.0000 
     82 CA         25.6550  -32.9350   17.3610 C.3       8 GLP5        0.0000 
     83 CA         28.6901  -32.6342   13.5889 C.3       4 GLC5        0.0000 
     84 CA         29.1670  -32.0550   12.3360 C.3       8 GLP5        0.0000 
@<TRIPOS>BOND
@<TRIPOS>SUBSTRUCTURE
     1 SEC2        7 GROUP        1 X    SEC  0     ROOT SEC X 2
     2 LYC4        1 GROUP        1 X    LYC  0     **** LYC X 4
     3 ZIC7        4 GROUP        1 X    ZIC  0     **** ZIC X 5
     4 GLC5       36 GROUP        1 X    GLC  0     **** GLC X 6
     5 SEP2        9 GROUP        1 Y    SEP  0     ROOT SEP Y 9
     6 LYP4        3 GROUP        1 Y    LYP  0     **** LYP Y 11
     7 ZIP7        6 GROUP        1 Y    ZIP  0     **** ZIP Y 12
     8 GLP5       38 GROUP        1 Y    GLP  0     **** GLP Y 13
     9 SEL2        8 GROUP        1 Z    SEL  0     ROOT SEL Z 16
    10 LYL4        2 GROUP        1 Z    LYL  0     **** LYL Z 18
    11 ZIL7        5 GROUP        1 Z    ZIL  0     **** ZIL Z 19
    12 GLL5       37 GROUP        1 Z    GLL  0     **** GLL Z 20
@<TRIPOS>SET

