#    Name: 3efq_714_2_ligand
#    Modification time : Tue Mar 25 01:44:58 2014

@<TRIPOS>MOLECULE
3efq_714_2_ligand
   49    49     1     0     0
SMALL
NO_CHARGES


@<TRIPOS>ATOM
      1 O1         21.0910  -46.2150   18.3840 O.co2     1 7144001     0.0000 
      2 P1         21.6470  -44.8400   18.5830 P.3       1 7144001     0.0000 
      3 O3         20.8820  -43.7300   17.9230 O.co2     1 7144001     0.0000 
      4 O2         22.0010  -44.5760   20.0360 O.co2     1 7144001     0.0000 
      5 C1         23.2500  -44.9400   17.6920 C.3       1 7144001     0.0000 
      6 P2         23.1090  -45.1210   15.8520 P.3       1 7144001     0.0000 
      7 O4         22.2280  -46.3110   15.5620 O.co2     1 7144001     0.0000 
      8 O5         24.5250  -45.2990   15.3170 O.co2     1 7144001     0.0000 
      9 O6         22.4980  -43.8390   15.3630 O.co2     1 7144001     0.0000 
     10 C2         24.0150  -43.6720   18.1140 C.3       1 7144001     0.0000 
     11 N1         25.3560  -43.4360   17.5420 N.pl3     1 7144001     0.0000 
     12 C7         25.7020  -42.1800   17.2360 C.ar      1 7144001     0.0000 
     13 C6         26.9550  -41.8670   16.7090 C.ar      1 7144001     0.0000 
     14 C5         27.8880  -42.8720   16.4940 C.ar      1 7144001     0.0000 
     15 C4         27.5150  -44.1720   16.8460 C.ar      1 7144001     0.0000 
     16 C3         26.2560  -44.4210   17.3840 C.ar      1 7144001     0.0000 
     17 O7         27.2320  -40.5550   16.4090 O.3       1 7144001     0.0000 
     18 C8         28.3710  -40.1610   15.6600 C.3       1 7144001     0.0000 
     19 C9         28.2640  -38.6630   15.3970 C.3       1 7144001     0.0000 
     20 C10        29.5770  -38.0710   14.8840 C.3       1 7144001     0.0000 
     21 C11        29.6200  -36.5610   15.1450 C.3       1 7144001     0.0000 
     22 C12        28.7780  -35.8590   14.0920 C.3       1 7144001     0.0000 
     23 C13        27.8850  -34.7590   14.6400 C.3       1 7144001     0.0000 
     24 C14        28.7040  -33.5990   15.1690 C.3       1 7144001     0.0000 
     25 C15        28.1320  -32.2480   14.7790 C.3       1 7144001     0.0000 
     26 H          23.6946  -45.8187   18.0452 H         1 7144001     0.0000 
     27 H          24.0791  -43.6801   19.2394 H         1 7144001     0.0000 
     28 H          23.3480  -42.7907   17.8924 H         1 7144001     0.0000 
     29 H          25.0275  -41.3896   17.3881 H         1 7144001     0.0000 
     30 H          28.7950  -42.6775   16.1018 H         1 7144001     0.0000 
     31 H          28.1770  -44.9478   16.7055 H         1 7144001     0.0000 
     32 H          26.0259  -45.4015   17.6645 H         1 7144001     0.0000 
     33 H          28.4240  -40.6668   14.6957 H         1 7144001     0.0000 
     34 H          29.3006  -40.3400   16.2007 H         1 7144001     0.0000 
     35 H          27.9806  -38.1538   16.3240 H         1 7144001     0.0000 
     36 H          27.4775  -38.4824   14.6570 H         1 7144001     0.0000 
     37 H          29.6605  -38.2514   13.8162 H         1 7144001     0.0000 
     38 H          30.4099  -38.5456   15.3947 H         1 7144001     0.0000 
     39 H          30.6426  -36.2184   15.0821 H         1 7144001     0.0000 
     40 H          29.2186  -36.3585   16.1273 H         1 7144001     0.0000 
     41 H          28.1497  -36.6085   13.5771 H         1 7144001     0.0000 
     42 H          29.4480  -35.4291   13.3253 H         1 7144001     0.0000 
     43 H          27.2679  -35.1644   15.4457 H         1 7144001     0.0000 
     44 H          27.2234  -34.4035   13.8460 H         1 7144001     0.0000 
     45 H          29.7320  -33.6781   14.7863 H         1 7144001     0.0000 
     46 H          28.7566  -33.6641   16.2656 H         1 7144001     0.0000 
     47 H          28.6815  -31.4941   15.1391 H         1 7144001     0.0000 
     48 H          28.0926  -32.1339   13.7863 H         1 7144001     0.0000 
     49 H          27.2021  -32.1244   15.1253 H         1 7144001     0.0000 
@<TRIPOS>BOND
     1    2    1 ar   
     2    3    2 ar   
     3    4    2 ar   
     4    5    2 1    
     5    6    5 1    
     6   10    5 1    
     7   26    5 1    
     8    7    6 ar   
     9    8    6 ar   
    10    9    6 ar   
    11   11   10 1    
    12   27   10 1    
    13   28   10 1    
    14   12   11 ar   
    15   16   11 ar   
    16   13   12 ar   
    17   29   12 1    
    18   14   13 ar   
    19   17   13 1    
    20   15   14 ar   
    21   30   14 1    
    22   16   15 ar   
    23   31   15 1    
    24   32   16 1    
    25   18   17 1    
    26   19   18 1    
    27   33   18 1    
    28   34   18 1    
    29   20   19 1    
    30   35   19 1    
    31   36   19 1    
    32   21   20 1    
    33   37   20 1    
    34   38   20 1    
    35   22   21 1    
    36   39   21 1    
    37   40   21 1    
    38   23   22 1    
    39   41   22 1    
    40   42   22 1    
    41   24   23 1    
    42   43   23 1    
    43   44   23 1    
    44   25   24 1    
    45   45   24 1    
    46   46   24 1    
    47   47   25 1    
    48   48   25 1    
    49   49   25 1    
@<TRIPOS>SUBSTRUCTURE
     1 7144001     1 GROUP   
@<TRIPOS>SET

