#    Name: 3tp0_FO5_1_INTS_M
#    Modification time : Mon Mar 24 20:46:37 2014

@<TRIPOS>MOLECULE
3tp0_FO5_1_INTS_M
   51     0     6     0     0
SMALL
NO_CHARGES


@<TRIPOS>ATOM
      1 N         -12.2545  -25.4325    0.2700 N.am      1 SEC2        0.0000 
      2 N         -12.0980  -26.7400    0.7250 N.am      5 SEL2        0.0000 
      3 N         -12.4110  -24.1250   -0.1850 N.am      3 SEP2        0.0000 
      4 CA         -4.2340  -26.7640    1.5845 C.3       2 GLC5        0.0000 
      5 CA         -3.1370  -26.2080    2.8490 C.3       6 GLL5        0.0000 
      6 CA         -5.3310  -27.3200    0.3200 C.3       4 GLP5        0.0000 
      7 CA        -12.1445  -29.1300    1.5795 C.3       2 GLC5        0.0000 
      8 CA        -12.8520  -27.9390    2.7210 C.3       6 GLL5        0.0000 
      9 CA        -11.4370  -30.3210    0.4380 C.3       4 GLP5        0.0000 
     10 CA        -13.0975  -29.7225    1.5330 C.3       2 GLC5        0.0000 
     11 CA        -14.0120  -28.1990    1.8640 C.3       6 GLL5        0.0000 
     12 CA        -12.1830  -31.2460    1.2020 C.3       4 GLP5        0.0000 
     13 CA        -14.4120  -26.4030    0.7585 C.3       2 GLC5        0.0000 
     14 CA        -14.8120  -24.6070   -0.3470 C.3       4 GLP5        0.0000 
     15 CA         -9.3530  -24.8815    0.3990 C.3       2 GLC5        0.0000 
     16 CA         -9.8360  -25.8680    1.9090 C.3       6 GLL5        0.0000 
     17 CA         -8.8700  -23.8950   -1.1110 C.3       4 GLP5        0.0000 
     18 CA        -10.0570  -27.8280    1.4445 C.3       2 GLC5        0.0000 
     19 CA        -10.2780  -29.7880    0.9800 C.3       4 GLP5        0.0000 
     20 CA         -6.8915  -26.7110    1.3925 C.3       2 GLC5        0.0000 
     21 CA         -8.4520  -26.1020    2.4650 C.3       6 GLL5        0.0000 
     22 CA         -8.4870  -26.2390    0.4200 C.3       2 GLC5        0.0000 
     23 CA         -8.5220  -26.3760   -1.6250 C.3       4 GLP5        0.0000 
     24 CA         -9.1755  -28.0935    2.3650 C.3       2 GLC5        0.0000 
     25 CA         -9.8990  -30.0850    2.2650 C.3       4 GLP5        0.0000 
     26 CA         -7.3005  -24.0710    4.2925 C.3       2 GLC5        0.0000 
     27 CA         -8.4430  -25.8920    3.9680 C.3       6 GLL5        0.0000 
     28 CA         -6.1580  -22.2500    4.6170 C.3       4 GLP5        0.0000 
     29 CA         -8.4260  -28.8780    5.3080 C.3       2 GLC5        0.0000 
     30 CA         -9.0890  -27.1420    4.4750 C.3       6 GLL5        0.0000 
     31 CA         -7.7630  -30.6140    6.1410 C.3       4 GLP5        0.0000 
     32 CA        -11.4770  -28.0705    5.4495 C.3       2 GLC5        0.0000 
     33 CA        -10.5460  -27.1000    4.0100 C.3       6 GLL5        0.0000 
     34 CA        -12.4080  -29.0410    6.8890 C.3       4 GLP5        0.0000 
     35 CA        -10.5955  -24.8775    3.7205 C.3       2 GLC5        0.0000 
     36 CA        -10.6450  -22.6550    3.4310 C.3       4 GLP5        0.0000 
     37 CA         -4.7445  -28.0515    4.5180 C.3       2 GLC5        0.0000 
     38 CA         -3.5750  -26.1490    4.4930 C.3       6 GLL5        0.0000 
     39 CA         -5.9140  -29.9540    4.5430 C.3       4 GLP5        0.0000 
     40 CA         -2.9555  -25.2500    7.0270 C.3       2 GLC5        0.0000 
     41 CA         -2.4260  -26.2230    5.2830 C.3       6 GLL5        0.0000 
     42 CA         -3.4850  -24.2770    8.7710 C.3       4 GLP5        0.0000 
     43 CA         -2.5300  -28.0780    2.0278 C.3       2 GLC5        0.0000 
     44 CA         -1.3970  -26.3700    3.1520 C.3       6 GLL5        0.0000 
     45 CA         -2.7930  -29.8670    1.0550 C.3       4 GLP5        0.0000 
     46 CA        -13.8915  -29.5570    3.6333 C.3       2 GLC5        0.0000 
     47 CA        -14.3510  -31.0450    4.9740 C.3       4 GLP5        0.0000 
     48 CA         -9.7193  -24.2967    3.2542 C.3       2 GLC5        0.0000 
     49 CA         -9.8582  -28.6030    3.2538 C.3       2 GLC5        0.0000 
     50 CA         -1.0132  -24.7710    3.2064 C.3       2 GLC5        0.0000 
     51 CA         -0.2800  -23.2350    2.6440 C.3       4 GLP5        0.0000 
@<TRIPOS>BOND
@<TRIPOS>SUBSTRUCTURE
     1 SEC2        1 GROUP        1 X    SEC  0     ROOT SEC X 2
     2 GLC5        4 GROUP        1 X    GLC  0     **** GLC X 6
     3 SEP2        3 GROUP        1 Y    SEP  0     ROOT SEP Y 9
     4 GLP5        6 GROUP        1 Y    GLP  0     **** GLP Y 13
     5 SEL2        2 GROUP        1 Z    SEL  0     ROOT SEL Z 16
     6 GLL5        5 GROUP        1 Z    GLL  0     **** GLL Z 20
@<TRIPOS>SET

