#    Name: 3tp0_FO5_1_ligand
#    Modification time : Mon Mar 24 20:46:37 2014

@<TRIPOS>MOLECULE
3tp0_FO5_1_ligand
   35    37     1     0     0
SMALL
NO_CHARGES


@<TRIPOS>ATOM
      1 C         -11.8690  -27.0950    1.9200 C.2       1 FO5217      0.0000 
      2 N         -14.9250  -28.4030    1.1810 N.1       1 FO5217      0.0000 
      3 O         -12.0980  -26.7400    0.7250 O.2       1 FO5217      0.0000 
      4 S          -3.1370  -26.2080    2.8490 S.3       1 FO5217      0.0000 
      5 C1        -12.8520  -27.9390    2.7210 C.3       1 FO5217      0.0000 
      6 N1        -10.7660  -26.7150    2.6040 N.am      1 FO5217      0.0000 
      7 O1         -6.8460  -25.8500    5.8070 O.3       1 FO5217      0.0000 
      8 C2        -14.0120  -28.1990    1.8640 C.1       1 FO5217      0.0000 
      9 N2         -5.4720  -25.9370    6.0600 N.2       1 FO5217      0.0000 
     10 C3         -9.8360  -25.8680    1.9090 C.3       1 FO5217      0.0000 
     11 N3         -5.8580  -26.0600    3.8570 N.2       1 FO5217      0.0000 
     12 C4         -8.4520  -26.1020    2.4650 C.3       1 FO5217      0.0000 
     13 C5         -8.4430  -25.8920    3.9680 C.3       1 FO5217      0.0000 
     14 C6         -9.0890  -27.1420    4.4750 C.3       1 FO5217      0.0000 
     15 C7        -10.5460  -27.1000    4.0100 C.3       1 FO5217      0.0000 
     16 C8         -7.0560  -25.9320    4.4650 C.2       1 FO5217      0.0000 
     17 C9         -4.9330  -26.0450    4.8350 C.2       1 FO5217      0.0000 
     18 C10        -3.5750  -26.1490    4.4930 C.2       1 FO5217      0.0000 
     19 C11        -2.4260  -26.2230    5.2830 C.2       1 FO5217      0.0000 
     20 C12        -1.2260  -26.3250    4.5370 C.2       1 FO5217      0.0000 
     21 C13        -1.3970  -26.3700    3.1520 C.2       1 FO5217      0.0000 
     22 H         -13.1399  -27.3881    3.6078 H         1 FO5217      0.0000 
     23 H         -12.3642  -28.8631    3.0054 H         1 FO5217      0.0000 
     24 H         -10.0862  -24.8116    2.0380 H         1 FO5217      0.0000 
     25 H          -9.8200  -26.0882    0.8383 H         1 FO5217      0.0000 
     26 H          -7.7500  -25.4091    2.0009 H         1 FO5217      0.0000 
     27 H          -8.1366  -27.1215    2.2425 H         1 FO5217      0.0000 
     28 H          -8.9641  -25.0669    4.2385 H         1 FO5217      0.0000 
     29 H          -9.0639  -27.1690    5.5490 H         1 FO5217      0.0000 
     30 H          -8.6114  -28.0086    4.0556 H         1 FO5217      0.0000 
     31 H         -10.9942  -28.1051    4.2039 H         1 FO5217      0.0000 
     32 H         -11.0991  -26.4033    4.6863 H         1 FO5217      0.0000 
     33 H          -2.4376  -26.2067    6.2623 H         1 FO5217      0.0000 
     34 H          -0.3409  -26.3609    4.9729 H         1 FO5217      0.0000 
     35 H          -0.9083  -26.4519    2.4268 H         1 FO5217      0.0000 
@<TRIPOS>BOND
     1    3    1 2    
     2    5    1 1    
     3    6    1 am   
     4    8    2 3    
     5   18    4 1    
     6   21    4 1    
     7    8    5 1    
     8   22    5 1    
     9   23    5 1    
    10   10    6 1    
    11   15    6 1    
    12    9    7 1    
    13   16    7 1    
    14   17    9 2    
    15   12   10 1    
    16   24   10 1    
    17   25   10 1    
    18   16   11 2    
    19   17   11 1    
    20   13   12 1    
    21   26   12 1    
    22   27   12 1    
    23   14   13 1    
    24   16   13 1    
    25   28   13 1    
    26   15   14 1    
    27   29   14 1    
    28   30   14 1    
    29   31   15 1    
    30   32   15 1    
    31   18   17 1    
    32   19   18 2    
    33   20   19 1    
    34   33   19 1    
    35   21   20 2    
    36   34   20 1    
    37   35   21 1    
@<TRIPOS>SUBSTRUCTURE
     1 FO5217      1 GROUP   
@<TRIPOS>SET

