#    Name: 4l8u_9AZ_1_INTS_M
#    Modification time : Tue Mar 25 09:54:06 2014

@<TRIPOS>MOLECULE
4l8u_9AZ_1_INTS_M
   66     0     9     0     0
SMALL
NO_CHARGES


@<TRIPOS>ATOM
      1 CA         33.6330    9.5585   26.9615 C.3       3 GLC5        0.0000 
      2 CA         32.9550    7.4370   27.1300 C.3       9 GLL5        0.0000 
      3 CA         34.3110   11.6800   26.7930 C.3       6 GLP5        0.0000 
      4 CA         32.1065    3.2030   27.1120 C.3       3 GLC5        0.0000 
      5 CA         31.6950    5.3510   27.2580 C.3       9 GLL5        0.0000 
      6 CA         32.5180    1.0550   26.9660 C.3       6 GLP5        0.0000 
      7 CA         32.7235    6.8300   31.2220 C.3       3 GLC5        0.0000 
      8 CA         30.7630    6.2110   31.2160 C.3       9 GLL5        0.0000 
      9 CA         34.6840    7.4490   31.2280 C.3       6 GLP5        0.0000 
     10 CA         29.1020    7.5835   30.8570 C.3       3 GLC5        0.0000 
     11 CA         27.4410    8.9560   30.4980 C.3       6 GLP5        0.0000 
     12 CA         28.3610    6.7530   32.3310 C.3       3 GLC5        0.0000 
     13 CA         30.3100    6.2700   32.5750 C.3       9 GLL5        0.0000 
     14 CA         26.4120    7.2360   32.0870 C.3       6 GLP5        0.0000 
     15 CA         27.9665    5.8250   31.9280 C.3       3 GLC5        0.0000 
     16 CA         29.5210    4.4140   31.7690 C.3       9 GLL5        0.0000 
     17 CA         28.0510    4.3065   30.1985 C.3       3 GLC5        0.0000 
     18 CA         26.5810    4.1990   28.6280 C.3       6 GLP5        0.0000 
     19 CA         28.6890    7.9735   32.6965 C.3       3 GLC5        0.0000 
     20 CA         30.5560    7.2740   33.5260 C.3       9 GLL5        0.0000 
     21 CA         26.8220    8.6730   31.8670 C.3       6 GLP5        0.0000 
     22 CA         27.3225    6.3840   35.0100 C.3       3 GLC5        0.0000 
     23 CA         28.6190    5.7680   36.4790 C.3       9 GLL5        0.0000 
     24 CA         26.0260    7.0000   33.5410 C.3       6 GLP5        0.0000 
     25 NZ         27.5780    9.9490   36.7605 N.4       2 LYC4        0.0000 
     26 NZ         28.8290    9.3200   37.4210 N.4       8 LYL4        0.0000 
     27 NZ         25.8210   10.6390   37.3090 N.4       5 LYP4        0.0000 
     28 N          27.7755    9.8230   37.8260 N.am      1 SEC2        0.0000 
     29 N          28.8290    9.3200   37.4210 N.am      7 SEL2        0.0000 
     30 N          26.7220   10.3260   38.2310 N.am      4 SEP2        0.0000 
     31 N          27.4335    9.8275   36.7280 N.am      1 SEC2        0.0000 
     32 N          26.0380   10.3350   36.0350 N.am      4 SEP2        0.0000 
     33 NZ         27.4335    9.8275   36.7280 N.4       2 LYC4        0.0000 
     34 NZ         28.4340    9.5720   35.2900 N.4       8 LYL4        0.0000 
     35 N          27.5780    9.9490   36.7605 N.am      1 SEC2        0.0000 
     36 N          28.4340    9.5720   35.2900 N.am      7 SEL2        0.0000 
     37 N          27.2360    9.9535   35.6625 N.am      1 SEC2        0.0000 
     38 CA         32.9965    9.7805   33.9695 C.3       3 GLC5        0.0000 
     39 CA         31.4690    9.1800   35.3570 C.3       9 GLL5        0.0000 
     40 CA         34.5240   10.3810   32.5820 C.3       6 GLP5        0.0000 
     41 CA         34.2085    9.4040   34.5100 C.3       3 GLC5        0.0000 
     42 CA         32.8820    8.5590   35.5140 C.3       9 GLL5        0.0000 
     43 CA         35.5350   10.2490   33.5060 C.3       6 GLP5        0.0000 
     44 N          26.1690    6.1780   36.2160 N.am      1 SEC2        0.0000 
     45 N          27.3540    5.1430   36.2880 N.am      7 SEL2        0.0000 
     46 N          24.9840    7.2130   36.1440 N.am      4 SEP2        0.0000 
     47 CA         34.0020    6.1030   28.0495 C.3       3 GLC5        0.0000 
     48 CA         35.2780    5.3550   29.2630 C.3       6 GLP5        0.0000 
     49 CA         31.0790    7.2655   26.4800 C.3       3 GLC5        0.0000 
     50 CA         29.4320    7.6800   26.1240 C.3       6 GLP5        0.0000 
     51 CA         34.8560    7.9208   27.6525 C.3       3 GLC5        0.0000 
     52 CA         36.9230    8.2680   27.5080 C.3       6 GLP5        0.0000 
     53 CA         33.4550    7.3472   30.0292 C.3       3 GLC5        0.0000 
     54 CA         32.6230    7.7100   28.4640 C.3       9 GLL5        0.0000 
     55 CA         30.8290    7.4627   27.4772 C.3       3 GLC5        0.0000 
     56 CA         33.4038    5.4177   28.5945 C.3       3 GLC5        0.0000 
     57 CA         31.3640    5.6100   28.5940 C.3       9 GLL5        0.0000 
     58 CA         30.4808    6.5802   27.0250 C.3       3 GLC5        0.0000 
     59 CA         28.4913    4.5237   29.3218 C.3       3 GLC5        0.0000 
     60 CA         30.5520    4.6840   29.3330 C.3       9 GLL5        0.0000 
     61 CA         27.8343    6.7973   34.2565 C.3       3 GLC5        0.0000 
     62 CA         29.2570    6.0160   35.1050 C.3       9 GLL5        0.0000 
     63 CA         30.3990    4.6815   36.2255 C.3       3 GLC5        0.0000 
     64 CA         31.8600    3.4710   36.6590 C.3       6 GLP5        0.0000 
     65 CA         32.9308   10.7363   35.3473 C.3       3 GLC5        0.0000 
     66 CA         33.6860   12.6030   35.2590 C.3       6 GLP5        0.0000 
@<TRIPOS>BOND
@<TRIPOS>SUBSTRUCTURE
     1 SEC2       28 GROUP        1 X    SEC  0     ROOT SEC X 2
     2 LYC4       25 GROUP        1 X    LYC  0     **** LYC X 4
     3 GLC5        1 GROUP        1 X    GLC  0     **** GLC X 6
     4 SEP2       30 GROUP        1 Y    SEP  0     ROOT SEP Y 9
     5 LYP4       27 GROUP        1 Y    LYP  0     **** LYP Y 11
     6 GLP5        3 GROUP        1 Y    GLP  0     **** GLP Y 13
     7 SEL2       29 GROUP        1 Z    SEL  0     ROOT SEL Z 16
     8 LYL4       26 GROUP        1 Z    LYL  0     **** LYL Z 18
     9 GLL5        2 GROUP        1 Z    GLL  0     **** GLL Z 20
@<TRIPOS>SET

