#    Name: 4l8u_9AZ_1_ligand
#    Modification time : Tue Mar 25 09:54:06 2014

@<TRIPOS>MOLECULE
4l8u_9AZ_1_ligand
   46    49     1     0     0
SMALL
NO_CHARGES


@<TRIPOS>ATOM
      1 C1         32.4970    6.2650   26.5420 C.ar      1 9AZ606      0.0000 
      2 C2         32.9550    7.4370   27.1300 C.ar      1 9AZ606      0.0000 
      3 C3         32.6230    7.7100   28.4640 C.ar      1 9AZ606      0.0000 
      4 C4         31.8290    6.7810   29.1970 C.ar      1 9AZ606      0.0000 
      5 C5         31.3640    5.6100   28.5940 C.ar      1 9AZ606      0.0000 
      6 C6         31.6950    5.3510   27.2580 C.ar      1 9AZ606      0.0000 
      7 N7         31.5110    7.0410   30.4940 N.ar      1 9AZ606      0.0000 
      8 C8         30.7630    6.2110   31.2160 C.ar      1 9AZ606      0.0000 
      9 C9         30.2510    5.0130   30.6980 C.ar      1 9AZ606      0.0000 
     10 C10        30.5520    4.6840   29.3330 C.ar      1 9AZ606      0.0000 
     11 C11        30.3100    6.2700   32.5750 C.2       1 9AZ606      0.0000 
     12 N12        29.5970    5.2200   32.8570 N.am      1 9AZ606      0.0000 
     13 C13        29.5210    4.4140   31.7690 C.3       1 9AZ606      0.0000 
     14 C14        30.5560    7.2740   33.5260 C.2       1 9AZ606      0.0000 
     15 C15        30.0280    7.1730   34.8390 C.2       1 9AZ606      0.0000 
     16 C16        29.2570    6.0160   35.1050 C.2       1 9AZ606      0.0000 
     17 C17        29.0650    5.0640   34.1010 C.2       1 9AZ606      0.0000 
     18 O18        28.3040    3.9640   34.4000 O.2       1 9AZ606      0.0000 
     19 C19        28.6190    5.7680   36.4790 C.3       1 9AZ606      0.0000 
     20 C20        30.3450    8.2760   35.8790 C.3       1 9AZ606      0.0000 
     21 C21        29.1220    9.1060   36.2060 C.2       1 9AZ606      0.0000 
     22 O22        28.8290    9.3200   37.4210 O.co2     1 9AZ606      0.0000 
     23 O23        28.4340    9.5720   35.2900 O.co2     1 9AZ606      0.0000 
     24 O24        30.8280    7.6950   37.0430 O.3       1 9AZ606      0.0000 
     25 C25        31.4690    9.1800   35.3570 C.3       1 9AZ606      0.0000 
     26 C26        32.8820    8.5590   35.5140 C.3       1 9AZ606      0.0000 
     27 O27        27.3540    5.1430   36.2880 O.3       1 9AZ606      0.0000 
     28 N28        31.2360    4.1830   26.6520 N.pl3     1 9AZ606      0.0000 
     29 H          32.7432    6.0493   25.5610 H         1 9AZ606      0.0000 
     30 H          33.5281    8.0967   26.6006 H         1 9AZ606      0.0000 
     31 H          32.9422    8.5645   28.9164 H         1 9AZ606      0.0000 
     32 H          30.2118    3.8481   28.9158 H         1 9AZ606      0.0000 
     33 H          29.9353    3.4018   31.9702 H         1 9AZ606      0.0000 
     34 H          28.4701    4.2488   31.4451 H         1 9AZ606      0.0000 
     35 H          31.1229    8.0917   33.2745 H         1 9AZ606      0.0000 
     36 H          28.5289    6.7334   36.9805 H         1 9AZ606      0.0000 
     37 H          29.3043    5.1417   37.0532 H         1 9AZ606      0.0000 
     38 H          31.4455   10.1340   35.8974 H         1 9AZ606      0.0000 
     39 H          31.2977    9.3924   34.2948 H         1 9AZ606      0.0000 
     40 H          31.4976    4.0513   25.6958 H         1 9AZ606      0.0000 
     41 H          30.6846    3.5771   27.2255 H         1 9AZ606      0.0000 
     42 H          33.5959    9.1683   35.1689 H         1 9AZ606      0.0000 
     43 H          33.0987    8.3661   36.4710 H         1 9AZ606      0.0000 
     44 H          32.9662    7.6966   35.0148 H         1 9AZ606      0.0000 
     45 H          30.2835    8.0981   37.7785 H         1 9AZ606      0.0000 
     46 H          27.5628    4.2590   35.8697 H         1 9AZ606      0.0000 
@<TRIPOS>BOND
     1    2    1 ar   
     2    6    1 ar   
     3   29    1 1    
     4    3    2 ar   
     5   30    2 1    
     6    4    3 ar   
     7   31    3 1    
     8    5    4 ar   
     9    7    4 ar   
    10    6    5 ar   
    11   10    5 ar   
    12   28    6 1    
    13    8    7 ar   
    14    9    8 ar   
    15   11    8 1    
    16   10    9 ar   
    17   13    9 1    
    18   32   10 1    
    19   12   11 1    
    20   14   11 2    
    21   13   12 1    
    22   17   12 am   
    23   33   13 1    
    24   34   13 1    
    25   15   14 1    
    26   35   14 1    
    27   16   15 2    
    28   20   15 1    
    29   17   16 1    
    30   19   16 1    
    31   18   17 2    
    32   27   19 1    
    33   36   19 1    
    34   37   19 1    
    35   21   20 1    
    36   24   20 1    
    37   25   20 1    
    38   22   21 ar   
    39   23   21 ar   
    40   45   24 1    
    41   26   25 1    
    42   38   25 1    
    43   39   25 1    
    44   42   26 1    
    45   43   26 1    
    46   44   26 1    
    47   46   27 1    
    48   40   28 1    
    49   41   28 1    
@<TRIPOS>SUBSTRUCTURE
     1 9AZ606      1 GROUP   
@<TRIPOS>SET

