#    Name: 3rhk_M97_1_INTS_M
#    Modification time : Tue Mar 25 11:28:33 2014

@<TRIPOS>MOLECULE
3rhk_M97_1_INTS_M
   62     0     9     0     0
SMALL
NO_CHARGES


@<TRIPOS>ATOM
      1 CA         -8.1925   14.0135   -2.4350 C.3       3 GLC5        0.0000 
      2 CA         -7.7550   12.1690   -3.6380 C.3       9 GLL5        0.0000 
      3 CA         -8.6300   15.8580   -1.2320 C.3       6 GLP5        0.0000 
      4 CA         -7.1770   14.0780   -3.9700 C.3       3 GLC5        0.0000 
      5 CA         -6.5990   15.9870   -4.3020 C.3       6 GLP5        0.0000 
      6 N          -7.3780   12.4890   -7.1575 N.am      2 SEC2        0.0000 
      7 N          -7.8460   13.0860   -5.8700 N.am      8 SEL2        0.0000 
      8 N          -6.9100   11.8920   -8.4450 N.am      5 SEP2        0.0000 
      9 O          -4.9720   12.9390   -6.0070 O.2       1 ALC1        0.0000 
     10 O          -5.8660   12.3950   -4.9580 O.2       7 ALL1        0.0000 
     11 O          -4.0780   13.4830   -7.0560 O.2       4 ALP1        0.0000 
     12 CA         -6.2625    8.6045   -1.0250 C.3       3 GLC5        0.0000 
     13 CA         -6.8900   10.4140   -0.7330 C.3       9 GLL5        0.0000 
     14 CA         -5.6350    6.7950   -1.3170 C.3       6 GLP5        0.0000 
     15 CA         -7.9550   10.3240   -6.2235 C.3       3 GLC5        0.0000 
     16 CA         -9.5690   10.9590   -4.9370 C.3       9 GLL5        0.0000 
     17 CA         -6.3410    9.6890   -7.5100 C.3       6 GLP5        0.0000 
     18 CA         -9.7195    9.0275   -5.1285 C.3       3 GLC5        0.0000 
     19 CA         -9.8700    7.0960   -5.3200 C.3       6 GLP5        0.0000 
     20 CA        -10.4825    8.9470   -4.3190 C.3       3 GLC5        0.0000 
     21 CA        -11.0950   10.7980   -3.3180 C.3       9 GLL5        0.0000 
     22 CA         -4.0995   13.2685    3.6655 C.3       3 GLC5        0.0000 
     23 CA         -5.9720   12.2850    2.9540 C.3       9 GLL5        0.0000 
     24 CA         -2.2270   14.2520    4.3770 C.3       6 GLP5        0.0000 
     25 CA         -5.5220   10.4070    4.8630 C.3       3 GLC5        0.0000 
     26 CA         -6.5320   10.8540    3.0290 C.3       9 GLL5        0.0000 
     27 CA         -4.5120    9.9600    6.6970 C.3       6 GLP5        0.0000 
     28 CA         -7.0690   14.8150   -1.1720 C.3       3 GLC5        0.0000 
     29 CA         -5.5080   13.7720   -1.1120 C.3       9 GLL5        0.0000 
     30 CA         -6.0535   14.8795   -2.7070 C.3       3 GLC5        0.0000 
     31 CA         -3.6230   13.5325   -1.5525 C.3       3 GLC5        0.0000 
     32 CA         -1.7380   13.2930   -1.9930 C.3       6 GLP5        0.0000 
     33 CA         -3.3040   15.1055   -0.7710 C.3       3 GLC5        0.0000 
     34 CA         -5.1380   14.5580   -0.0130 C.3       9 GLL5        0.0000 
     35 CA         -1.4700   15.6530   -1.5290 C.3       6 GLP5        0.0000 
     36 CA         -3.7475   14.1785    2.8435 C.3       3 GLC5        0.0000 
     37 CA         -5.2680   14.1050    1.3100 C.3       9 GLL5        0.0000 
     38 CA         -6.2865    9.3570   -2.6455 C.3       3 GLC5        0.0000 
     39 CA         -6.4790   11.4310   -1.5800 C.3       9 GLL5        0.0000 
     40 CA         -6.0160    7.3570   -2.9700 C.3       6 GLP5        0.0000 
     41 CA        -10.6200   12.6137   -4.3923 C.3       3 GLC5        0.0000 
     42 CA         -9.0870   11.5240   -3.7760 C.3       9 GLL5        0.0000 
     43 CA        -11.9120   13.9860   -4.4280 C.3       6 GLP5        0.0000 
     44 CA        -11.0876   12.7483   -3.3338 C.3       3 GLC5        0.0000 
     45 CA        -10.0060   11.4580   -2.7620 C.3       9 GLL5        0.0000 
     46 CA         -9.7123   13.2560   -0.0185 C.3       3 GLC5        0.0000 
     47 CA         -9.9760   11.8930   -1.4390 C.3       9 GLL5        0.0000 
     48 CA         -8.8870   14.7360    1.0060 C.3       6 GLP5        0.0000 
     49 CA        -12.0617   12.3875   -3.1433 C.3       3 GLC5        0.0000 
     50 CA        -12.2050   11.0040   -1.1940 C.3       9 GLL5        0.0000 
     51 CA        -13.1365   12.3429   -1.0079 C.3       3 GLC5        0.0000 
     52 CA        -12.2180   10.5740   -2.5230 C.3       9 GLL5        0.0000 
     53 CA        -14.3380   13.7330   -0.2940 C.3       6 GLP5        0.0000 
     54 CA         -7.3855   13.6478    1.6292 C.3       3 GLC5        0.0000 
     55 CA         -5.7960   12.8340    1.5510 C.3       9 GLL5        0.0000 
     56 CA         -7.3910   11.5437    4.4467 C.3       3 GLC5        0.0000 
     57 CA         -8.5300   11.5180    5.9020 C.3       6 GLP5        0.0000 
     58 CA         -7.4885   13.5165    0.4068 C.3       3 GLC5        0.0000 
     59 CA         -6.1590   12.0790    0.4590 C.3       9 GLL5        0.0000 
     60 CA         -7.0450   14.5338    0.8272 C.3       3 GLC5        0.0000 
     61 CA         -5.3230   16.0257    1.3512 C.3       3 GLC5        0.0000 
     62 CA         -5.4430   17.7200    2.0540 C.3       6 GLP5        0.0000 
@<TRIPOS>BOND
@<TRIPOS>SUBSTRUCTURE
     1 ALC1        9 GROUP        1 X    ALC  0     ROOT ALC X 1
     2 SEC2        6 GROUP        1 X    SEC  0     **** SEC X 2
     3 GLC5        1 GROUP        1 X    GLC  0     **** GLC X 6
     4 ALP1       11 GROUP        1 Y    ALP  0     ROOT ALP Y 8
     5 SEP2        8 GROUP        1 Y    SEP  0     **** SEP Y 9
     6 GLP5        3 GROUP        1 Y    GLP  0     **** GLP Y 13
     7 ALL1       10 GROUP        1 Z    ALL  0     ROOT ALL Z 15
     8 SEL2        7 GROUP        1 Z    SEL  0     **** SEL Z 16
     9 GLL5        2 GROUP        1 Z    GLL  0     **** GLL Z 20
@<TRIPOS>SET

