#    Name: 3rhk_M97_1_ligand
#    Modification time : Tue Mar 25 11:28:33 2014

@<TRIPOS>MOLECULE
3rhk_M97_1_ligand
   44    49     1     0     0
SMALL
NO_CHARGES


@<TRIPOS>ATOM
      1 C1         -7.7550   12.1690   -3.6380 C.3       1 M971        0.0000 
      2 N1        -10.8150   10.5170   -4.6180 N.pl3     1 M971        0.0000 
      3 O1         -7.8460   13.0860   -5.8700 O.2       1 M971        0.0000 
      4 C2         -6.4790   11.4310   -1.5800 C.2       1 M971        0.0000 
      5 N2         -5.8660   12.3950   -4.9580 N.am      1 M971        0.0000 
      6 O2         -4.3140   11.4900   -3.5640 O.2       1 M971        0.0000 
      7 C3         -6.8900   10.4140   -0.7330 C.2       1 M971        0.0000 
      8 N3         -6.6600   10.8460    0.5200 N.pl3     1 M971        0.0000 
      9 C4         -9.0870   11.5240   -3.7760 C.2       1 M971        0.0000 
     10 C5         -9.5690   10.9590   -4.9370 C.2       1 M971        0.0000 
     11 C6         -6.6350   11.2830   -3.0620 C.3       1 M971        0.0000 
     12 C7         -7.1840   12.6030   -4.9540 C.2       1 M971        0.0000 
     13 C8         -5.4630   11.7240   -3.8720 C.2       1 M971        0.0000 
     14 C9        -11.0950   10.7980   -3.3180 C.ar      1 M971        0.0000 
     15 C10       -10.0060   11.4580   -2.7620 C.ar      1 M971        0.0000 
     16 C11        -9.9760   11.8930   -1.4390 C.ar      1 M971        0.0000 
     17 C12       -11.0990   11.6590   -0.6470 C.ar      1 M971        0.0000 
     18 C13       -12.2050   11.0040   -1.1940 C.ar      1 M971        0.0000 
     19 C14       -12.2180   10.5740   -2.5230 C.ar      1 M971        0.0000 
     20 C15        -5.7960   12.8340    1.5510 C.ar      1 M971        0.0000 
     21 C16        -5.9720   12.2850    2.9540 C.ar      1 M971        0.0000 
     22 C17        -6.5320   10.8540    3.0290 C.ar      1 M971        0.0000 
     23 C18        -6.9360   10.1090    1.7560 C.ar      1 M971        0.0000 
     24 C19        -6.1590   12.0790    0.4590 C.ar      1 M971        0.0000 
     25 C20        -6.0210   12.5150   -0.8440 C.2       1 M971        0.0000 
     26 C21        -5.5080   13.7720   -1.1120 C.2       1 M971        0.0000 
     27 C22        -5.1380   14.5580   -0.0130 C.2       1 M971        0.0000 
     28 C23        -5.2680   14.1050    1.3100 C.2       1 M971        0.0000 
     29 H          -7.8095   13.0547   -3.0056 H         1 M971        0.0000 
     30 H         -11.4191   10.0645   -5.2327 H         1 M971        0.0000 
     31 H          -5.2553   12.7003   -5.6789 H         1 M971        0.0000 
     32 H          -7.2579    9.5856   -1.0070 H         1 M971        0.0000 
     33 H          -9.1269   10.8984   -5.7588 H         1 M971        0.0000 
     34 H          -6.8776   10.2675   -3.3368 H         1 M971        0.0000 
     35 H          -9.1621   12.3656   -1.0630 H         1 M971        0.0000 
     36 H         -11.1145   11.9649    0.3300 H         1 M971        0.0000 
     37 H         -13.0372   10.8327   -0.5985 H         1 M971        0.0000 
     38 H         -13.0381   10.1030   -2.9050 H         1 M971        0.0000 
     39 H          -5.7566   12.7775    3.7316 H         1 M971        0.0000 
     40 H          -6.6297   10.4172    3.9064 H         1 M971        0.0000 
     41 H          -7.3288    9.2462    1.7965 H         1 M971        0.0000 
     42 H          -5.4020   14.1144   -2.0536 H         1 M971        0.0000 
     43 H          -4.7537   15.5099   -0.1810 H         1 M971        0.0000 
     44 H          -4.9785   14.7012    2.0861 H         1 M971        0.0000 
@<TRIPOS>BOND
     1    9    1 1    
     2   11    1 1    
     3   12    1 1    
     4   29    1 1    
     5   10    2 1    
     6   14    2 1    
     7   30    2 1    
     8   12    3 2    
     9    7    4 2    
    10   11    4 1    
    11   25    4 1    
    12   12    5 am   
    13   13    5 am   
    14   31    5 1    
    15   13    6 2    
    16    8    7 1    
    17   32    7 1    
    18   23    8 ar   
    19   24    8 ar   
    20   10    9 2    
    21   15    9 1    
    22   33   10 1    
    23   13   11 1    
    24   34   11 1    
    25   15   14 ar   
    26   19   14 ar   
    27   16   15 ar   
    28   17   16 ar   
    29   35   16 1    
    30   18   17 ar   
    31   36   17 1    
    32   19   18 ar   
    33   37   18 1    
    34   38   19 1    
    35   21   20 ar   
    36   24   20 ar   
    37   28   20 1    
    38   22   21 ar   
    39   39   21 1    
    40   23   22 ar   
    41   40   22 1    
    42   41   23 1    
    43   25   24 1    
    44   26   25 2    
    45   27   26 1    
    46   42   26 1    
    47   28   27 2    
    48   43   27 1    
    49   44   28 1    
@<TRIPOS>SUBSTRUCTURE
     1 M971        1 GROUP   
@<TRIPOS>SET

