#    Name: 1B8O_1_CAVITY_N1_6.mol2
#    Modification time : Mon Mar 10 14:24:42 2014

@<TRIPOS>MOLECULE
1B8O_1_CAVITY_N1_6.mol2
   67     0     5     0     0
SMALL
NO_CHARGES


@<TRIPOS>ATOM
      1 CZ         25.3581   87.8712   80.5225 C.ar      3 PHE5        0.0000 
      2 CA         22.3829   89.0402   82.3341 C.3       4 GLY6        0.0000 
      3 CZ         23.9198   89.2341   79.7650 C.ar      3 PHE5        0.0000 
      4 CA         23.3114   87.6458   81.0327 C.3       4 GLY6        0.0000 
      5 CZ         24.0799   87.7428   79.7481 C.ar      3 PHE5        0.0000 
      6 N          23.4715   86.1545   81.0158 N.2       2 ALA2        0.0000 
      7 N          24.2399   86.2515   79.7313 N.2       2 ALA2        0.0000 
      8 CA         22.6416   89.1057   78.9906 C.3       4 GLY6        0.0000 
      9 CA         21.2647   87.4204   81.5429 C.3       4 GLY6        0.0000 
     10 CA         22.0332   87.5174   80.2583 C.3       4 GLY6        0.0000 
     11 CZ         22.8016   87.6144   78.9738 C.ar      3 PHE5        0.0000 
     12 CZ         23.5701   87.7114   77.6892 C.ar      3 PHE5        0.0000 
     13 DU         22.1932   86.0260   80.2415 H         5 CUB7        0.0000 
     14 N          22.9617   86.1230   78.9569 N.2       2 ALA2        0.0000 
     15 CZ         22.7402   90.6626   75.6640 C.ar      3 PHE5        0.0000 
     16 CZ         23.5087   90.7596   74.3795 C.ar      3 PHE5        0.0000 
     17 N          24.2771   90.8566   73.0949 N.2       2 ALA2        0.0000 
     18 CZ         22.1318   89.0743   76.9317 C.ar      3 PHE5        0.0000 
     19 CZ         24.4372   89.3653   73.0781 C.ar      3 PHE5        0.0000 
     20 CA         19.9865   87.2920   80.7685 C.3       4 GLY6        0.0000 
     21 O          20.7550   87.3890   79.4840 O.2       2 ALA2        0.0000 
     22 O          21.5234   87.4859   78.1994 O.2       2 ALA2        0.0000 
     23 CZ         22.2919   87.5829   76.9149 C.ar      3 PHE5        0.0000 
     24 CZ         23.0603   87.6799   75.6303 C.ar      3 PHE5        0.0000 
     25 CA         23.8288   87.7769   74.3458 C.3       4 GLY6        0.0000 
     26 CA         24.5972   87.8739   73.0612 C.3       4 GLY6        0.0000 
     27 CA         20.1466   85.8006   80.7517 C.3       4 GLY6        0.0000 
     28 OG         20.9150   85.8976   79.4671 O.2       1 SER1        0.0000 
     29 N          21.6835   85.9946   78.1826 N.2       2 ALA2        0.0000 
     30 CA         22.4519   86.0916   76.8980 C.3       4 GLY6        0.0000 
     31 O          20.6935   90.4372   76.1742 O.2       2 ALA2        0.0000 
     32 CA         21.4620   90.5342   74.8897 C.3       4 GLY6        0.0000 
     33 N          22.2304   90.6312   73.6051 N.2       2 ALA2        0.0000 
     34 O          20.8536   88.9459   76.1574 O.2       2 ALA2        0.0000 
     35 CZ         21.6220   89.0429   74.8728 C.ar      3 PHE5        0.0000 
     36 CZ         22.3905   89.1398   73.5883 C.ar      3 PHE5        0.0000 
     37 N          23.1589   89.2368   72.3037 N.2       2 ALA2        0.0000 
     38 CA         19.4767   87.2605   78.7096 C.3       4 GLY6        0.0000 
     39 OG         20.2452   87.3575   77.4251 O.2       1 SER1        0.0000 
     40 CA         21.0136   87.4545   76.1405 C.3       4 GLY6        0.0000 
     41 CA         21.7821   87.5515   74.8560 C.3       4 GLY6        0.0000 
     42 CA         22.5505   87.6485   73.5714 C.3       4 GLY6        0.0000 
     43 CA         23.3190   87.7455   72.2868 C.3       4 GLY6        0.0000 
     44 CA         18.8683   85.6722   79.9773 C.3       4 GLY6        0.0000 
     45 CA         21.1737   85.9632   76.1237 C.3       4 GLY6        0.0000 
     46 OG         19.4153   90.3088   75.3999 O.2       1 SER1        0.0000 
     47 N          20.1837   90.4058   74.1153 N.2       2 ALA2        0.0000 
     48 OG         18.8069   88.7204   76.6676 O.2       1 SER1        0.0000 
     49 OG         19.5753   88.8174   75.3830 O.2       1 SER1        0.0000 
     50 N          20.3438   88.9144   74.0985 N.2       2 ALA2        0.0000 
     51 N          21.1122   89.0114   72.8139 N.2       2 ALA2        0.0000 
     52 OG         19.7354   87.3261   75.3662 O.2       1 SER1        0.0000 
     53 CA         20.5038   87.4231   74.0816 C.3       4 GLY6        0.0000 
     54 O          21.2723   87.5201   72.7970 O.2       2 ALA2        0.0000 
     55 N          18.9055   90.2773   73.3410 N.2       2 ALA2        0.0000 
     56 OG         18.2971   88.6890   74.6087 O.2       1 SER1        0.0000 
     57 N          19.0656   88.7860   73.3241 N.2       2 ALA2        0.0000 
     58 OG         18.4572   87.1977   74.5918 O.2       1 SER1        0.0000 
     59 O          19.2256   87.2947   73.3072 O.2       2 ALA2        0.0000 
     60 O          19.9941   87.3917   72.0227 O.2       2 ALA2        0.0000 
     61 CA         19.3857   85.8033   73.2904 C.3       4 GLY6        0.0000 
     62 O          17.6273   90.1489   72.5666 O.2       2 ALA2        0.0000 
     63 OG         17.0189   88.5606   73.8343 O.2       1 SER1        0.0000 
     64 N          17.7873   88.6576   72.5497 N.2       2 ALA2        0.0000 
     65 N          18.5558   88.7546   71.2652 N.2       2 ALA2        0.0000 
     66 OG         17.9474   87.1662   72.5329 O.2       1 SER1        0.0000 
     67 OG         18.7158   87.2632   71.2483 O.2       1 SER1        0.0000 
@<TRIPOS>BOND
@<TRIPOS>SUBSTRUCTURE
     1 SER1       28 GROUP   
     2 ALA2        6 GROUP   
     3 PHE5        1 GROUP   
     4 GLY6        2 GROUP   
     5 CUB7       13 GROUP   
@<TRIPOS>SET

