#    Name: 1b8o_IMH_1_INTS_M
#    Modification time : Mon Mar 24 19:26:59 2014

@<TRIPOS>MOLECULE
1b8o_IMH_1_INTS_M
   59     0     9     0     0
SMALL
NO_CHARGES


@<TRIPOS>ATOM
      1 N          20.9885   90.6325   77.8140 N.am      2 SEC2        0.0000 
      2 N          21.7480   90.5640   76.5980 N.am      8 SEL2        0.0000 
      3 N          20.2290   90.7010   79.0300 N.am      5 SEP2        0.0000 
      4 CA         23.3065   89.4610   76.9090 C.3       3 GLC5        0.0000 
      5 CA         21.5380   89.1540   76.4120 C.3       9 GLL5        0.0000 
      6 CA         25.0750   89.7680   77.4060 C.3       6 GLP5        0.0000 
      7 CA         21.0580   89.9765   78.3855 C.3       3 GLC5        0.0000 
      8 CA         20.5780   90.7990   80.3590 C.3       6 GLP5        0.0000 
      9 CA         19.7885   85.4195   75.3315 C.3       3 GLC5        0.0000 
     10 CA         20.1890   87.3530   74.9510 C.3       9 GLL5        0.0000 
     11 CA         19.3880   83.4860   75.7120 C.3       6 GLP5        0.0000 
     12 N          18.4780   85.9270   75.8965 N.am      2 SEC2        0.0000 
     13 N          18.8590   86.7640   74.8620 N.am      8 SEL2        0.0000 
     14 N          18.0970   85.0900   76.9310 N.am      5 SEP2        0.0000 
     15 N          20.4030   86.2265   71.4610 N.am      2 SEC2        0.0000 
     16 N          19.8950   87.0710   72.4580 N.am      8 SEL2        0.0000 
     17 N          20.9110   85.3820   70.4640 N.am      5 SEP2        0.0000 
     18 CA         19.5475   91.1660   73.0720 C.3       3 GLC5        0.0000 
     19 CA         20.6180   89.2150   73.3680 C.3       9 GLL5        0.0000 
     20 CA         18.4770   93.1170   72.7760 C.3       6 GLP5        0.0000 
     21 CA         20.3805   92.1940   73.0095 C.3       3 GLC5        0.0000 
     22 CA         22.2840   91.2710   73.2430 C.3       9 GLL5        0.0000 
     23 CA         22.5880   92.4870   74.7470 C.3       3 GLC5        0.0000 
     24 CA         22.8920   93.7030   76.2510 C.3       6 GLP5        0.0000 
     25 O          24.2300   92.8340   73.0535 O.2       1 ALC1        0.0000 
     26 O          23.6620   91.5480   72.9460 O.2       7 ALL1        0.0000 
     27 O          24.7980   94.1200   73.1610 O.2       4 ALP1        0.0000 
     28 CA         22.9330   91.2350   71.0545 C.3       3 GLC5        0.0000 
     29 CA         24.2050   90.2850   72.6460 C.3       9 GLL5        0.0000 
     30 CA         21.6610   92.1850   69.4630 C.3       6 GLP5        0.0000 
     31 CA         26.1385   89.5265   70.2660 C.3       3 GLC5        0.0000 
     32 CA         25.6000   90.0060   72.2640 C.3       9 GLL5        0.0000 
     33 CA         26.6770   89.0470   68.2680 C.3       6 GLP5        0.0000 
     34 CA         27.3000   90.8030   71.0305 C.3       3 GLC5        0.0000 
     35 CA         29.0000   91.6000   69.7970 C.3       6 GLP5        0.0000 
     36 N          26.7755   92.2365   72.7010 N.am      2 SEC2        0.0000 
     37 N          26.5520   90.7960   72.2070 N.am      8 SEL2        0.0000 
     38 N          26.9990   93.6770   73.1950 N.am      5 SEP2        0.0000 
     39 N          27.0960   88.1970   71.8345 N.am      2 SEC2        0.0000 
     40 N          25.7420   88.6250   72.0150 N.am      8 SEL2        0.0000 
     41 N          28.4500   87.7690   71.6540 N.am      5 SEP2        0.0000 
     42 CA         24.9630   85.6125   71.1940 C.3       3 GLC5        0.0000 
     43 CA         24.7180   87.6480   72.1050 C.3       9 GLL5        0.0000 
     44 CA         25.2080   83.5770   70.2830 C.3       6 GLP5        0.0000 
     45 CA         25.3480   87.1520   70.0360 C.3       3 GLC5        0.0000 
     46 CA         25.9780   86.6560   67.9670 C.3       6 GLP5        0.0000 
     47 CA         23.3610   87.3905   70.6545 C.3       3 GLC5        0.0000 
     48 CA         22.0040   87.1330   69.2040 C.3       6 GLP5        0.0000 
     49 CA         24.5205   86.3685   73.3135 C.3       3 GLC5        0.0000 
     50 CA         24.3230   85.0890   74.5220 C.3       6 GLP5        0.0000 
     51 CA         22.6410   88.2230   70.9600 C.3       3 GLC5        0.0000 
     52 CA         23.2780   89.3130   72.7160 C.3       9 GLL5        0.0000 
     53 CA         21.5210   86.0128   74.3455 C.3       3 GLC5        0.0000 
     54 CA         20.7010   87.6800   73.4910 C.3       9 GLL5        0.0000 
     55 CA         22.5970   84.5090   74.4700 C.3       6 GLP5        0.0000 
     56 CA         21.9140   91.3983   71.3202 C.3       3 GLC5        0.0000 
     57 CA         22.0500   89.9520   73.1120 C.3       9 GLL5        0.0000 
     58 CA         25.1438   91.4342   71.0570 C.3       3 GLC5        0.0000 
     59 CA         25.3850   92.7230   69.6590 C.3       6 GLP5        0.0000 
@<TRIPOS>BOND
@<TRIPOS>SUBSTRUCTURE
     1 ALC1       25 GROUP        1 X    ALC  0     ROOT ALC X 1
     2 SEC2        1 GROUP        1 X    SEC  0     **** SEC X 2
     3 GLC5        4 GROUP        1 X    GLC  0     **** GLC X 6
     4 ALP1       27 GROUP        1 Y    ALP  0     ROOT ALP Y 8
     5 SEP2        3 GROUP        1 Y    SEP  0     **** SEP Y 9
     6 GLP5        6 GROUP        1 Y    GLP  0     **** GLP Y 13
     7 ALL1       26 GROUP        1 Z    ALL  0     ROOT ALL Z 15
     8 SEL2        2 GROUP        1 Z    SEL  0     **** SEL Z 16
     9 GLL5        5 GROUP        1 Z    GLL  0     **** GLL Z 20
@<TRIPOS>SET

