#    Name: 1b8o_IMH_1_ligand
#    Modification time : Mon Mar 24 19:26:59 2014

@<TRIPOS>MOLECULE
1b8o_IMH_1_ligand
   32    34     1     0     0
SMALL
NO_CHARGES


@<TRIPOS>ATOM
      1 O5'        21.7480   90.5640   76.5980 O.3       1 IMH600      0.0000 
      2 C5'        21.5380   89.1540   76.4120 C.3       1 IMH600      0.0000 
      3 C4'        20.2210   88.7130   75.6980 C.3       1 IMH600      0.0000 
      4 N4'        20.0680   89.7020   74.6260 N.4       1 IMH600      0.0000 
      5 C3'        20.1890   87.3530   74.9510 C.3       1 IMH600      0.0000 
      6 O3'        18.8590   86.7640   74.8620 O.3       1 IMH600      0.0000 
      7 C2'        20.7010   87.6800   73.4910 C.3       1 IMH600      0.0000 
      8 O2'        19.8950   87.0710   72.4580 O.3       1 IMH600      0.0000 
      9 C1'        20.6180   89.2150   73.3680 C.3       1 IMH600      0.0000 
     10 C9         22.0500   89.9520   73.1120 C.2       1 IMH600      0.0000 
     11 C8         22.2840   91.2710   73.2430 C.2       1 IMH600      0.0000 
     12 N7         23.6620   91.5480   72.9460 N.pl3     1 IMH600      0.0000 
     13 C5         24.2050   90.2850   72.6460 C.ar      1 IMH600      0.0000 
     14 C6         25.6000   90.0060   72.2640 C.ar      1 IMH600      0.0000 
     15 O6         26.5520   90.7960   72.2070 O.3       1 IMH600      0.0000 
     16 N1         25.7420   88.6250   72.0150 N.ar      1 IMH600      0.0000 
     17 C2         24.7180   87.6480   72.1050 C.ar      1 IMH600      0.0000 
     18 N3         23.4910   87.9970   72.4590 N.ar      1 IMH600      0.0000 
     19 C4         23.2780   89.3130   72.7160 C.ar      1 IMH600      0.0000 
     20 H          21.5601   88.6090   77.3957 H         1 IMH600      0.0000 
     21 H          22.3818   88.6934   75.8280 H         1 IMH600      0.0000 
     22 H          19.4034   88.7944   76.3580 H         1 IMH600      0.0000 
     23 H          20.9069   86.7052   75.3871 H         1 IMH600      0.0000 
     24 H          21.7278   87.4053   73.4423 H         1 IMH600      0.0000 
     25 H          19.9769   89.4750   72.5541 H         1 IMH600      0.0000 
     26 H          21.6643   91.9580   73.4923 H         1 IMH600      0.0000 
     27 H          24.0712   92.3586   72.9549 H         1 IMH600      0.0000 
     28 H          24.9739   86.6669   71.8840 H         1 IMH600      0.0000 
     29 H          22.5080   91.1545   76.8696 H         1 IMH600      0.0000 
     30 H          18.6944   86.6436   73.8830 H         1 IMH600      0.0000 
     31 H          19.8307   87.7626   71.7386 H         1 IMH600      0.0000 
     32 H          27.3461   90.2660   72.5043 H         1 IMH600      0.0000 
@<TRIPOS>BOND
     1    2    1 1    
     2   29    1 1    
     3    3    2 1    
     4   20    2 1    
     5   21    2 1    
     6    4    3 1    
     7    5    3 1    
     8   22    3 1    
     9    9    4 1    
    10    6    5 1    
    11    7    5 1    
    12   23    5 1    
    13   30    6 1    
    14    8    7 1    
    15    9    7 1    
    16   24    7 1    
    17   31    8 1    
    18   10    9 1    
    19   25    9 1    
    20   11   10 2    
    21   19   10 1    
    22   12   11 1    
    23   26   11 1    
    24   13   12 1    
    25   27   12 1    
    26   14   13 ar   
    27   19   13 ar   
    28   15   14 1    
    29   16   14 ar   
    30   32   15 1    
    31   17   16 ar   
    32   18   17 ar   
    33   28   17 1    
    34   19   18 ar   
@<TRIPOS>SUBSTRUCTURE
     1 IMH600      1 GROUP   
@<TRIPOS>SET

