#    Name: 3b6d_FAE_1_INTS_M
#    Modification time : Mon Mar 24 18:57:54 2014

@<TRIPOS>MOLECULE
3b6d_FAE_1_INTS_M
  121     0     9     0     0
SMALL
NO_CHARGES


@<TRIPOS>ATOM
      1 N          19.8900   -0.7410   22.6960 N.am      2 SEC2        0.0000 
      2 N          21.2830   -0.4680   22.7900 N.am      8 SEL2        0.0000 
      3 N          18.4970   -1.0140   22.6020 N.am      5 SEP2        0.0000 
      4 CA         22.0445   -0.4670   25.7150 C.3       3 GLC5        0.0000 
      5 CA         21.8620    1.7500   25.9010 C.3       9 GLL5        0.0000 
      6 CA         22.2270   -2.6840   25.5290 C.3       6 GLP5        0.0000 
      7 CA         23.4150    2.8795   25.0165 C.3       3 GLC5        0.0000 
      8 CA         24.9680    4.0090   24.1320 C.3       6 GLP5        0.0000 
      9 CA         21.9200    0.9620   28.8590 C.3       3 GLC5        0.0000 
     10 CA         21.0200    1.4500   27.0890 C.3       9 GLL5        0.0000 
     11 CA         22.8200    0.4740   30.6290 C.3       6 GLP5        0.0000 
     12 O          18.9135    0.2860   28.7765 O.2       1 ALC1        0.0000 
     13 O          18.7560    0.5390   27.4250 O.2       7 ALL1        0.0000 
     14 O          19.0710    0.0330   30.1280 O.2       4 ALP1        0.0000 
     15 O          17.6370    2.2790   29.2070 O.2       1 ALC1        0.0000 
     16 O          17.9640    3.2210   28.2590 O.2       7 ALL1        0.0000 
     17 O          17.3100    1.3370   30.1550 O.2       4 ALP1        0.0000 
     18 CA         21.5795    1.6840   29.7105 C.3       3 GLC5        0.0000 
     19 CA         20.3390    2.8940   28.7920 C.3       9 GLL5        0.0000 
     20 CA         22.4710    3.3375   28.3735 C.3       3 GLC5        0.0000 
     21 CA         24.6030    3.7810   27.9550 C.3       6 GLP5        0.0000 
     22 CA         20.5545    7.2985   32.9480 C.3       3 GLC5        0.0000 
     23 CA         21.8320    6.1990   32.0080 C.3       9 GLL5        0.0000 
     24 CA         19.2770    8.3980   33.8880 C.3       6 GLP5        0.0000 
     25 O          22.6060    8.2760   33.4125 O.2       1 ALC1        0.0000 
     26 O          22.3780    7.4390   32.1960 O.2       7 ALL1        0.0000 
     27 O          22.8340    9.1130   34.6290 O.2       4 ALP1        0.0000 
     28 N          21.6420    6.1565   34.4580 N.am      2 SEC2        0.0000 
     29 N          21.5880    5.4790   33.0920 N.am      8 SEL2        0.0000 
     30 N          21.6960    6.8340   35.8240 N.am      5 SEP2        0.0000 
     31 CA         22.9385    4.1105   32.9015 C.3       3 GLC5        0.0000 
     32 CA         21.0190    4.3130   32.8790 C.3       9 GLL5        0.0000 
     33 CA         24.8580    3.9080   32.9240 C.3       6 GLP5        0.0000 
     34 CA         20.0005    2.4960   33.1565 C.3       3 GLC5        0.0000 
     35 CA         18.9820    0.6790   33.4340 C.3       6 GLP5        0.0000 
     36 CA         19.1805    4.7285   32.6695 C.3       3 GLC5        0.0000 
     37 CA         17.3420    5.1440   32.4600 C.3       6 GLP5        0.0000 
     38 CA         20.1405    5.4505   34.2555 C.3       3 GLC5        0.0000 
     39 CA         19.2620    6.5880   35.6320 C.3       6 GLP5        0.0000 
     40 N          19.2935    3.2350   32.3165 N.am      2 SEC2        0.0000 
     41 N          20.6950    3.6750   31.7250 N.am      8 SEL2        0.0000 
     42 N          17.8920    2.7950   32.9080 N.am      5 SEP2        0.0000 
     43 CA         21.8875    2.4645   30.6440 C.3       3 GLC5        0.0000 
     44 CA         20.9550    4.4550   30.6590 C.3       9 GLL5        0.0000 
     45 N          23.7600   -3.5995   14.4900 N.am      2 SEC2        0.0000 
     46 N          22.5800   -3.6470   13.7320 N.am      8 SEL2        0.0000 
     47 N          24.9400   -3.5520   15.2480 N.am      5 SEP2        0.0000 
     48 N          23.5070   -4.7975   13.3440 N.am      2 SEC2        0.0000 
     49 N          24.4340   -5.9480   12.9560 N.am      5 SEP2        0.0000 
     50 O          20.9370   -5.1170   12.7685 O.2       1 ALC1        0.0000 
     51 O          20.4150   -3.7980   13.1100 O.2       7 ALL1        0.0000 
     52 O          21.4590   -6.4360   12.4270 O.2       4 ALP1        0.0000 
     53 N          18.4425   -5.4980   12.3520 N.am      2 SEC2        0.0000 
     54 N          18.2800   -4.0840   12.3870 N.am      8 SEL2        0.0000 
     55 N          18.6050   -6.9120   12.3170 N.am      5 SEP2        0.0000 
     56 N          16.5685   -2.5935   13.7340 N.am      2 SEC2        0.0000 
     57 N          17.6550   -1.4430   13.3440 N.am      8 SEL2        0.0000 
     58 N          15.4820   -3.7440   14.1240 N.am      5 SEP2        0.0000 
     59 CA         12.5475    1.6735   15.2570 C.3       3 GLC5        0.0000 
     60 CA         14.3190    1.7900   15.0430 C.3       9 GLL5        0.0000 
     61 CA         10.7760    1.5570   15.4710 C.3       6 GLP5        0.0000 
     62 CA         15.0855    2.5720   13.4985 C.3       3 GLC5        0.0000 
     63 CA         15.8520    3.3540   11.9540 C.3       6 GLP5        0.0000 
     64 CA         14.4585    3.1665   18.0915 C.3       3 GLC5        0.0000 
     65 CA         16.2390    2.6270   17.0760 C.3       9 GLL5        0.0000 
     66 CA         12.6780    3.7060   19.1070 C.3       6 GLP5        0.0000 
     67 CA         15.6995    4.5670   16.9990 C.3       3 GLC5        0.0000 
     68 CA         15.1600    6.5070   16.9220 C.3       6 GLP5        0.0000 
     69 CA         16.6895    3.7240   18.9520 C.3       3 GLC5        0.0000 
     70 CA         17.1400    4.8210   20.8280 C.3       6 GLP5        0.0000 
     71 CA         19.9470    1.0475   13.9500 C.3       3 GLC5        0.0000 
     72 CA         18.3400    0.0330   15.1520 C.3       9 GLL5        0.0000 
     73 CA         21.5540    2.0620   12.7480 C.3       6 GLP5        0.0000 
     74 CA         21.1400    1.0870   14.3435 C.3       3 GLC5        0.0000 
     75 CA         20.7260    0.1120   15.9390 C.3       9 GLL5        0.0000 
     76 CA         22.7060    0.0100   15.1190 C.3       3 GLC5        0.0000 
     77 CA         24.6860   -0.0920   14.2990 C.3       6 GLP5        0.0000 
     78 N          19.3490   -2.4780   17.7510 N.am      2 SEC2        0.0000 
     79 N          19.8280   -1.0350   17.8980 N.am      8 SEL2        0.0000 
     80 N          18.8700   -3.9210   17.6040 N.am      5 SEP2        0.0000 
     81 N          25.8370   -2.2155   23.8695 N.am      2 SEC2        0.0000 
     82 N          24.9410   -0.9550   23.3940 N.am      8 SEL2        0.0000 
     83 N          26.7330   -3.4760   24.3450 N.am      5 SEP2        0.0000 
     84 N          24.9700   -1.1235   24.7535 N.am      2 SEC2        0.0000 
     85 N          24.9990   -1.2920   26.1130 N.am      5 SEP2        0.0000 
     86 N          26.9125    1.3580   21.7200 N.am      2 SEC2        0.0000 
     87 N          25.5250    1.1390   22.0410 N.am      8 SEL2        0.0000 
     88 N          28.3000    1.5770   21.3990 N.am      5 SEP2        0.0000 
     89 CA         23.0220    2.6905   27.2250 C.3       3 GLC5        0.0000 
     90 CA         19.2900    0.1340   25.9937 C.3       3 GLC5        0.0000 
     91 CA         18.3130   -1.2940   24.9570 C.3       6 GLP5        0.0000 
     92 CA         18.5960    4.0185   29.6033 C.3       3 GLC5        0.0000 
     93 CA         19.2990    2.9580   27.7190 C.3       9 GLL5        0.0000 
     94 CA         17.3730    5.1110   30.9510 C.3       6 GLP5        0.0000 
     95 CA         23.2660    4.9220   32.1570 C.3       3 GLC5        0.0000 
     96 CA         21.5160    5.6730   30.7720 C.3       9 GLL5        0.0000 
     97 CA         19.7587    5.8868   30.6467 C.3       3 GLC5        0.0000 
     98 CA         18.2030    6.5780   30.2690 C.3       6 GLP5        0.0000 
     99 CA         23.0292    5.0612   29.9703 C.3       3 GLC5        0.0000 
    100 CA         24.7440    4.9270   28.9160 C.3       6 GLP5        0.0000 
    101 CA         17.4795   -1.4697   15.5728 C.3       3 GLC5        0.0000 
    102 CA         17.0890   -2.7780   16.4780 C.3       6 GLP5        0.0000 
    103 CA         17.3268    1.8600   13.7305 C.3       3 GLC5        0.0000 
    104 CA         17.4000   -0.3560   14.1830 C.3       9 GLL5        0.0000 
    105 CA         17.9070    3.8150   13.2890 C.3       6 GLP5        0.0000 
    106 CA         15.7435   -1.0198   15.4840 C.3       3 GLC5        0.0000 
    107 CA         16.0930    0.1660   14.1610 C.3       9 GLL5        0.0000 
    108 CA         15.5780   -2.7160   16.3100 C.3       6 GLP5        0.0000 
    109 CA         15.4610    1.1212   18.0535 C.3       3 GLC5        0.0000 
    110 CA         16.6190    1.5400   16.0080 C.3       9 GLL5        0.0000 
    111 CA         14.4930    0.1590   19.5650 C.3       6 GLP5        0.0000 
    112 CA         17.1815   -0.7668   16.2530 C.3       3 GLC5        0.0000 
    113 CA         17.0562    2.9051   14.8089 C.3       3 GLC5        0.0000 
    114 CA         15.7250    1.1870   15.1550 C.3       9 GLL5        0.0000 
    115 CA         18.0207    2.1530   14.4445 C.3       3 GLC5        0.0000 
    116 CA         17.9290    0.9490   16.0480 C.3       9 GLL5        0.0000 
    117 CA         22.8338   -2.0797   20.3253 C.3       3 GLC5        0.0000 
    118 CA         22.3880   -0.6310   19.3360 C.3       9 GLL5        0.0000 
    119 CA         22.7830   -3.9270   20.8960 C.3       6 GLP5        0.0000 
    120 CA         24.7803   -0.4242   19.1412 C.3       3 GLC5        0.0000 
    121 CA         26.6760   -0.6160   18.5280 C.3       6 GLP5        0.0000 
@<TRIPOS>BOND
@<TRIPOS>SUBSTRUCTURE
     1 ALC1       12 GROUP        1 X    ALC  0     ROOT ALC X 1
     2 SEC2        1 GROUP        1 X    SEC  0     **** SEC X 2
     3 GLC5        4 GROUP        1 X    GLC  0     **** GLC X 6
     4 ALP1       14 GROUP        1 Y    ALP  0     ROOT ALP Y 8
     5 SEP2        3 GROUP        1 Y    SEP  0     **** SEP Y 9
     6 GLP5        6 GROUP        1 Y    GLP  0     **** GLP Y 13
     7 ALL1       13 GROUP        1 Z    ALL  0     ROOT ALL Z 15
     8 SEL2        2 GROUP        1 Z    SEL  0     **** SEL Z 16
     9 GLL5        5 GROUP        1 Z    GLL  0     **** GLL Z 20
@<TRIPOS>SET

