#    Name: 3b6d_FAE_1_ligand
#    Modification time : Mon Mar 24 18:57:54 2014

@<TRIPOS>MOLECULE
3b6d_FAE_1_ligand
   84    89     1     0     0
SMALL
NO_CHARGES


@<TRIPOS>ATOM
      1 PA         21.7570    0.8190   23.3480 P.3       1 FAE510      0.0000 
      2 O1A        21.2830   -0.4680   22.7900 O.co2     1 FAE510      0.0000 
      3 O2A        21.1400    2.0880   22.8810 O.co2     1 FAE510      0.0000 
      4 O5B        21.5990    0.6810   24.9370 O.3       1 FAE510      0.0000 
      5 C5B        21.8620    1.7500   25.9010 C.3       1 FAE510      0.0000 
      6 C4B        21.0200    1.4500   27.0890 C.3       1 FAE510      0.0000 
      7 O4B        21.4850    2.3120   28.1500 O.3       1 FAE510      0.0000 
      8 C3B        19.5140    1.6740   26.9720 C.3       1 FAE510      0.0000 
      9 O3B        18.7560    0.5390   27.4250 O.3       1 FAE510      0.0000 
     10 C2B        19.2990    2.9580   27.7190 C.3       1 FAE510      0.0000 
     11 O2B        17.9640    3.2210   28.2590 O.3       1 FAE510      0.0000 
     12 C1B        20.3390    2.8940   28.7920 C.3       1 FAE510      0.0000 
     13 N9A        20.7530    4.1680   29.3620 N.pl3     1 FAE510      0.0000 
     14 C8A        21.1320    5.2470   28.6400 C.2       1 FAE510      0.0000 
     15 N7A        21.5840    6.2190   29.4840 N.2       1 FAE510      0.0000 
     16 C5A        21.5160    5.6730   30.7720 C.ar      1 FAE510      0.0000 
     17 C6A        21.8320    6.1990   32.0080 C.ar      1 FAE510      0.0000 
     18 N6A        22.3780    7.4390   32.1960 N.pl3     1 FAE510      0.0000 
     19 N1A        21.5880    5.4790   33.0920 N.ar      1 FAE510      0.0000 
     20 C2A        21.0190    4.3130   32.8790 C.ar      1 FAE510      0.0000 
     21 N3A        20.6950    3.6750   31.7250 N.ar      1 FAE510      0.0000 
     22 C4A        20.9550    4.4550   30.6590 C.ar      1 FAE510      0.0000 
     23 O3P        23.3310    0.9960   23.1560 O.3       1 FAE510      0.0000 
     24 N1         21.1490   -2.0330   14.4290 N.2       1 FAE510      0.0000 
     25 C2         21.4360   -3.1040   13.7540 C.2       1 FAE510      0.0000 
     26 O2         22.5800   -3.6470   13.7320 O.2       1 FAE510      0.0000 
     27 N3         20.4150   -3.7980   13.1100 N.am      1 FAE510      0.0000 
     28 C4         19.1470   -3.3240   12.9690 C.2       1 FAE510      0.0000 
     29 O4         18.2800   -4.0840   12.3870 O.2       1 FAE510      0.0000 
     30 C4X        18.9550   -2.0780   13.5110 C.2       1 FAE510      0.0000 
     31 N5         17.6550   -1.4430   13.3440 N.2       1 FAE510      0.0000 
     32 C5X        17.4000   -0.3560   14.1830 C.ar      1 FAE510      0.0000 
     33 C6         16.0930    0.1660   14.1610 C.ar      1 FAE510      0.0000 
     34 C7         15.7250    1.1870   15.1550 C.ar      1 FAE510      0.0000 
     35 C7M        14.3190    1.7900   15.0430 C.3       1 FAE510      0.0000 
     36 C8         16.6190    1.5400   16.0080 C.ar      1 FAE510      0.0000 
     37 C8M        16.2390    2.6270   17.0760 C.3       1 FAE510      0.0000 
     38 C9         17.9290    0.9490   16.0480 C.ar      1 FAE510      0.0000 
     39 C9A        18.3400    0.0330   15.1520 C.ar      1 FAE510      0.0000 
     40 N10        19.6400   -0.4590   15.1460 N.pl3     1 FAE510      0.0000 
     41 C10        19.9260   -1.6030   14.3630 C.2       1 FAE510      0.0000 
     42 C1'        20.7260    0.1120   15.9390 C.3       1 FAE510      0.0000 
     43 C2'        21.0470   -0.7020   17.2460 C.3       1 FAE510      0.0000 
     44 O2'        19.8280   -1.0350   17.8980 O.3       1 FAE510      0.0000 
     45 C3'        22.0080    0.0620   18.0590 C.3       1 FAE510      0.0000 
     46 O3'        23.1500    0.2990   17.2300 O.3       1 FAE510      0.0000 
     47 C4'        22.3880   -0.6310   19.3360 C.3       1 FAE510      0.0000 
     48 O4'        21.2460   -0.9460   20.0960 O.3       1 FAE510      0.0000 
     49 C5'        23.3810    0.1660   20.1730 C.3       1 FAE510      0.0000 
     50 O5'        23.8410   -0.6150   21.2520 O.3       1 FAE510      0.0000 
     51 P          24.5520    0.1260   22.4970 P.3       1 FAE510      0.0000 
     52 O1P        24.9410   -0.9550   23.3940 O.co2     1 FAE510      0.0000 
     53 O2P        25.5250    1.1390   22.0410 O.co2     1 FAE510      0.0000 
     54 H          21.5831    2.7106   25.4903 H         1 FAE510      0.0000 
     55 H          22.9049    1.7576   26.1865 H         1 FAE510      0.0000 
     56 H          21.1877    0.4163   27.4020 H         1 FAE510      0.0000 
     57 H          19.3325    1.8851   25.9084 H         1 FAE510      0.0000 
     58 H          19.6152    3.7770   27.0464 H         1 FAE510      0.0000 
     59 H          20.0001    2.2169   29.5650 H         1 FAE510      0.0000 
     60 H          21.0916    5.3242   27.6759 H         1 FAE510      0.0000 
     61 H          22.5536    7.7033   33.1443 H         1 FAE510      0.0000 
     62 H          22.5536    7.9725   31.3686 H         1 FAE510      0.0000 
     63 H          20.7485    3.7330   33.8022 H         1 FAE510      0.0000 
     64 H          20.6522   -4.7508   12.7102 H         1 FAE510      0.0000 
     65 H          15.4063   -0.1321   13.4945 H         1 FAE510      0.0000 
     66 H          18.5600    1.2697   16.8201 H         1 FAE510      0.0000 
     67 H          20.4912    1.1437   16.2547 H         1 FAE510      0.0000 
     68 H          21.6626    0.1633   15.3565 H         1 FAE510      0.0000 
     69 H          21.5474   -1.6193   16.8776 H         1 FAE510      0.0000 
     70 H          21.5474    1.0267   18.3125 H         1 FAE510      0.0000 
     71 H          22.9087   -1.5752   19.0511 H         1 FAE510      0.0000 
     72 H          22.8703    1.0802   20.5111 H         1 FAE510      0.0000 
     73 H          24.2003    0.4770   19.5075 H         1 FAE510      0.0000 
     74 H          14.1500    2.4728   15.7538 H         1 FAE510      0.0000 
     75 H          14.1780    2.2425   14.1625 H         1 FAE510      0.0000 
     76 H          13.6077    1.0927   15.1314 H         1 FAE510      0.0000 
     77 H          17.0041    2.8309   17.6868 H         1 FAE510      0.0000 
     78 H          15.9677    3.4892   16.6481 H         1 FAE510      0.0000 
     79 H          15.4757    2.3321   17.6507 H         1 FAE510      0.0000 
     80 H          18.9705    0.4564   28.3982 H         1 FAE510      0.0000 
     81 H          17.8068    2.4930   28.9263 H         1 FAE510      0.0000 
     82 H          20.0585   -1.0801   18.8700 H         1 FAE510      0.0000 
     83 H          23.5285    1.1665   17.5528 H         1 FAE510      0.0000 
     84 H          21.4926   -0.7214   21.0387 H         1 FAE510      0.0000 
@<TRIPOS>BOND
     1    2    1 ar   
     2    3    1 ar   
     3    4    1 1    
     4   23    1 1    
     5    5    4 1    
     6    6    5 1    
     7   54    5 1    
     8   55    5 1    
     9    7    6 1    
    10    8    6 1    
    11   56    6 1    
    12   12    7 1    
    13    9    8 1    
    14   10    8 1    
    15   57    8 1    
    16   80    9 1    
    17   11   10 1    
    18   12   10 1    
    19   58   10 1    
    20   81   11 1    
    21   13   12 1    
    22   59   12 1    
    23   14   13 1    
    24   22   13 1    
    25   15   14 2    
    26   60   14 1    
    27   16   15 1    
    28   17   16 ar   
    29   22   16 ar   
    30   18   17 1    
    31   19   17 ar   
    32   61   18 1    
    33   62   18 1    
    34   20   19 ar   
    35   21   20 ar   
    36   63   20 1    
    37   22   21 ar   
    38   51   23 1    
    39   25   24 1    
    40   41   24 2    
    41   26   25 2    
    42   27   25 am   
    43   28   27 am   
    44   64   27 1    
    45   29   28 2    
    46   30   28 1    
    47   31   30 2    
    48   41   30 1    
    49   32   31 1    
    50   33   32 ar   
    51   39   32 ar   
    52   34   33 ar   
    53   65   33 1    
    54   35   34 1    
    55   36   34 ar   
    56   74   35 1    
    57   75   35 1    
    58   76   35 1    
    59   37   36 1    
    60   38   36 ar   
    61   77   37 1    
    62   78   37 1    
    63   79   37 1    
    64   39   38 ar   
    65   66   38 1    
    66   40   39 1    
    67   41   40 1    
    68   42   40 1    
    69   43   42 1    
    70   67   42 1    
    71   68   42 1    
    72   44   43 1    
    73   45   43 1    
    74   69   43 1    
    75   82   44 1    
    76   46   45 1    
    77   47   45 1    
    78   70   45 1    
    79   83   46 1    
    80   48   47 1    
    81   49   47 1    
    82   71   47 1    
    83   84   48 1    
    84   50   49 1    
    85   72   49 1    
    86   73   49 1    
    87   51   50 1    
    88   52   51 ar   
    89   53   51 ar   
@<TRIPOS>SUBSTRUCTURE
     1 FAE510      1 GROUP   
@<TRIPOS>SET

