#    Name: 3sbd_GNP_2_INTS_M
#    Modification time : Mon Apr  7 22:14:37 2014

@<TRIPOS>MOLECULE
3sbd_GNP_2_INTS_M
   74     0    15     0     0
SMALL
NO_CHARGES


@<TRIPOS>ATOM
      1 N          31.2525   75.2920   32.8570 N.am      2 SEC2        0.0000 
      2 N          31.1760   74.0610   32.4120 N.am     12 SEL2        0.0000 
      3 N          31.3290   76.5230   33.3020 N.am      7 SEP2        0.0000 
      4 NZ         31.1095   70.8860   34.3300 N.4       3 LYC4        0.0000 
      5 NZ         30.8720   71.8020   33.4010 N.4      13 LYL4        0.0000 
      6 NZ         31.3470   69.9700   35.2590 N.4       8 LYP4        0.0000 
      7 N          31.1095   70.8860   34.3300 N.am      2 SEC2        0.0000 
      8 N          30.8720   71.8020   33.4010 N.am     12 SEL2        0.0000 
      9 N          31.3470   69.9700   35.2590 N.am      7 SEP2        0.0000 
     10 N          29.6880   71.1625   33.0585 N.am      2 SEC2        0.0000 
     11 N          28.5040   70.5230   32.7160 N.am      7 SEP2        0.0000 
     12 Zn         33.2755   71.7215   31.3650 Zn        4 ZIC7        0.0000 
     13 Zn         32.4730   72.1880   31.4780 Zn       14 ZIL7        0.0000 
     14 Zn         34.0780   71.2550   31.2520 Zn        9 ZIP7        0.0000 
     15 N          32.3730   72.7660   30.0890 N.am      2 SEC2        0.0000 
     16 N          32.4730   72.1880   31.4780 N.am     12 SEL2        0.0000 
     17 N          32.2730   73.3440   28.7000 N.am      7 SEP2        0.0000 
     18 NZ         32.6250   70.7015   35.3535 N.4       3 LYC4        0.0000 
     19 NZ         33.9030   71.4330   35.4480 N.4      13 LYL4        0.0000 
     20 N          34.8710   71.5065   36.5390 N.am      2 SEC2        0.0000 
     21 N          33.9030   71.4330   35.4480 N.am     12 SEL2        0.0000 
     22 N          35.8390   71.5800   37.6300 N.am      7 SEP2        0.0000 
     23 N          34.9510   70.4195   35.6295 N.am      2 SEC2        0.0000 
     24 N          35.9990   69.4060   35.8110 N.am      7 SEP2        0.0000 
     25 N          32.6250   70.7015   35.3535 N.am      2 SEC2        0.0000 
     26 Zn         34.4885   71.2825   32.1915 Zn        4 ZIC7        0.0000 
     27 Zn         34.8990   71.3100   33.1310 Zn       14 ZIL7        0.0000 
     28 N          35.8685   70.1840   33.1155 N.am      2 SEC2        0.0000 
     29 N          34.8990   71.3100   33.1310 N.am     12 SEL2        0.0000 
     30 N          36.8380   69.0580   33.1000 N.am      7 SEP2        0.0000 
     31 N          35.6480   72.3245   36.1625 N.am      2 SEC2        0.0000 
     32 N          35.4570   73.0690   34.6950 N.am     12 SEL2        0.0000 
     33 N          38.5975   71.0380   33.6885 N.am      2 SEC2        0.0000 
     34 N          37.6840   72.0170   34.1730 N.am     12 SEL2        0.0000 
     35 N          39.5110   70.0590   33.2040 N.am      7 SEP2        0.0000 
     36 CA         35.1030   75.1755   36.2020 C.3       5 GLC5        0.0000 
     37 CA         36.8860   75.4810   35.5660 C.3      15 GLL5        0.0000 
     38 CA         33.3200   74.8700   36.8380 C.3      10 GLP5        0.0000 
     39 CA         35.8880   76.2275   34.0320 C.3       5 GLC5        0.0000 
     40 CA         34.8900   76.9740   32.4980 C.3      10 GLP5        0.0000 
     41 N          37.7835   75.7960   38.8405 N.am      2 SEC2        0.0000 
     42 N          38.5000   75.8140   37.3950 N.am     12 SEL2        0.0000 
     43 N          37.0670   75.7780   40.2860 N.am      7 SEP2        0.0000 
     44 CA         40.5540   74.5420   34.7855 C.3       5 GLC5        0.0000 
     45 CA         40.1610   76.1030   35.7680 C.3      15 GLL5        0.0000 
     46 CA         40.9470   72.9810   33.8030 C.3      10 GLP5        0.0000 
     47 O          41.3590   78.2215   34.8390 O.2       1 ALC1        0.0000 
     48 O          41.3390   76.8470   35.5500 O.2      11 ALL1        0.0000 
     49 O          41.3790   79.5960   34.1280 O.2       6 ALP1        0.0000 
     50 CA         38.8210   75.1560   38.8110 C.3       5 GLC5        0.0000 
     51 CA         39.8970   75.9020   37.2590 C.3      15 GLL5        0.0000 
     52 CA         37.7450   74.4100   40.3630 C.3      10 GLP5        0.0000 
     53 CA         40.3845   73.0330   40.3430 C.3       5 GLC5        0.0000 
     54 CA         41.6070   73.1630   38.8910 C.3      15 GLL5        0.0000 
     55 CA         39.1620   72.9030   41.7950 C.3      10 GLP5        0.0000 
     56 N          43.4130   70.2280   39.7045 N.am      2 SEC2        0.0000 
     57 N          42.8490   71.5610   40.1140 N.am     12 SEL2        0.0000 
     58 N          43.9770   68.8950   39.2950 N.am      7 SEP2        0.0000 
     59 N          44.3545   71.1845   39.3645 N.am      2 SEC2        0.0000 
     60 N          45.8600   70.8080   38.6150 N.am      7 SEP2        0.0000 
     61 O          43.8355   73.1665   41.6895 O.2       1 ALC1        0.0000 
     62 O          43.0980   73.7710   40.5920 O.2      11 ALL1        0.0000 
     63 O          44.5730   72.5620   42.7870 O.2       6 ALP1        0.0000 
     64 O          44.4235   75.2970   42.1415 O.2       1 ALC1        0.0000 
     65 O          43.4280   76.0090   41.1840 O.2      11 ALL1        0.0000 
     66 O          45.4190   74.5850   43.0990 O.2       6 ALP1        0.0000 
     67 CA         40.0410   74.4375   40.1585 C.3       5 GLC5        0.0000 
     68 CA         41.3870   74.5190   38.7750 C.3      15 GLL5        0.0000 
     69 CA         38.6950   74.3560   41.5420 C.3      10 GLP5        0.0000 
     70 CA         37.4540   77.7710   34.4050 C.3       5 GLC5        0.0000 
     71 CA         37.8440   76.4530   36.2440 C.3      15 GLL5        0.0000 
     72 CA         36.5110   78.8700   33.0450 C.3      10 GLP5        0.0000 
     73 CA         42.0935   75.4783   36.4933 C.3       5 GLC5        0.0000 
     74 CA         44.1580   74.9540   36.4730 C.3      10 GLP5        0.0000 
@<TRIPOS>BOND
@<TRIPOS>SUBSTRUCTURE
     1 ALC1       47 GROUP        1 X    ALC  0     ROOT ALC X 1
     2 SEC2        1 GROUP        1 X    SEC  0     **** SEC X 2
     3 LYC4        4 GROUP        1 X    LYC  0     **** LYC X 4
     4 ZIC7       12 GROUP        1 X    ZIC  0     **** ZIC X 5
     5 GLC5       36 GROUP        1 X    GLC  0     **** GLC X 6
     6 ALP1       49 GROUP        1 Y    ALP  0     ROOT ALP Y 8
     7 SEP2        3 GROUP        1 Y    SEP  0     **** SEP Y 9
     8 LYP4        6 GROUP        1 Y    LYP  0     **** LYP Y 11
     9 ZIP7       14 GROUP        1 Y    ZIP  0     **** ZIP Y 12
    10 GLP5       38 GROUP        1 Y    GLP  0     **** GLP Y 13
    11 ALL1       48 GROUP        1 Z    ALL  0     ROOT ALL Z 15
    12 SEL2        2 GROUP        1 Z    SEL  0     **** SEL Z 16
    13 LYL4        5 GROUP        1 Z    LYL  0     **** LYL Z 18
    14 ZIL7       13 GROUP        1 Z    ZIL  0     **** ZIL Z 19
    15 GLL5       37 GROUP        1 Z    GLL  0     **** GLL Z 20
@<TRIPOS>SET

