#    Name: 3sbd_GNP_2_ligand
#    Modification time : Mon Apr  7 22:14:37 2014

@<TRIPOS>MOLECULE
3sbd_GNP_2_ligand
   44    46     1     0     0
SMALL
NO_CHARGES


@<TRIPOS>ATOM
      1 PG         31.8500   72.7410   32.7440 P.3       1 GNP502      0.0000 
      2 O1G        31.1760   74.0610   32.4120 O.co2     1 GNP502      0.0000 
      3 O2G        30.8720   71.8020   33.4010 O.co2     1 GNP502      0.0000 
      4 O3G        32.4730   72.1880   31.4780 O.co2     1 GNP502      0.0000 
      5 N3B        33.1010   73.0670   33.7200 N.4       1 GNP502      0.0000 
      6 PB         34.3200   72.1350   34.2240 P.3       1 GNP502      0.0000 
      7 O1B        33.9030   71.4330   35.4480 O.co2     1 GNP502      0.0000 
      8 O2B        34.8990   71.3100   33.1310 O.co2     1 GNP502      0.0000 
      9 O3A        35.4570   73.0690   34.6950 O.3       1 GNP502      0.0000 
     10 PA         36.8780   73.2910   34.0870 P.3       1 GNP502      0.0000 
     11 O1A        37.6840   72.0170   34.1730 O.co2     1 GNP502      0.0000 
     12 O2A        36.7850   73.9450   32.7640 O.co2     1 GNP502      0.0000 
     13 O5'        37.5870   74.2740   35.0900 O.3       1 GNP502      0.0000 
     14 C5'        36.8860   75.4810   35.5660 C.3       1 GNP502      0.0000 
     15 C4'        37.8440   76.4530   36.2440 C.3       1 GNP502      0.0000 
     16 O4'        38.5000   75.8140   37.3950 O.3       1 GNP502      0.0000 
     17 C3'        38.9500   76.8910   35.2860 C.3       1 GNP502      0.0000 
     18 O3'        39.1990   78.3070   35.3760 O.3       1 GNP502      0.0000 
     19 C2'        40.1610   76.1030   35.7680 C.3       1 GNP502      0.0000 
     20 O2'        41.3390   76.8470   35.5500 O.3       1 GNP502      0.0000 
     21 C1'        39.8970   75.9020   37.2590 C.3       1 GNP502      0.0000 
     22 N9         40.4530   74.6570   37.7670 N.pl3     1 GNP502      0.0000 
     23 C8         40.1770   73.3640   37.3480 C.2       1 GNP502      0.0000 
     24 N7         40.8370   72.4340   37.9850 N.2       1 GNP502      0.0000 
     25 C5         41.6070   73.1630   38.8910 C.2       1 GNP502      0.0000 
     26 C6         42.5290   72.7210   39.8670 C.2       1 GNP502      0.0000 
     27 O6         42.8490   71.5610   40.1140 O.2       1 GNP502      0.0000 
     28 N1         43.0980   73.7710   40.5920 N.am      1 GNP502      0.0000 
     29 C2         42.8080   75.1090   40.3920 C.2       1 GNP502      0.0000 
     30 N2         43.4280   76.0090   41.1840 N.pl3     1 GNP502      0.0000 
     31 N3         41.9420   75.5330   39.4840 N.2       1 GNP502      0.0000 
     32 C4         41.3870   74.5190   38.7750 C.2       1 GNP502      0.0000 
     33 H          36.1011   75.2093   36.2844 H         1 GNP502      0.0000 
     34 H          36.4025   75.9987   34.7268 H         1 GNP502      0.0000 
     35 H          37.3064   77.3231   36.5622 H         1 GNP502      0.0000 
     36 H          38.7026   76.5628   34.3128 H         1 GNP502      0.0000 
     37 H          40.1494   75.1558   35.2951 H         1 GNP502      0.0000 
     38 H          40.2808   76.7430   37.7888 H         1 GNP502      0.0000 
     39 H          39.5138   73.1984   36.6081 H         1 GNP502      0.0000 
     40 H          43.7996   73.5197   41.3461 H         1 GNP502      0.0000 
     41 H          44.0861   75.6386   41.8396 H         1 GNP502      0.0000 
     42 H          43.1742   76.9662   41.0448 H         1 GNP502      0.0000 
     43 H          39.1434   78.6398   34.4347 H         1 GNP502      0.0000 
     44 H          41.0496   77.8038   35.5779 H         1 GNP502      0.0000 
@<TRIPOS>BOND
     1    2    1 ar   
     2    3    1 ar   
     3    4    1 ar   
     4    5    1 1    
     5    6    5 1    
     6    7    6 ar   
     7    8    6 ar   
     8    9    6 1    
     9   10    9 1    
    10   11   10 ar   
    11   12   10 ar   
    12   13   10 1    
    13   14   13 1    
    14   15   14 1    
    15   33   14 1    
    16   34   14 1    
    17   16   15 1    
    18   17   15 1    
    19   35   15 1    
    20   21   16 1    
    21   18   17 1    
    22   19   17 1    
    23   36   17 1    
    24   43   18 1    
    25   20   19 1    
    26   21   19 1    
    27   37   19 1    
    28   44   20 1    
    29   22   21 1    
    30   38   21 1    
    31   23   22 1    
    32   32   22 1    
    33   24   23 2    
    34   39   23 1    
    35   25   24 1    
    36   26   25 1    
    37   32   25 2    
    38   27   26 2    
    39   28   26 am   
    40   29   28 1    
    41   40   28 1    
    42   30   29 1    
    43   31   29 2    
    44   41   30 1    
    45   42   30 1    
    46   32   31 1    
@<TRIPOS>SUBSTRUCTURE
     1 GNP502      1 GROUP   
@<TRIPOS>SET

