#    Name: 2izr_BRK_1_INTS_M
#    Modification time : Tue Mar 25 19:01:34 2014

@<TRIPOS>MOLECULE
2izr_BRK_1_INTS_M
   52     0     6     0     0
SMALL
NO_CHARGES


@<TRIPOS>ATOM
      1 CA         12.1755   33.3495   25.1885 C.3       2 GLC5        0.0000 
      2 CA         11.3390   34.4120   24.0150 C.3       6 GLL5        0.0000 
      3 CA         13.0120   32.2870   26.3620 C.3       4 GLP5        0.0000 
      4 CA         12.9310   35.8915   23.5520 C.3       2 GLC5        0.0000 
      5 CA         14.5230   37.3710   23.0890 C.3       4 GLP5        0.0000 
      6 CA         11.0385   33.3225   26.6600 C.3       2 GLC5        0.0000 
      7 CA          9.0650   34.3580   26.9580 C.3       6 GLL5        0.0000 
      8 CA          8.0300   35.5310   25.3715 C.3       2 GLC5        0.0000 
      9 CA          6.9950   36.7040   23.7850 C.3       4 GLP5        0.0000 
     10 CA          9.9190   31.7285   26.1215 C.3       2 GLC5        0.0000 
     11 CA          8.5260   32.7350   26.8480 C.3       6 GLL5        0.0000 
     12 CA         11.3120   30.7220   25.3950 C.3       4 GLP5        0.0000 
     13 CA          6.9525   35.2855   29.3015 C.3       2 GLC5        0.0000 
     14 CA          8.7590   34.8890   28.2150 C.3       6 GLL5        0.0000 
     15 CA          5.1460   35.6820   30.3880 C.3       4 GLP5        0.0000 
     16 O           9.2160   36.5770   30.0020 O.2       1 ALC1        0.0000 
     17 O           9.0490   36.1400   28.6110 O.2       5 ALL1        0.0000 
     18 O           9.3830   37.0140   31.3930 O.2       3 ALP1        0.0000 
     19 CA          4.2905   31.0460   29.7775 C.3       2 GLC5        0.0000 
     20 CA          5.7980   30.0310   28.7270 C.3       6 GLL5        0.0000 
     21 CA          2.7830   32.0610   30.8280 C.3       4 GLP5        0.0000 
     22 CA          3.6955   25.4630   27.1360 C.3       2 GLC5        0.0000 
     23 CA          5.0210   26.5870   26.4970 C.3       6 GLL5        0.0000 
     24 CA          2.3700   24.3390   27.7750 C.3       4 GLP5        0.0000 
     25 CA          8.5765   27.4600   26.0020 C.3       2 GLC5        0.0000 
     26 CA          7.7960   28.5690   27.5070 C.3       6 GLL5        0.0000 
     27 CA          9.3570   26.3510   24.4970 C.3       4 GLP5        0.0000 
     28 CA          9.6885   30.2840   26.6985 C.3       2 GLC5        0.0000 
     29 CA          8.0650   29.8460   28.0020 C.3       6 GLL5        0.0000 
     30 CA         11.1907   32.0773   23.9300 C.3       2 GLC5        0.0000 
     31 CA         10.5650   33.0970   22.1260 C.3       6 GLL5        0.0000 
     32 CA         10.4597   32.2924   24.6623 C.3       2 GLC5        0.0000 
     33 CA         10.0580   34.3570   24.5680 C.3       6 GLL5        0.0000 
     34 CA          8.3012   35.2834   23.8573 C.3       2 GLC5        0.0000 
     35 CA         10.5530   34.4682   28.7482 C.3       2 GLC5        0.0000 
     36 CA         12.1940   34.3130   29.9100 C.3       4 GLP5        0.0000 
     37 CA          6.9191   34.4264   27.1120 C.3       2 GLC5        0.0000 
     38 CA          5.0610   34.6350   26.6650 C.3       4 GLP5        0.0000 
     39 CA          8.5870   30.9410   30.0482 C.3       2 GLC5        0.0000 
     40 CA          7.0670   30.6000   28.5890 C.3       6 GLL5        0.0000 
     41 CA          9.6080   31.6590   31.8010 C.3       4 GLP5        0.0000 
     42 CA          8.0215   28.9040   29.9267 C.3       2 GLC5        0.0000 
     43 CA          8.4770   27.5850   31.5580 C.3       4 GLP5        0.0000 
     44 CA          3.6590   29.9778   27.9992 C.3       2 GLC5        0.0000 
     45 CA          1.6620   30.5620   27.5160 C.3       4 GLP5        0.0000 
     46 CA          6.3705   28.2293   29.9342 C.3       2 GLC5        0.0000 
     47 CA          5.5140   28.7560   28.2380 C.3       6 GLL5        0.0000 
     48 CA          7.0850   27.0650   31.3860 C.3       4 GLP5        0.0000 
     49 CA          7.1233   27.6792   29.4755 C.3       2 GLC5        0.0000 
     50 CA          6.5270   28.0180   27.6230 C.3       6 GLL5        0.0000 
     51 CA          9.7867   29.0627   28.5072 C.3       2 GLC5        0.0000 
     52 CA         11.6430   28.9180   29.2600 C.3       4 GLP5        0.0000 
@<TRIPOS>BOND
@<TRIPOS>SUBSTRUCTURE
     1 ALC1       16 GROUP        1 X    ALC  0     ROOT ALC X 1
     2 GLC5        1 GROUP        1 X    GLC  0     **** GLC X 6
     3 ALP1       18 GROUP        1 Y    ALP  0     ROOT ALP Y 8
     4 GLP5        3 GROUP        1 Y    GLP  0     **** GLP Y 13
     5 ALL1       17 GROUP        1 Z    ALL  0     ROOT ALL Z 15
     6 GLL5        2 GROUP        1 Z    GLL  0     **** GLL Z 20
@<TRIPOS>SET

