#    Name: 2izr_BRK_1_ligand
#    Modification time : Tue Mar 25 19:01:35 2014

@<TRIPOS>MOLECULE
2izr_BRK_1_ligand
   42    44     1     0     0
SMALL
NO_CHARGES


@<TRIPOS>ATOM
      1 CAB         9.7990   31.9630   20.1550 C.3       1 BRK1335     0.0000 
      2 OAP        10.8950   32.4850   20.9280 O.3       1 BRK1335     0.0000 
      3 CAU        10.5650   33.0970   22.1260 C.ar      1 BRK1335     0.0000 
      4 CAJ        11.5740   33.7680   22.8040 C.ar      1 BRK1335     0.0000 
      5 CAL        11.3390   34.4120   24.0150 C.ar      1 BRK1335     0.0000 
      6 CAI         9.2880   33.0520   22.6800 C.ar      1 BRK1335     0.0000 
      7 CAK         9.0260   33.6850   23.9020 C.ar      1 BRK1335     0.0000 
      8 CAW        10.0580   34.3570   24.5680 C.ar      1 BRK1335     0.0000 
      9 CAR         9.8310   35.0770   25.8870 C.2       1 BRK1335     0.0000 
     10 OAD        10.3520   36.1730   26.1200 O.2       1 BRK1335     0.0000 
     11 CAY         9.0650   34.3580   26.9580 C.2       1 BRK1335     0.0000 
     12 SAQ         8.5260   32.7350   26.8480 S.3       1 BRK1335     0.0000 
     13 CAV         8.7590   34.8890   28.2150 C.2       1 BRK1335     0.0000 
     14 NAC         9.0490   36.1400   28.6110 N.pl3     1 BRK1335     0.0000 
     15 NAM         8.1400   34.0210   29.0440 N.pl3     1 BRK1335     0.0000 
     16 CAX         7.9310   32.7940   28.4930 C.2       1 BRK1335     0.0000 
     17 NAN         7.2990   31.8370   29.1030 N.2       1 BRK1335     0.0000 
     18 CAS         7.0670   30.6000   28.5890 C.ar      1 BRK1335     0.0000 
     19 CAE         5.7980   30.0310   28.7270 C.ar      1 BRK1335     0.0000 
     20 CAG         5.5140   28.7560   28.2380 C.ar      1 BRK1335     0.0000 
     21 CAT         6.5270   28.0180   27.6230 C.ar      1 BRK1335     0.0000 
     22 OAO         6.3030   26.7520   27.1280 O.3       1 BRK1335     0.0000 
     23 CAA         5.0210   26.5870   26.4970 C.3       1 BRK1335     0.0000 
     24 CAH         7.7960   28.5690   27.5070 C.ar      1 BRK1335     0.0000 
     25 CAF         8.0650   29.8460   28.0020 C.ar      1 BRK1335     0.0000 
     26 H          12.5314   33.7906   22.3970 H         1 BRK1335     0.0000 
     27 H          12.0861   34.9148   24.4909 H         1 BRK1335     0.0000 
     28 H           8.5323   32.5533   22.1932 H         1 BRK1335     0.0000 
     29 H           8.0869   33.6562   24.3046 H         1 BRK1335     0.0000 
     30 H           8.8093   36.3696   29.5543 H         1 BRK1335     0.0000 
     31 H           9.4786   36.7296   27.9270 H         1 BRK1335     0.0000 
     32 H           7.8603   34.2518   29.9730 H         1 BRK1335     0.0000 
     33 H           5.0514   30.5699   29.2040 H         1 BRK1335     0.0000 
     34 H           4.5740   28.3654   28.3287 H         1 BRK1335     0.0000 
     35 H           8.5502   28.0317   27.0508 H         1 BRK1335     0.0000 
     36 H           9.0234   30.2263   27.9257 H         1 BRK1335     0.0000 
     37 H          10.1128   31.5363   19.3068 H         1 BRK1335     0.0000 
     38 H           9.2858   31.2689   20.6599 H         1 BRK1335     0.0000 
     39 H           9.1499   32.6797   19.8999 H         1 BRK1335     0.0000 
     40 H           4.9064   27.2072   25.7210 H         1 BRK1335     0.0000 
     41 H           4.8945   25.6575   26.1505 H         1 BRK1335     0.0000 
     42 H           4.2690   26.7685   27.1307 H         1 BRK1335     0.0000 
@<TRIPOS>BOND
     1    2    1 1    
     2   37    1 1    
     3   38    1 1    
     4   39    1 1    
     5    3    2 1    
     6    4    3 ar   
     7    6    3 ar   
     8    5    4 ar   
     9   26    4 1    
    10    8    5 ar   
    11   27    5 1    
    12    7    6 ar   
    13   28    6 1    
    14    8    7 ar   
    15   29    7 1    
    16    9    8 1    
    17   10    9 2    
    18   11    9 1    
    19   12   11 1    
    20   13   11 2    
    21   16   12 1    
    22   14   13 1    
    23   15   13 1    
    24   30   14 1    
    25   31   14 1    
    26   16   15 1    
    27   32   15 1    
    28   17   16 2    
    29   18   17 1    
    30   19   18 ar   
    31   25   18 ar   
    32   20   19 ar   
    33   33   19 1    
    34   21   20 ar   
    35   34   20 1    
    36   22   21 1    
    37   24   21 ar   
    38   23   22 1    
    39   40   23 1    
    40   41   23 1    
    41   42   23 1    
    42   25   24 ar   
    43   35   24 1    
    44   36   25 1    
@<TRIPOS>SUBSTRUCTURE
     1 BRK1335     1 GROUP   
@<TRIPOS>SET

