#    Name: 1d4i_BEG_1_INTS_M
#    Modification time : Mon Mar 24 21:29:41 2014

@<TRIPOS>MOLECULE
1d4i_BEG_1_INTS_M
  122     0     9     0     0
SMALL
NO_CHARGES


@<TRIPOS>ATOM
      1 CA          7.6015   21.2945    2.3645 C.3       3 GLC5        0.0000 
      2 CA          8.9940   22.9960    2.7470 C.3       9 GLL5        0.0000 
      3 CA          6.2090   19.5930    1.9820 C.3       6 GLP5        0.0000 
      4 CA         13.6405   21.8280    9.7880 C.3       3 GLC5        0.0000 
      5 CA         15.5700   21.1300    9.4590 C.3       9 GLL5        0.0000 
      6 CA         11.7110   22.5260   10.1170 C.3       6 GLP5        0.0000 
      7 CA         15.8920   19.4855   11.8755 C.3       3 GLC5        0.0000 
      8 CA         16.1750   19.9340    9.9220 C.3       9 GLL5        0.0000 
      9 CA         15.6090   19.0370   13.8290 C.3       6 GLP5        0.0000 
     10 CA         18.6700   23.5240    8.4475 C.3       3 GLC5        0.0000 
     11 CA         17.6900   21.9140    8.5860 C.3       9 GLL5        0.0000 
     12 CA         19.6500   25.1340    8.3090 C.3       6 GLP5        0.0000 
     13 CA         17.6050   24.2460    8.2520 C.3       3 GLC5        0.0000 
     14 CA         15.5600   23.3580    8.1950 C.3       9 GLL5        0.0000 
     15 CA         13.6355   22.9420    9.1560 C.3       3 GLC5        0.0000 
     16 N          15.0435   25.7600    5.5210 N.am      2 SEC2        0.0000 
     17 N          14.4830   25.1780    4.3050 N.am      8 SEL2        0.0000 
     18 N          15.6040   26.3420    6.7370 N.am      5 SEP2        0.0000 
     19 O          14.6150   24.8775    3.0380 O.2       1 ALC1        0.0000 
     20 O          14.4830   25.1780    4.3050 O.2       7 ALL1        0.0000 
     21 O          14.7470   24.5770    1.7710 O.2       4 ALP1        0.0000 
     22 CA         12.8690   26.3320    3.3690 C.3       3 GLC5        0.0000 
     23 CA         12.1170   24.5380    4.3530 C.3       9 GLL5        0.0000 
     24 CA         13.6210   28.1260    2.3850 C.3       6 GLP5        0.0000 
     25 O          10.8035   26.6400    4.3480 O.2       1 ALC1        0.0000 
     26 O          10.1400   25.6060    5.3730 O.2       7 ALL1        0.0000 
     27 O          11.4670   27.6740    3.3230 O.2       4 ALP1        0.0000 
     28 O          17.3805   21.8550    5.2945 O.2       1 ALC1        0.0000 
     29 O          16.3580   20.6920    5.4360 O.2       7 ALL1        0.0000 
     30 O          18.4030   23.0180    5.1530 O.2       4 ALP1        0.0000 
     31 CA         16.6925   15.8615    3.5125 C.3       3 GLC5        0.0000 
     32 CA         17.5340   17.8490    3.5510 C.3       9 GLL5        0.0000 
     33 CA         15.8510   13.8740    3.4740 C.3       6 GLP5        0.0000 
     34 CA         13.6065   19.1275    3.1380 C.3       3 GLC5        0.0000 
     35 CA         15.7320   19.3140    2.7770 C.3       9 GLL5        0.0000 
     36 CA         11.4810   18.9410    3.4990 C.3       6 GLP5        0.0000 
     37 CA         14.1615   20.0790    0.8065 C.3       3 GLC5        0.0000 
     38 CA         15.8630   18.7640    1.4680 C.3       9 GLL5        0.0000 
     39 CA         12.4600   21.3940    0.1450 C.3       6 GLP5        0.0000 
     40 N          19.5815   20.1990    4.0340 N.am      2 SEC2        0.0000 
     41 N          18.9370   19.8230    5.3790 N.am      8 SEL2        0.0000 
     42 N          20.2260   20.5750    2.6890 N.am      5 SEP2        0.0000 
     43 O          20.3640   19.1125    5.4675 O.2       1 ALC1        0.0000 
     44 O          18.9370   19.8230    5.3790 O.2       7 ALL1        0.0000 
     45 O          21.7910   18.4020    5.5560 O.2       4 ALP1        0.0000 
     46 CA         17.2895   15.3625    2.3590 C.3       3 GLC5        0.0000 
     47 CA         17.6790   17.2890    2.2560 C.3       9 GLL5        0.0000 
     48 CA         16.9000   13.4360    2.4620 C.3       6 GLP5        0.0000 
     49 CA          8.5030   23.6365    6.2310 C.3       3 GLC5        0.0000 
     50 CA          8.9680   25.7780    6.2160 C.3       9 GLL5        0.0000 
     51 CA          8.0380   21.4950    6.2460 C.3       6 GLP5        0.0000 
     52 CA          6.7575   26.5995    9.3955 C.3       3 GLC5        0.0000 
     53 CA          8.1810   27.3610    7.8600 C.3       9 GLL5        0.0000 
     54 CA          5.3340   25.8380   10.9310 C.3       6 GLP5        0.0000 
     55 CA         12.3320   26.2730   10.0975 C.3       3 GLC5        0.0000 
     56 CA         10.4670   27.2400    9.5180 C.3       9 GLL5        0.0000 
     57 CA         14.1970   25.3060   10.6770 C.3       6 GLP5        0.0000 
     58 N           9.2220   29.0035    5.2675 N.am      2 SEC2        0.0000 
     59 N           8.4820   27.6840    4.8680 N.am      8 SEL2        0.0000 
     60 N           9.9620   30.3230    5.6670 N.am      5 SEP2        0.0000 
     61 O           7.4200   28.8420    4.4605 O.2       1 ALC1        0.0000 
     62 O           8.4820   27.6840    4.8680 O.2       7 ALL1        0.0000 
     63 O           6.3580   30.0000    4.0530 O.2       4 ALP1        0.0000 
     64 CA          6.5890   27.6955   10.2225 C.3       3 GLC5        0.0000 
     65 CA          8.2240   28.1560    9.0350 C.3       9 GLL5        0.0000 
     66 CA          4.9540   27.2350   11.4100 C.3       6 GLP5        0.0000 
     67 CA          7.4015   29.2945    6.1495 C.3       3 GLC5        0.0000 
     68 CA          7.0930   27.2730    6.8320 C.3       9 GLL5        0.0000 
     69 CA          7.7100   31.3160    5.4670 C.3       6 GLP5        0.0000 
     70 CA         11.4928   22.7372    1.1680 C.3       3 GLC5        0.0000 
     71 CA          9.7640   24.0840    2.2340 C.3       9 GLL5        0.0000 
     72 CA          8.0482   24.1223    0.4775 C.3       3 GLC5        0.0000 
     73 CA          7.6410   25.3630    2.0030 C.3       9 GLL5        0.0000 
     74 CA          8.8240   23.4270   -1.3080 C.3       6 GLP5        0.0000 
     75 CA          6.4623   22.1245    1.8495 C.3       3 GLC5        0.0000 
     76 CA          6.9040   24.2720    2.5230 C.3       9 GLL5        0.0000 
     77 CA          5.6800   20.5690    0.9910 C.3       6 GLP5        0.0000 
     78 CA          8.1638   22.2685    4.5330 C.3       3 GLC5        0.0000 
     79 CA          7.5850   23.0880    2.8930 C.3       9 GLL5        0.0000 
     80 CA          8.5567   23.2345    0.7560 C.3       3 GLC5        0.0000 
     81 CA         15.0630   24.0297    9.5805 C.3       3 GLC5        0.0000 
     82 CA         16.2980   22.1490    8.7730 C.3       9 GLL5        0.0000 
     83 CA         14.4603   19.3125    8.8198 C.3       3 GLC5        0.0000 
     84 CA         13.0480   18.0930    7.9490 C.3       6 GLP5        0.0000 
     85 CA         17.3010   21.3908   10.9458 C.3       3 GLC5        0.0000 
     86 CA         17.7340   22.9500   12.0750 C.3       6 GLP5        0.0000 
     87 CA         17.8683   22.1348   10.4452 C.3       3 GLC5        0.0000 
     88 CA         18.3150   20.7250    9.0450 C.3       9 GLL5        0.0000 
     89 CA         16.7405   22.7244   10.3652 C.3       3 GLC5        0.0000 
     90 CA         10.7298   25.6901    0.7451 C.3       3 GLC5        0.0000 
     91 CA         11.2870   24.0770    2.1480 C.3       9 GLL5        0.0000 
     92 CA         11.1140   27.0080   -0.6090 C.3       6 GLP5        0.0000 
     93 CA          9.5847   23.8996    0.3956 C.3       3 GLC5        0.0000 
     94 CA          9.0440   25.2510    1.8670 C.3       9 GLL5        0.0000 
     95 CA         17.5023   20.6275    3.5288 C.3       3 GLC5        0.0000 
     96 CA         16.5710   18.8470    3.8200 C.3       9 GLL5        0.0000 
     97 CA         18.4090   22.1930    2.5170 C.3       6 GLP5        0.0000 
     98 CA         19.9128   18.2698    3.7098 C.3       3 GLC5        0.0000 
     99 CA         21.9040   18.8460    3.2470 C.3       6 GLP5        0.0000 
    100 CA         14.9150   18.1028   -0.0630 C.3       3 GLC5        0.0000 
    101 CA         13.4820   17.9460   -1.4660 C.3       6 GLP5        0.0000 
    102 CA         15.3070   16.5383    1.5230 C.3       3 GLC5        0.0000 
    103 CA         14.2660   14.8170    1.7060 C.3       6 GLP5        0.0000 
    104 CA         16.8771   20.2450    1.5056 C.3       3 GLC5        0.0000 
    105 CA         16.8330   17.7550    1.2120 C.3       9 GLL5        0.0000 
    106 CA         17.4390   22.0930    1.3440 C.3       6 GLP5        0.0000 
    107 CA         18.6225   17.1380    0.5630 C.3       3 GLC5        0.0000 
    108 CA         19.9890   16.7540   -0.6080 C.3       6 GLP5        0.0000 
    109 CA         10.5510   27.5572    6.2873 C.3       3 GLC5        0.0000 
    110 CA         11.9900   28.9720    5.7150 C.3       6 GLP5        0.0000 
    111 CA          9.2715   24.5981    8.4464 C.3       3 GLC5        0.0000 
    112 CA         10.4080   26.4460    8.3320 C.3       9 GLL5        0.0000 
    113 CA          8.7830   22.9020    9.2970 C.3       6 GLP5        0.0000 
    114 CA         10.8440   27.2677   11.3818 C.3       3 GLC5        0.0000 
    115 CA         11.7660   26.8710   13.0730 C.3       6 GLP5        0.0000 
    116 CA          8.6765   26.7332   11.0373 C.3       3 GLC5        0.0000 
    117 CA          7.4310   25.8020   12.3840 C.3       6 GLP5        0.0000 
    118 CA         11.3281   28.1335    8.2120 C.3       3 GLC5        0.0000 
    119 CA          9.3770   28.0890    9.8630 C.3       9 GLL5        0.0000 
    120 CA         12.7490   28.8010    7.0300 C.3       6 GLP5        0.0000 
    121 CA          8.5162   30.0737    9.7985 C.3       3 GLC5        0.0000 
    122 CA          8.2320   32.0250   10.1480 C.3       6 GLP5        0.0000 
@<TRIPOS>BOND
@<TRIPOS>SUBSTRUCTURE
     1 ALC1       19 GROUP        1 X    ALC  0     ROOT ALC X 1
     2 SEC2       16 GROUP        1 X    SEC  0     **** SEC X 2
     3 GLC5        1 GROUP        1 X    GLC  0     **** GLC X 6
     4 ALP1       21 GROUP        1 Y    ALP  0     ROOT ALP Y 8
     5 SEP2       18 GROUP        1 Y    SEP  0     **** SEP Y 9
     6 GLP5        3 GROUP        1 Y    GLP  0     **** GLP Y 13
     7 ALL1       20 GROUP        1 Z    ALL  0     ROOT ALL Z 15
     8 SEL2       17 GROUP        1 Z    SEL  0     **** SEL Z 16
     9 GLL5        2 GROUP        1 Z    GLL  0     **** GLL Z 20
@<TRIPOS>SET

