#    Name: 1d4i_BEG_1_ligand
#    Modification time : Mon Mar 24 21:29:41 2014

@<TRIPOS>MOLECULE
1d4i_BEG_1_ligand
   87    92     1     0     0
SMALL
NO_CHARGES


@<TRIPOS>ATOM
      1 C01         9.7640   24.0840    2.2340 C.ar      1 BEG501      0.0000 
      2 C02         9.0440   25.2510    1.8670 C.ar      1 BEG501      0.0000 
      3 C03         7.6410   25.3630    2.0030 C.ar      1 BEG501      0.0000 
      4 C04         6.9040   24.2720    2.5230 C.ar      1 BEG501      0.0000 
      5 C05         7.5850   23.0880    2.8930 C.ar      1 BEG501      0.0000 
      6 C06         8.9940   22.9960    2.7470 C.ar      1 BEG501      0.0000 
      7 C07        16.2980   22.1490    8.7730 C.ar      1 BEG501      0.0000 
      8 C08        15.5700   21.1300    9.4590 C.ar      1 BEG501      0.0000 
      9 C09        16.1750   19.9340    9.9220 C.ar      1 BEG501      0.0000 
     10 C10        17.5610   19.7290    9.7110 C.ar      1 BEG501      0.0000 
     11 C11        18.3150   20.7250    9.0450 C.ar      1 BEG501      0.0000 
     12 C12        17.6900   21.9140    8.5860 C.ar      1 BEG501      0.0000 
     13 C13        15.5600   23.3580    8.1950 C.3       1 BEG501      0.0000 
     14 O14        14.5260   23.0150    7.2720 O.3       1 BEG501      0.0000 
     15 C23        11.2870   24.0770    2.1480 C.3       1 BEG501      0.0000 
     16 O22        11.9200   23.5540    3.3130 O.3       1 BEG501      0.0000 
     17 C15        15.0310   22.6990    5.9680 C.3       1 BEG501      0.0000 
     18 C16        13.9910   23.0190    4.9240 C.3       1 BEG501      0.0000 
     19 C17        13.5020   24.4250    5.0060 C.3       1 BEG501      0.0000 
     20 O24        14.4830   25.1780    4.3050 O.3       1 BEG501      0.0000 
     21 C18        12.1170   24.5380    4.3530 C.3       1 BEG501      0.0000 
     22 C19        10.9440   24.4850    5.3240 C.2       1 BEG501      0.0000 
     23 O20        10.6960   23.4920    6.0040 O.2       1 BEG501      0.0000 
     24 N21        10.1400   25.6060    5.3730 N.am      1 BEG501      0.0000 
     25 C25        15.1400   21.2020    5.8360 C.2       1 BEG501      0.0000 
     26 O26        14.1930   20.4640    6.0870 O.2       1 BEG501      0.0000 
     27 N27        16.3580   20.6920    5.4360 N.am      1 BEG501      0.0000 
     28 C28        16.6200   19.2770    5.2610 C.3       1 BEG501      0.0000 
     29 C29        16.5710   18.8470    3.8200 C.ar      1 BEG501      0.0000 
     30 C30        17.5340   17.8490    3.5510 C.ar      1 BEG501      0.0000 
     31 C31        15.7320   19.3140    2.7770 C.ar      1 BEG501      0.0000 
     32 C32        15.8630   18.7640    1.4680 C.ar      1 BEG501      0.0000 
     33 C33        16.8330   17.7550    1.2120 C.ar      1 BEG501      0.0000 
     34 C34        18.0180   18.7810    5.6730 C.3       1 BEG501      0.0000 
     35 O35        18.9370   19.8230    5.3790 O.3       1 BEG501      0.0000 
     36 C36        17.6790   17.2890    2.2560 C.ar      1 BEG501      0.0000 
     37 C37        18.3090   17.5380    4.7940 C.3       1 BEG501      0.0000 
     38 C38         8.9680   25.7780    6.2160 C.3       1 BEG501      0.0000 
     39 C39         9.2560   26.5070    7.5030 C.ar      1 BEG501      0.0000 
     40 C40         8.1810   27.3610    7.8600 C.ar      1 BEG501      0.0000 
     41 C41        10.4080   26.4460    8.3320 C.ar      1 BEG501      0.0000 
     42 C42        10.4670   27.2400    9.5180 C.ar      1 BEG501      0.0000 
     43 C43         9.3770   28.0890    9.8630 C.ar      1 BEG501      0.0000 
     44 C44         7.8490   26.6630    5.6250 C.3       1 BEG501      0.0000 
     45 O45         8.4820   27.6840    4.8680 O.3       1 BEG501      0.0000 
     46 C46         8.2240   28.1560    9.0350 C.ar      1 BEG501      0.0000 
     47 C47         7.0930   27.2730    6.8320 C.3       1 BEG501      0.0000 
     48 H           9.5743   26.0588    1.4809 H         1 BEG501      0.0000 
     49 H           7.1656   26.2184    1.7302 H         1 BEG501      0.0000 
     50 H           5.8963   24.3385    2.6294 H         1 BEG501      0.0000 
     51 H           7.0617   22.2943    3.2673 H         1 BEG501      0.0000 
     52 H           9.4747   22.1278    3.0157 H         1 BEG501      0.0000 
     53 H          14.5559   21.2746    9.6236 H         1 BEG501      0.0000 
     54 H          15.6199   19.2316   10.4001 H         1 BEG501      0.0000 
     55 H          18.0079   18.8772   10.0340 H         1 BEG501      0.0000 
     56 H          19.3169   20.5886    8.8927 H         1 BEG501      0.0000 
     57 H          18.2570   22.6271    8.1045 H         1 BEG501      0.0000 
     58 H          16.3233   24.0151    7.7210 H         1 BEG501      0.0000 
     59 H          15.1581   23.9411    9.0539 H         1 BEG501      0.0000 
     60 H          11.6127   25.1214    1.9450 H         1 BEG501      0.0000 
     61 H          11.5654   23.4959    1.2409 H         1 BEG501      0.0000 
     62 H          15.9301   23.1421    5.7246 H         1 BEG501      0.0000 
     63 H          13.1414   22.3243    5.0406 H         1 BEG501      0.0000 
     64 H          14.4193   22.8338    3.9238 H         1 BEG501      0.0000 
     65 H          13.4392   24.7110    6.0282 H         1 BEG501      0.0000 
     66 H          12.0748   25.5529    3.8715 H         1 BEG501      0.0000 
     67 H          10.3753   26.4332    4.7490 H         1 BEG501      0.0000 
     68 H          17.1568   21.3409    5.2407 H         1 BEG501      0.0000 
     69 H          15.9042   18.6509    5.7937 H         1 BEG501      0.0000 
     70 H          15.0411   20.0354    2.9572 H         1 BEG501      0.0000 
     71 H          15.2613   19.0944    0.7167 H         1 BEG501      0.0000 
     72 H          16.9220   17.3636    0.2739 H         1 BEG501      0.0000 
     73 H          17.9941   18.4980    6.6783 H         1 BEG501      0.0000 
     74 H          18.3682   16.5741    2.0771 H         1 BEG501      0.0000 
     75 H          19.3435   17.4962    4.5943 H         1 BEG501      0.0000 
     76 H          17.9245   16.6823    5.2755 H         1 BEG501      0.0000 
     77 H           8.5014   24.8369    6.4849 H         1 BEG501      0.0000 
     78 H          11.1858   25.8434    8.0863 H         1 BEG501      0.0000 
     79 H          11.2889   27.1976   10.1152 H         1 BEG501      0.0000 
     80 H           9.4255   28.6538   10.7127 H         1 BEG501      0.0000 
     81 H           7.1983   26.0592    5.0741 H         1 BEG501      0.0000 
     82 H           7.4510   28.7576    9.2785 H         1 BEG501      0.0000 
     83 H           6.7450   28.2316    6.5681 H         1 BEG501      0.0000 
     84 H           6.3392   26.6032    7.1370 H         1 BEG501      0.0000 
     85 H          14.8448   24.5520    3.6142 H         1 BEG501      0.0000 
     86 H          19.8405   19.4038    5.4680 H         1 BEG501      0.0000 
     87 H           7.7682   28.3649    4.7043 H         1 BEG501      0.0000 
@<TRIPOS>BOND
     1    2    1 ar   
     2    6    1 ar   
     3   15    1 1    
     4    3    2 ar   
     5   48    2 1    
     6    4    3 ar   
     7   49    3 1    
     8    5    4 ar   
     9   50    4 1    
    10    6    5 ar   
    11   51    5 1    
    12   52    6 1    
    13    8    7 ar   
    14   12    7 ar   
    15   13    7 1    
    16    9    8 ar   
    17   53    8 1    
    18   10    9 ar   
    19   54    9 1    
    20   11   10 ar   
    21   55   10 1    
    22   12   11 ar   
    23   56   11 1    
    24   57   12 1    
    25   14   13 1    
    26   58   13 1    
    27   59   13 1    
    28   17   14 1    
    29   16   15 1    
    30   60   15 1    
    31   61   15 1    
    32   21   16 1    
    33   18   17 1    
    34   25   17 1    
    35   62   17 1    
    36   19   18 1    
    37   63   18 1    
    38   64   18 1    
    39   20   19 1    
    40   21   19 1    
    41   65   19 1    
    42   85   20 1    
    43   22   21 1    
    44   66   21 1    
    45   23   22 2    
    46   24   22 am   
    47   38   24 1    
    48   67   24 1    
    49   26   25 2    
    50   27   25 am   
    51   28   27 1    
    52   68   27 1    
    53   29   28 1    
    54   34   28 1    
    55   69   28 1    
    56   30   29 ar   
    57   31   29 ar   
    58   36   30 ar   
    59   37   30 1    
    60   32   31 ar   
    61   70   31 1    
    62   33   32 ar   
    63   71   32 1    
    64   36   33 ar   
    65   72   33 1    
    66   35   34 1    
    67   37   34 1    
    68   73   34 1    
    69   86   35 1    
    70   74   36 1    
    71   75   37 1    
    72   76   37 1    
    73   39   38 1    
    74   44   38 1    
    75   77   38 1    
    76   40   39 ar   
    77   41   39 ar   
    78   46   40 ar   
    79   47   40 1    
    80   42   41 ar   
    81   78   41 1    
    82   43   42 ar   
    83   79   42 1    
    84   46   43 ar   
    85   80   43 1    
    86   45   44 1    
    87   47   44 1    
    88   81   44 1    
    89   87   45 1    
    90   82   46 1    
    91   83   47 1    
    92   84   47 1    
@<TRIPOS>SUBSTRUCTURE
     1 BEG501      1 GROUP   
@<TRIPOS>SET

