#    Name: 4htx_19F_1_INTS_M
#    Modification time : Tue Mar 25 01:44:41 2014

@<TRIPOS>MOLECULE
4htx_19F_1_INTS_M
   90     0     9     0     0
SMALL
NO_CHARGES


@<TRIPOS>ATOM
      1 CA        -13.8915   28.6025   20.8115 C.3       3 GLC5        0.0000 
      2 CA        -13.0200   27.3340   22.1530 C.3       9 GLL5        0.0000 
      3 CA        -14.7630   29.8710   19.4700 C.3       6 GLP5        0.0000 
      4 CA        -11.2440   27.8175   23.1735 C.3       3 GLC5        0.0000 
      5 CA         -9.4680   28.3010   24.1940 C.3       6 GLP5        0.0000 
      6 CA        -10.9860   29.5330   25.2765 C.3       3 GLC5        0.0000 
      7 CA        -12.5040   30.7650   26.3590 C.3       9 GLL5        0.0000 
      8 CA        -12.9695   31.5060   28.1335 C.3       3 GLC5        0.0000 
      9 CA        -13.4350   32.2470   29.9080 C.3       6 GLP5        0.0000 
     10 CA        -14.4850   30.1540   27.2245 C.3       3 GLC5        0.0000 
     11 CA        -16.4660   29.5430   28.0900 C.3       6 GLP5        0.0000 
     12 CA        -12.9295   22.3935   26.2280 C.3       3 GLC5        0.0000 
     13 CA        -13.0680   24.5100   26.2370 C.3       9 GLL5        0.0000 
     14 CA        -12.7910   20.2770   26.2190 C.3       6 GLP5        0.0000 
     15 CA        -11.9980   23.9550   28.0205 C.3       3 GLC5        0.0000 
     16 CA        -10.9280   23.4000   29.8040 C.3       6 GLP5        0.0000 
     17 CA        -11.7190   23.7820   25.3640 C.3       3 GLC5        0.0000 
     18 CA        -10.3700   23.0540   24.4910 C.3       6 GLP5        0.0000 
     19 CA        -14.7245   25.8710   25.9445 C.3       3 GLC5        0.0000 
     20 CA        -16.3810   27.2320   25.6520 C.3       6 GLP5        0.0000 
     21 O         -14.7910   24.2085   28.5015 O.2       1 ALC1        0.0000 
     22 O         -15.2560   23.8620   27.1510 O.2       7 ALL1        0.0000 
     23 O         -14.3260   24.5550   29.8520 O.2       4 ALP1        0.0000 
     24 N         -18.3775   22.9325   28.8635 N.am      2 SEC2        0.0000 
     25 N         -17.2640   23.2430   27.9630 N.am      8 SEL2        0.0000 
     26 N         -19.4910   22.6220   29.7640 N.am      5 SEP2        0.0000 
     27 N         -16.7495   23.5455   29.3765 N.am      2 SEC2        0.0000 
     28 N         -16.2350   23.8480   30.7900 N.am      5 SEP2        0.0000 
     29 CA        -20.4065   22.8470   27.3550 C.3       3 GLC5        0.0000 
     30 CA        -19.3310   22.0540   25.8770 C.3       9 GLL5        0.0000 
     31 CA        -21.4820   23.6400   28.8330 C.3       6 GLP5        0.0000 
     32 CA        -17.5260   20.9955   26.2445 C.3       3 GLC5        0.0000 
     33 CA        -15.7210   19.9370   26.6120 C.3       6 GLP5        0.0000 
     34 CA        -19.0585   24.0400   26.0595 C.3       3 GLC5        0.0000 
     35 CA        -18.7860   26.0260   26.2420 C.3       6 GLP5        0.0000 
     36 CA        -16.0205   18.9945   22.8825 C.3       3 GLC5        0.0000 
     37 CA        -14.8790   20.4440   22.7480 C.3       9 GLL5        0.0000 
     38 CA        -17.1620   17.5450   23.0170 C.3       6 GLP5        0.0000 
     39 CA        -15.3000   20.1905   24.6800 C.3       3 GLC5        0.0000 
     40 CA        -18.8775   24.4015   21.8735 C.3       3 GLC5        0.0000 
     41 CA        -17.0970   24.6660   21.1290 C.3       9 GLL5        0.0000 
     42 CA        -20.6580   24.1370   22.6180 C.3       6 GLP5        0.0000 
     43 CA        -16.2975   27.3030   18.9375 C.3       3 GLC5        0.0000 
     44 CA        -16.8260   25.9720   20.3600 C.3       9 GLL5        0.0000 
     45 CA        -15.7690   28.6340   17.5150 C.3       6 GLP5        0.0000 
     46 CA        -20.5600   29.6750   19.3540 C.3       3 GLC5        0.0000 
     47 CA        -20.0670   27.7550   20.1320 C.3       9 GLL5        0.0000 
     48 CA        -21.0530   31.5950   18.5760 C.3       6 GLP5        0.0000 
     49 CA        -14.5245   29.3297   24.2630 C.3       3 GLC5        0.0000 
     50 CA        -12.8690   27.7290   24.4620 C.3       9 GLL5        0.0000 
     51 CA        -16.2460   30.4870   23.5320 C.3       6 GLP5        0.0000 
     52 CA        -14.4132   28.2132   27.1000 C.3       3 GLC5        0.0000 
     53 CA        -12.7370   28.6160   25.5260 C.3       9 GLL5        0.0000 
     54 CA        -16.1040   28.0480   28.0180 C.3       6 GLP5        0.0000 
     55 CA        -11.1118   28.2289   25.0550 C.3       3 GLC5        0.0000 
     56 CA        -12.7080   28.1410   26.8380 C.3       9 GLL5        0.0000 
     57 CA        -11.1304   26.4855   25.3155 C.3       3 GLC5        0.0000 
     58 CA        -12.9750   26.3600   24.6930 C.3       9 GLL5        0.0000 
     59 CA         -9.3720   26.5280   24.4200 C.3       6 GLP5        0.0000 
     60 CA        -14.4942   27.1852   27.2780 C.3       3 GLC5        0.0000 
     61 CA        -12.9580   25.8780   26.0010 C.3       9 GLL5        0.0000 
     62 CA        -16.5890   21.3215   26.0395 C.3       3 GLC5        0.0000 
     63 CA        -16.9060   22.9700   25.7460 C.3       9 GLL5        0.0000 
     64 CA        -19.6638   23.1925   24.0752 C.3       3 GLC5        0.0000 
     65 CA        -18.0080   22.4420   25.1880 C.3       9 GLL5        0.0000 
     66 CA        -12.8600   21.8170   22.9488 C.3       3 GLC5        0.0000 
     67 CA        -14.6030   21.8660   22.2630 C.3       9 GLL5        0.0000 
     68 CA        -10.9790   22.4790   23.3920 C.3       6 GLP5        0.0000 
     69 CA        -16.8500   25.8644   22.7568 C.3       3 GLC5        0.0000 
     70 CA        -15.7350   24.0450   21.5370 C.3       9 GLL5        0.0000 
     71 CA        -17.0790   26.5650   24.6670 C.3       6 GLP5        0.0000 
     72 CA        -17.8255   28.5243   19.6190 C.3       3 GLC5        0.0000 
     73 CA        -18.0110   26.5380   19.8620 C.3       9 GLL5        0.0000 
     74 CA        -17.1950   30.1720   18.9700 C.3       6 GLP5        0.0000 
     75 CA        -17.8175   27.6465   17.2840 C.3       3 GLC5        0.0000 
     76 CA        -18.2980   26.4170   18.5060 C.3       9 GLL5        0.0000 
     77 CA        -16.7570   28.6050   16.3370 C.3       6 GLP5        0.0000 
     78 CA        -20.3193   28.8483   17.3287 C.3       3 GLC5        0.0000 
     79 CA        -19.4580   26.9590   17.9560 C.3       9 GLL5        0.0000 
     80 CA        -20.7360   30.4000   16.2920 C.3       6 GLP5        0.0000 
     81 CA        -21.7863   27.0748   17.5708 C.3       3 GLC5        0.0000 
     82 CA        -20.3470   27.6340   18.7750 C.3       9 GLL5        0.0000 
     83 CA        -23.6700   26.8530   16.7760 C.3       6 GLP5        0.0000 
     84 CA        -18.7010   28.9333   19.2118 C.3       3 GLC5        0.0000 
     85 CA        -21.7665   28.4002   20.4093 C.3       3 GLC5        0.0000 
     86 CA        -23.3260   29.1060   21.3650 C.3       6 GLP5        0.0000 
     87 CA        -20.6000   26.9160   21.8335 C.3       3 GLC5        0.0000 
     88 CA        -21.7160   26.3470   23.2640 C.3       6 GLP5        0.0000 
     89 CA        -19.3350   28.6185   21.6975 C.3       3 GLC5        0.0000 
     90 CA        -19.1860   29.7520   22.9920 C.3       6 GLP5        0.0000 
@<TRIPOS>BOND
@<TRIPOS>SUBSTRUCTURE
     1 ALC1       21 GROUP        1 X    ALC  0     ROOT ALC X 1
     2 SEC2       24 GROUP        1 X    SEC  0     **** SEC X 2
     3 GLC5        1 GROUP        1 X    GLC  0     **** GLC X 6
     4 ALP1       23 GROUP        1 Y    ALP  0     ROOT ALP Y 8
     5 SEP2       26 GROUP        1 Y    SEP  0     **** SEP Y 9
     6 GLP5        3 GROUP        1 Y    GLP  0     **** GLP Y 13
     7 ALL1       22 GROUP        1 Z    ALL  0     ROOT ALL Z 15
     8 SEL2       25 GROUP        1 Z    SEL  0     **** SEL Z 16
     9 GLL5        2 GROUP        1 Z    GLL  0     **** GLL Z 20
@<TRIPOS>SET

