#    Name: 4htx_19F_1_ligand
#    Modification time : Tue Mar 25 01:44:41 2014

@<TRIPOS>MOLECULE
4htx_19F_1_ligand
   67    70     1     0     0
SMALL
NO_CHARGES


@<TRIPOS>ATOM
      1 CAB       -13.0200   27.3340   22.1530 C.3       1 19F1003     0.0000 
      2 OAW       -12.8850   28.2860   23.2160 O.3       1 19F1003     0.0000 
      3 CBC       -12.8690   27.7290   24.4620 C.ar      1 19F1003     0.0000 
      4 CAN       -12.9750   26.3600   24.6930 C.ar      1 19F1003     0.0000 
      5 CBB       -12.7370   28.6160   25.5260 C.ar      1 19F1003     0.0000 
      6 OAV       -12.6350   29.9400   25.1970 O.3       1 19F1003     0.0000 
      7 CAA       -12.5040   30.7650   26.3590 C.3       1 19F1003     0.0000 
      8 CAM       -12.7080   28.1410   26.8380 C.ar      1 19F1003     0.0000 
      9 CAL       -12.8110   26.7670   27.0750 C.ar      1 19F1003     0.0000 
     10 CAY       -12.9580   25.8780   26.0010 C.ar      1 19F1003     0.0000 
     11 CAR       -13.0680   24.5100   26.2370 C.3       1 19F1003     0.0000 
     12 CBA       -14.3840   24.0080   26.0690 C.2       1 19F1003     0.0000 
     13 NAU       -15.2560   23.8620   27.1510 N.am      1 19F1003     0.0000 
     14 CBE       -16.5300   23.3390   26.9790 C.2       1 19F1003     0.0000 
     15 OAE       -17.2640   23.2430   27.9630 O.2       1 19F1003     0.0000 
     16 NAT       -14.8270   23.6060   24.8750 N.2       1 19F1003     0.0000 
     17 NBI       -16.0110   23.1260   24.7620 N.pl3     1 19F1003     0.0000 
     18 CBF       -16.9060   22.9700   25.7460 C.2       1 19F1003     0.0000 
     19 CAZ       -18.0080   22.4420   25.1880 C.2       1 19F1003     0.0000 
     20 CAC       -19.3310   22.0540   25.8770 C.3       1 19F1003     0.0000 
     21 NAS       -17.8170   22.2620   23.8800 N.2       1 19F1003     0.0000 
     22 CBD       -16.5930   22.7140   23.6340 C.2       1 19F1003     0.0000 
     23 CBH       -15.9120   22.6760   22.2470 C.3       1 19F1003     0.0000 
     24 CBG       -14.6030   21.8660   22.2630 C.3       1 19F1003     0.0000 
     25 CAD       -14.8790   20.4440   22.7480 C.3       1 19F1003     0.0000 
     26 OAF       -14.0770   21.8350   20.9370 O.3       1 19F1003     0.0000 
     27 CAQ       -15.7350   24.0450   21.5370 C.3       1 19F1003     0.0000 
     28 CAO       -17.0970   24.6660   21.1290 C.3       1 19F1003     0.0000 
     29 CAP       -16.8260   25.9720   20.3600 C.3       1 19F1003     0.0000 
     30 CAX       -18.0110   26.5380   19.8620 C.ar      1 19F1003     0.0000 
     31 CAJ       -18.2980   26.4170   18.5060 C.ar      1 19F1003     0.0000 
     32 CAH       -19.4580   26.9590   17.9560 C.ar      1 19F1003     0.0000 
     33 CAG       -20.3470   27.6340   18.7750 C.ar      1 19F1003     0.0000 
     34 CAI       -20.0670   27.7550   20.1320 C.ar      1 19F1003     0.0000 
     35 CAK       -18.9010   27.2150   20.6740 C.ar      1 19F1003     0.0000 
     36 H         -13.0651   25.7095   23.9061 H         1 19F1003     0.0000 
     37 H         -12.6122   28.7920   27.6207 H         1 19F1003     0.0000 
     38 H         -12.7792   26.4073   28.0350 H         1 19F1003     0.0000 
     39 H         -12.7042   24.2612   27.2753 H         1 19F1003     0.0000 
     40 H         -12.3631   23.9390   25.5666 H         1 19F1003     0.0000 
     41 H         -14.9428   24.1499   28.0948 H         1 19F1003     0.0000 
     42 H         -16.6153   22.0765   21.5757 H         1 19F1003     0.0000 
     43 H         -13.9280   22.3398   22.9467 H         1 19F1003     0.0000 
     44 H         -15.1286   23.9044   20.6445 H         1 19F1003     0.0000 
     45 H         -15.2219   24.7286   22.2104 H         1 19F1003     0.0000 
     46 H         -17.6648   24.8816   22.0158 H         1 19F1003     0.0000 
     47 H         -17.6216   23.9761   20.4932 H         1 19F1003     0.0000 
     48 H         -16.1073   25.7276   19.5550 H         1 19F1003     0.0000 
     49 H         -16.2971   26.6506   21.0557 H         1 19F1003     0.0000 
     50 H         -17.6333   25.9115   17.8890 H         1 19F1003     0.0000 
     51 H         -19.6475   26.8567   16.9544 H         1 19F1003     0.0000 
     52 H         -21.2039   28.0416   18.3879 H         1 19F1003     0.0000 
     53 H         -20.7315   28.2519   20.7489 H         1 19F1003     0.0000 
     54 H         -18.7086   27.3237   21.6789 H         1 19F1003     0.0000 
     55 H         -13.0273   27.7769   21.2565 H         1 19F1003     0.0000 
     56 H         -12.2687   26.6741   22.1478 H         1 19F1003     0.0000 
     57 H         -13.8690   26.8110   22.2284 H         1 19F1003     0.0000 
     58 H         -11.6920   30.5287   26.8927 H         1 19F1003     0.0000 
     59 H         -12.4264   31.7330   26.1204 H         1 19F1003     0.0000 
     60 H         -13.2916   30.6756   26.9686 H         1 19F1003     0.0000 
     61 H         -19.1921   21.3606   26.5840 H         1 19F1003     0.0000 
     62 H         -19.7643   22.8398   26.3183 H         1 19F1003     0.0000 
     63 H         -19.9930   21.6811   25.2268 H         1 19F1003     0.0000 
     64 H         -14.0462   19.8909   22.7699 H         1 19F1003     0.0000 
     65 H         -15.2616   20.4344   23.6718 H         1 19F1003     0.0000 
     66 H         -15.5305   19.9696   22.1560 H         1 19F1003     0.0000 
     67 H         -14.8638   22.0013   20.3426 H         1 19F1003     0.0000 
@<TRIPOS>BOND
     1    2    1 1    
     2   55    1 1    
     3   56    1 1    
     4   57    1 1    
     5    3    2 1    
     6    4    3 ar   
     7    5    3 ar   
     8   10    4 ar   
     9   36    4 1    
    10    6    5 1    
    11    8    5 ar   
    12    7    6 1    
    13   58    7 1    
    14   59    7 1    
    15   60    7 1    
    16    9    8 ar   
    17   37    8 1    
    18   10    9 ar   
    19   38    9 1    
    20   11   10 1    
    21   12   11 1    
    22   39   11 1    
    23   40   11 1    
    24   13   12 1    
    25   16   12 2    
    26   14   13 am   
    27   41   13 1    
    28   15   14 2    
    29   18   14 1    
    30   17   16 1    
    31   18   17 1    
    32   22   17 1    
    33   19   18 2    
    34   20   19 1    
    35   21   19 1    
    36   61   20 1    
    37   62   20 1    
    38   63   20 1    
    39   22   21 2    
    40   23   22 1    
    41   24   23 1    
    42   27   23 1    
    43   42   23 1    
    44   25   24 1    
    45   26   24 1    
    46   43   24 1    
    47   64   25 1    
    48   65   25 1    
    49   66   25 1    
    50   67   26 1    
    51   28   27 1    
    52   44   27 1    
    53   45   27 1    
    54   29   28 1    
    55   46   28 1    
    56   47   28 1    
    57   30   29 1    
    58   48   29 1    
    59   49   29 1    
    60   31   30 ar   
    61   35   30 ar   
    62   32   31 ar   
    63   50   31 1    
    64   33   32 ar   
    65   51   32 1    
    66   34   33 ar   
    67   52   33 1    
    68   35   34 ar   
    69   53   34 1    
    70   54   35 1    
@<TRIPOS>SUBSTRUCTURE
     1 19F1003     1 GROUP   
@<TRIPOS>SET

