#    Name: 1u7h_NAD_1_INTS_M
#    Modification time : Tue Mar 25 06:11:58 2014

@<TRIPOS>MOLECULE
1u7h_NAD_1_INTS_M
  110     0     9     0     0
SMALL
NO_CHARGES


@<TRIPOS>ATOM
      1 N          40.6480   45.4815   15.9865 N.am      2 SEC2        0.0000 
      2 N          40.5390   44.0750   15.5550 N.am      8 SEL2        0.0000 
      3 N          40.7570   46.8880   16.4180 N.am      5 SEP2        0.0000 
      4 N          40.0080   40.8585   15.1810 N.am      2 SEC2        0.0000 
      5 N          40.9300   41.5400   15.7680 N.am      8 SEL2        0.0000 
      6 N          39.0860   40.1770   14.5940 N.am      5 SEP2        0.0000 
      7 N          41.6970   40.5720   15.1650 N.am      2 SEC2        0.0000 
      8 N          42.4640   39.6040   14.5620 N.am      5 SEP2        0.0000 
      9 CA         41.8035   40.6945   18.4380 C.3       3 GLC5        0.0000 
     10 CA         42.6730   42.2720   18.2150 C.3       9 GLL5        0.0000 
     11 CA         40.9340   39.1170   18.6610 C.3       6 GLP5        0.0000 
     12 CA         45.0290   43.4555   19.9190 C.3       3 GLC5        0.0000 
     13 CA         44.1710   42.5270   18.2350 C.3       9 GLL5        0.0000 
     14 CA         45.8870   44.3840   21.6030 C.3       6 GLP5        0.0000 
     15 N          43.6140   40.5130   19.8330 N.am      2 SEC2        0.0000 
     16 N          44.7150   41.6150   19.1670 N.am      8 SEL2        0.0000 
     17 N          42.5130   39.4110   20.4990 N.am      5 SEP2        0.0000 
     18 N          45.8430   42.8725   15.0330 N.am      2 SEC2        0.0000 
     19 N          45.4850   43.4000   16.3420 N.am      8 SEL2        0.0000 
     20 N          46.2010   42.3450   13.7240 N.am      5 SEP2        0.0000 
     21 O          46.3700   43.8645   17.2185 O.2       1 ALC1        0.0000 
     22 O          45.4850   43.4000   16.3420 O.2       7 ALL1        0.0000 
     23 O          47.2550   44.3290   18.0950 O.2       4 ALP1        0.0000 
     24 N          46.6000   41.6715   15.0885 N.am      2 SEC2        0.0000 
     25 N          46.9990   40.9980   16.4530 N.am      8 SEL2        0.0000 
     26 O          47.8780   41.9150   16.9885 O.2       1 ALC1        0.0000 
     27 O          46.9990   40.9980   16.4530 O.2       7 ALL1        0.0000 
     28 O          48.7570   42.8320   17.5240 O.2       4 ALP1        0.0000 
     29 CA         45.9435   42.8355   20.1515 C.3       3 GLC5        0.0000 
     30 CA         46.0000   41.2870   18.7000 C.3       9 GLL5        0.0000 
     31 CA         44.7100   41.0530   20.4740 C.3       3 GLC5        0.0000 
     32 CA         43.4200   40.8190   22.2480 C.3       6 GLP5        0.0000 
     33 CA         46.0565   39.3290   21.8030 C.3       3 GLC5        0.0000 
     34 CA         47.5290   38.6840   20.7880 C.3       9 GLL5        0.0000 
     35 CA         44.5840   39.9740   22.8180 C.3       6 GLP5        0.0000 
     36 CA         47.0615   39.6225   22.6700 C.3       3 GLC5        0.0000 
     37 CA         48.5270   38.3800   21.8250 C.3       9 GLL5        0.0000 
     38 CA         45.5960   40.8650   23.5150 C.3       6 GLP5        0.0000 
     39 CA         47.9955   37.9370   23.5565 C.3       3 GLC5        0.0000 
     40 CA         47.4640   37.4940   25.2880 C.3       6 GLP5        0.0000 
     41 CA         48.7650   41.6935   23.5620 C.3       3 GLC5        0.0000 
     42 CA         49.1030   40.7430   21.8450 C.3       9 GLL5        0.0000 
     43 CA         48.4270   42.6440   25.2790 C.3       6 GLP5        0.0000 
     44 CA         49.7180   42.3025   20.8060 C.3       3 GLC5        0.0000 
     45 CA         50.3330   43.8620   19.7670 C.3       6 GLP5        0.0000 
     46 CA         50.2885   39.7335   20.6405 C.3       3 GLC5        0.0000 
     47 CA         51.4740   38.7240   19.4360 C.3       6 GLP5        0.0000 
     48 CA         47.3495   40.8040   22.6800 C.3       3 GLC5        0.0000 
     49 CA         46.4985   40.4460   21.9375 C.3       3 GLC5        0.0000 
     50 CA         47.4010   40.0270   20.3600 C.3       9 GLL5        0.0000 
     51 N          36.6270   45.3030   18.2965 N.am      2 SEC2        0.0000 
     52 N          37.6090   44.3180   17.5560 N.am      8 SEL2        0.0000 
     53 N          35.6450   46.2880   19.0370 N.am      5 SEP2        0.0000 
     54 N          39.4670   46.3305   18.7265 N.am      2 SEC2        0.0000 
     55 N          39.7970   44.9200   18.7330 N.am      8 SEL2        0.0000 
     56 N          39.1370   47.7410   18.7200 N.am      5 SEP2        0.0000 
     57 CA         38.3840   44.3320   20.5760 C.3       3 GLC5        0.0000 
     58 CA         39.3290   42.4690   20.5060 C.3       9 GLL5        0.0000 
     59 CA         37.4390   46.1950   20.6460 C.3       6 GLP5        0.0000 
     60 CA         40.2640   43.7610   22.0085 C.3       3 GLC5        0.0000 
     61 CA         41.1990   45.0530   23.5110 C.3       6 GLP5        0.0000 
     62 CA         38.9865   41.0445   23.2455 C.3       3 GLC5        0.0000 
     63 CA         38.6730   41.5200   21.4180 C.3       9 GLL5        0.0000 
     64 CA         39.3000   40.5690   25.0730 C.3       6 GLP5        0.0000 
     65 N          37.9335   37.9555   21.8025 N.am      2 SEC2        0.0000 
     66 N          38.4130   39.0580   21.3160 N.am      8 SEL2        0.0000 
     67 N          37.4540   36.8530   22.2890 N.am      5 SEP2        0.0000 
     68 O          38.1900   38.9310   22.7455 O.2       1 ALC1        0.0000 
     69 O          38.4130   39.0580   21.3160 O.2       7 ALL1        0.0000 
     70 O          37.9670   38.8040   24.1750 O.2       4 ALP1        0.0000 
     71 CA         35.4960   41.2285   19.3080 C.3       3 GLC5        0.0000 
     72 CA         36.4950   40.5340   20.8550 C.3       9 GLL5        0.0000 
     73 CA         34.4970   41.9230   17.7610 C.3       6 GLP5        0.0000 
     74 N          36.5725   38.1270   21.5465 N.am      2 SEC2        0.0000 
     75 N          35.6910   39.4010   20.8040 N.am      8 SEL2        0.0000 
     76 O          35.0015   39.1970   21.8955 O.2       1 ALC1        0.0000 
     77 O          35.6910   39.4010   20.8040 O.2       7 ALL1        0.0000 
     78 O          34.3120   38.9930   22.9870 O.2       4 ALP1        0.0000 
     79 CA         37.8675   40.9355   23.6425 C.3       3 GLC5        0.0000 
     80 CA         36.4350   41.3020   22.2120 C.3       9 GLL5        0.0000 
     81 CA         34.3035   40.1655   24.4490 C.3       3 GLC5        0.0000 
     82 CA         34.6560   42.1950   23.7240 C.3       9 GLL5        0.0000 
     83 CA         33.9510   38.1360   25.1740 C.3       6 GLP5        0.0000 
     84 N          31.1755   44.6565   25.1655 N.am      2 SEC2        0.0000 
     85 N          32.2460   43.9280   25.7140 N.am      8 SEL2        0.0000 
     86 N          30.1050   45.3850   24.6170 N.am      5 SEP2        0.0000 
     87 O          35.4465   42.1550   26.2785 O.2       1 ALC1        0.0000 
     88 O          34.0100   42.7430   26.5040 O.2       7 ALL1        0.0000 
     89 O          36.8830   41.5670   26.0530 O.2       4 ALP1        0.0000 
     90 O          33.9235   43.4120   27.8940 O.2       1 ALC1        0.0000 
     91 O          33.8370   44.0810   29.2840 O.2       4 ALP1        0.0000 
     92 CA         34.7265   42.5655   19.6365 C.3       3 GLC5        0.0000 
     93 CA         34.9560   43.2080   21.5120 C.3       9 GLL5        0.0000 
     94 CA         43.2455   44.3997   17.5685 C.3       3 GLC5        0.0000 
     95 CA         43.0690   46.4000   16.9120 C.3       6 GLP5        0.0000 
     96 CA         43.4210   41.6093   20.2365 C.3       3 GLC5        0.0000 
     97 CA         45.1005   42.1863   15.1182 C.3       3 GLC5        0.0000 
     98 CA         44.8510   42.2110   16.8990 C.3       9 GLL5        0.0000 
     99 CA         44.8640   42.7280   13.1900 C.3       6 GLP5        0.0000 
    100 CA         49.5943   39.0018   20.1346 C.3       3 GLC5        0.0000 
    101 CA         39.7200   40.1279   19.7500 C.3       3 GLC5        0.0000 
    102 CA         35.5195   43.6172   24.9090 C.3       3 GLC5        0.0000 
    103 CA         36.8140   44.5590   25.9150 C.3       6 GLP5        0.0000 
    104 CA         32.3193   45.1412   21.3843 C.3       3 GLC5        0.0000 
    105 CA         33.2760   44.1480   23.0480 C.3       9 GLL5        0.0000 
    106 CA         30.8270   46.0220   20.2350 C.3       6 GLP5        0.0000 
    107 CA         34.0980   45.5113   23.9085 C.3       3 GLC5        0.0000 
    108 CA         34.3470   44.3730   22.0190 C.3       9 GLL5        0.0000 
    109 CA         34.2550   47.0100   25.0250 C.3       6 GLP5        0.0000 
    110 CA         36.0453   44.9928   21.2058 C.3       3 GLC5        0.0000 
@<TRIPOS>BOND
@<TRIPOS>SUBSTRUCTURE
     1 ALC1       21 GROUP        1 X    ALC  0     ROOT ALC X 1
     2 SEC2        1 GROUP        1 X    SEC  0     **** SEC X 2
     3 GLC5        9 GROUP        1 X    GLC  0     **** GLC X 6
     4 ALP1       23 GROUP        1 Y    ALP  0     ROOT ALP Y 8
     5 SEP2        3 GROUP        1 Y    SEP  0     **** SEP Y 9
     6 GLP5       11 GROUP        1 Y    GLP  0     **** GLP Y 13
     7 ALL1       22 GROUP        1 Z    ALL  0     ROOT ALL Z 15
     8 SEL2        2 GROUP        1 Z    SEL  0     **** SEL Z 16
     9 GLL5       10 GROUP        1 Z    GLL  0     **** GLL Z 20
@<TRIPOS>SET

