#    Name: 1u7h_NAD_1_ligand
#    Modification time : Tue Mar 25 06:11:59 2014

@<TRIPOS>MOLECULE
1u7h_NAD_1_ligand
   70    74     1     0     0
SMALL
NO_CHARGES


@<TRIPOS>ATOM
      1 PA         40.7910   42.8870   16.4040 P.3       1 NAD802      0.0000 
      2 O1A        40.5390   44.0750   15.5550 O.co2     1 NAD802      0.0000 
      3 O2A        40.9300   41.5400   15.7680 O.co2     1 NAD802      0.0000 
      4 O5B        42.0680   43.2270   17.2760 O.3       1 NAD802      0.0000 
      5 C5B        42.6730   42.2720   18.2150 C.3       1 NAD802      0.0000 
      6 C4B        44.1710   42.5270   18.2350 C.3       1 NAD802      0.0000 
      7 O4B        44.7150   41.6150   19.1670 O.3       1 NAD802      0.0000 
      8 C3B        44.8510   42.2110   16.8990 C.3       1 NAD802      0.0000 
      9 O3B        45.4850   43.4000   16.3420 O.3       1 NAD802      0.0000 
     10 C2B        45.8230   41.0780   17.1940 C.3       1 NAD802      0.0000 
     11 O2B        46.9990   40.9980   16.4530 O.3       1 NAD802      0.0000 
     12 C1B        46.0000   41.2870   18.7000 C.3       1 NAD802      0.0000 
     13 N9A        46.4090   40.0680   19.3790 N.pl3     1 NAD802      0.0000 
     14 C8A        45.9990   38.7380   19.2900 C.2       1 NAD802      0.0000 
     15 N7A        46.6520   37.9310   20.1100 N.2       1 NAD802      0.0000 
     16 C5A        47.5290   38.6840   20.7880 C.ar      1 NAD802      0.0000 
     17 C6A        48.5270   38.3800   21.8250 C.ar      1 NAD802      0.0000 
     18 N6A        48.7220   37.1600   22.2920 N.pl3     1 NAD802      0.0000 
     19 N1A        49.2480   39.4780   22.2730 N.ar      1 NAD802      0.0000 
     20 C2A        49.1030   40.7430   21.8450 C.ar      1 NAD802      0.0000 
     21 N3A        48.1710   41.0880   20.8600 N.ar      1 NAD802      0.0000 
     22 C4A        47.4010   40.0270   20.3600 C.ar      1 NAD802      0.0000 
     23 O3         39.6190   42.7700   17.4640 O.3       1 NAD802      0.0000 
     24 PN         38.8100   43.8950   18.3260 P.3       1 NAD802      0.0000 
     25 O1N        37.6090   44.3180   17.5560 O.co2     1 NAD802      0.0000 
     26 O2N        39.7970   44.9200   18.7330 O.co2     1 NAD802      0.0000 
     27 O5D        38.3360   42.9880   19.5890 O.3       1 NAD802      0.0000 
     28 C5D        39.3290   42.4690   20.5060 C.3       1 NAD802      0.0000 
     29 C4D        38.6730   41.5200   21.4180 C.3       1 NAD802      0.0000 
     30 O4D        37.5500   42.2080   22.1180 O.3       1 NAD802      0.0000 
     31 C3D        38.0110   40.2830   20.7160 C.3       1 NAD802      0.0000 
     32 O3D        38.4130   39.0580   21.3160 O.3       1 NAD802      0.0000 
     33 C2D        36.4950   40.5340   20.8550 C.3       1 NAD802      0.0000 
     34 O2D        35.6910   39.4010   20.8040 O.3       1 NAD802      0.0000 
     35 C1D        36.4350   41.3020   22.2120 C.3       1 NAD802      0.0000 
     36 N1N        35.1260   42.0300   22.3570 N.pl3     1 NAD802      0.0000 
     37 C2N        34.6560   42.1950   23.7240 C.ar      1 NAD802      0.0000 
     38 C3N        33.7940   43.1560   24.0820 C.ar      1 NAD802      0.0000 
     39 C7N        33.3040   43.2980   25.5060 C.2       1 NAD802      0.0000 
     40 O7N        32.2460   43.9280   25.7140 O.2       1 NAD802      0.0000 
     41 N7N        34.0100   42.7430   26.5040 N.am      1 NAD802      0.0000 
     42 C4N        33.2760   44.1480   23.0480 C.ar      1 NAD802      0.0000 
     43 C5N        34.3470   44.3730   22.0190 C.ar      1 NAD802      0.0000 
     44 C6N        34.9560   43.2080   21.5120 C.ar      1 NAD802      0.0000 
     45 H          42.4964   41.2519   17.8948 H         1 NAD802      0.0000 
     46 H          42.2810   42.4138   19.2153 H         1 NAD802      0.0000 
     47 H          44.3676   43.5272   18.5061 H         1 NAD802      0.0000 
     48 H          44.0819   41.8255   16.2391 H         1 NAD802      0.0000 
     49 H          45.2000   40.1514   17.1287 H         1 NAD802      0.0000 
     50 H          46.6838   42.0774   18.8552 H         1 NAD802      0.0000 
     51 H          45.2815   38.4607   18.6589 H         1 NAD802      0.0000 
     52 H          48.1603   36.4387   21.8867 H         1 NAD802      0.0000 
     53 H          49.4136   37.0684   23.0085 H         1 NAD802      0.0000 
     54 H          49.6935   41.5109   22.2454 H         1 NAD802      0.0000 
     55 H          39.7795   43.2821   21.0842 H         1 NAD802      0.0000 
     56 H          40.1279   41.9591   19.9581 H         1 NAD802      0.0000 
     57 H          39.3520   41.1431   22.1594 H         1 NAD802      0.0000 
     58 H          38.2554   40.3552   19.6747 H         1 NAD802      0.0000 
     59 H          36.2536   41.2900   20.0977 H         1 NAD802      0.0000 
     60 H          36.5751   40.5920   22.9826 H         1 NAD802      0.0000 
     61 H          35.0346   41.5115   24.4201 H         1 NAD802      0.0000 
     62 H          33.6633   42.9004   27.4287 H         1 NAD802      0.0000 
     63 H          34.8194   42.2218   26.2335 H         1 NAD802      0.0000 
     64 H          32.4576   44.5312   23.0619 H         1 NAD802      0.0000 
     65 H          34.5729   45.2826   21.7499 H         1 NAD802      0.0000 
     66 H          35.2880   43.1654   20.5502 H         1 NAD802      0.0000 
     67 H          46.1579   43.6793   17.0270 H         1 NAD802      0.0000 
     68 H          47.6226   41.6487   16.8863 H         1 NAD802      0.0000 
     69 H          38.1611   39.1470   22.2797 H         1 NAD802      0.0000 
     70 H          34.9330   39.5935   21.4273 H         1 NAD802      0.0000 
@<TRIPOS>BOND
     1    2    1 ar   
     2    3    1 ar   
     3    4    1 1    
     4   23    1 1    
     5    5    4 1    
     6    6    5 1    
     7   45    5 1    
     8   46    5 1    
     9    7    6 1    
    10    8    6 1    
    11   47    6 1    
    12   12    7 1    
    13    9    8 1    
    14   10    8 1    
    15   48    8 1    
    16   67    9 1    
    17   11   10 1    
    18   12   10 1    
    19   49   10 1    
    20   68   11 1    
    21   13   12 1    
    22   50   12 1    
    23   14   13 1    
    24   22   13 1    
    25   15   14 2    
    26   51   14 1    
    27   16   15 1    
    28   17   16 ar   
    29   22   16 ar   
    30   18   17 1    
    31   19   17 ar   
    32   52   18 1    
    33   53   18 1    
    34   20   19 ar   
    35   21   20 ar   
    36   54   20 1    
    37   22   21 ar   
    38   24   23 1    
    39   25   24 ar   
    40   26   24 ar   
    41   27   24 1    
    42   28   27 1    
    43   29   28 1    
    44   55   28 1    
    45   56   28 1    
    46   30   29 1    
    47   31   29 1    
    48   57   29 1    
    49   35   30 1    
    50   32   31 1    
    51   33   31 1    
    52   58   31 1    
    53   69   32 1    
    54   34   33 1    
    55   35   33 1    
    56   59   33 1    
    57   70   34 1    
    58   36   35 1    
    59   60   35 1    
    60   37   36 ar   
    61   44   36 ar   
    62   38   37 ar   
    63   61   37 1    
    64   39   38 1    
    65   42   38 ar   
    66   40   39 2    
    67   41   39 am   
    68   62   41 1    
    69   63   41 1    
    70   43   42 ar   
    71   64   42 1    
    72   44   43 ar   
    73   65   43 1    
    74   66   44 1    
@<TRIPOS>SUBSTRUCTURE
     1 NAD802      1 GROUP   
@<TRIPOS>SET

