#    Name: 1do0_ATP_1_INTS_M
#    Modification time : Mon Mar 24 22:11:11 2014

@<TRIPOS>MOLECULE
1do0_ATP_1_INTS_M
   63     0    12     0     0
SMALL
NO_CHARGES


@<TRIPOS>ATOM
      1 NZ         52.1330   45.9980   54.7285 N.4       3 LYC4        0.0000 
      2 NZ         50.6700   46.3660   53.4450 N.4      11 LYL4        0.0000 
      3 NZ         53.5960   45.6300   56.0120 N.4       7 LYP4        0.0000 
      4 N          51.3010   50.1855   54.1690 N.am      2 SEC2        0.0000 
      5 N          51.6720   48.7380   53.6600 N.am     10 SEL2        0.0000 
      6 N          50.9300   51.6330   54.6780 N.am      6 SEP2        0.0000 
      7 NZ         49.1965   50.1315   52.2085 N.4       3 LYC4        0.0000 
      8 NZ         49.3360   48.4200   52.7630 N.4      11 LYL4        0.0000 
      9 NZ         49.0570   51.8430   51.6540 N.4       7 LYP4        0.0000 
     10 N          48.7515   47.3510   51.7975 N.am      2 SEC2        0.0000 
     11 N          49.3360   48.4200   52.7630 N.am     10 SEL2        0.0000 
     12 N          48.1670   46.2820   50.8320 N.am      6 SEP2        0.0000 
     13 NZ         52.5425   47.0890   56.4970 N.4       3 LYC4        0.0000 
     14 NZ         51.4890   48.5480   56.9820 N.4      11 LYL4        0.0000 
     15 N          51.8930   49.8525   57.1730 N.am      2 SEC2        0.0000 
     16 N          51.4890   48.5480   56.9820 N.am     10 SEL2        0.0000 
     17 N          52.2970   51.1570   57.3640 N.am      6 SEP2        0.0000 
     18 NZ         52.0980   45.8910   56.3595 N.4       3 LYC4        0.0000 
     19 NZ         50.6000   46.1520   56.7070 N.4      11 LYL4        0.0000 
     20 N          50.3335   45.6050   58.2825 N.am      2 SEC2        0.0000 
     21 N          50.6000   46.1520   56.7070 N.am     10 SEL2        0.0000 
     22 N          50.0670   45.0580   59.8580 N.am      6 SEP2        0.0000 
     23 N          52.0980   45.8910   56.3595 N.am      2 SEC2        0.0000 
     24 N          53.5960   45.6300   56.0120 N.am      6 SEP2        0.0000 
     25 N          49.9445   51.4260   59.0245 N.am      2 SEC2        0.0000 
     26 N          49.2950   50.0140   59.1230 N.am     10 SEL2        0.0000 
     27 N          50.5940   52.8380   58.9260 N.am      6 SEP2        0.0000 
     28 CA         47.3240   46.5320   58.7730 C.3       4 GLC5        0.0000 
     29 CA         46.5600   48.2420   59.0620 C.3      12 GLL5        0.0000 
     30 CA         48.0880   44.8220   58.4840 C.3       8 GLP5        0.0000 
     31 CA         45.2165   47.0080   61.0230 C.3       4 GLC5        0.0000 
     32 CA         45.2360   48.6980   59.6900 C.3      12 GLL5        0.0000 
     33 CA         45.1970   45.3180   62.3560 C.3       8 GLP5        0.0000 
     34 N          42.3200   49.7065   59.8690 N.am      2 SEC2        0.0000 
     35 N          43.5630   50.4220   59.3230 N.am     10 SEL2        0.0000 
     36 N          41.0770   48.9910   60.4150 N.am      6 SEP2        0.0000 
     37 CA         46.9295   52.0800   61.4325 C.3       4 GLC5        0.0000 
     38 CA         45.4090   50.7630   60.8620 C.3      12 GLL5        0.0000 
     39 CA         48.4500   53.3970   62.0030 C.3       8 GLP5        0.0000 
     40 CA         45.1370   47.4835   62.1025 C.3       4 GLC5        0.0000 
     41 CA         45.0770   49.6490   61.8490 C.3      12 GLL5        0.0000 
     42 CA         50.1785   49.7200   65.2250 C.3       4 GLC5        0.0000 
     43 CA         48.6980   48.5230   64.9770 C.3      12 GLL5        0.0000 
     44 CA         51.6590   50.9170   65.4730 C.3       8 GLP5        0.0000 
     45 O          50.4025   48.2855   66.8780 O.2       1 ALC1        0.0000 
     46 O          49.3270   48.7980   66.1170 O.2       9 ALL1        0.0000 
     47 O          51.4780   47.7730   67.6390 O.2       5 ALP1        0.0000 
     48 CA         49.6480   46.1360   62.0830 C.3       4 GLC5        0.0000 
     49 CA         48.5420   47.1940   63.0380 C.3      12 GLL5        0.0000 
     50 CA         50.7540   45.0780   61.1280 C.3       8 GLP5        0.0000 
     51 CA         49.8965   48.0130   62.0925 C.3       4 GLC5        0.0000 
     52 CA         51.2510   48.8320   61.1470 C.3       8 GLP5        0.0000 
     53 CA         48.4580   45.5380   63.6875 C.3       4 GLC5        0.0000 
     54 CA         48.3740   43.8820   64.3370 C.3       8 GLP5        0.0000 
     55 CA         47.4090   46.4955   64.5305 C.3       4 GLC5        0.0000 
     56 CA         46.2760   45.7970   66.0230 C.3       8 GLP5        0.0000 
     57 CA         46.8695   46.2560   62.6970 C.3       4 GLC5        0.0000 
     58 CA         46.1170   47.0705   62.8205 C.3       4 GLC5        0.0000 
     59 CA         47.0370   48.8230   63.2850 C.3      12 GLL5        0.0000 
     60 CA         44.8335   47.1790   58.1730 C.3       4 GLC5        0.0000 
     61 CA         43.7690   45.8880   56.9700 C.3       8 GLP5        0.0000 
     62 CA         46.9309   47.3254   65.0182 C.3       4 GLC5        0.0000 
     63 CA         47.5710   49.2460   64.5070 C.3      12 GLL5        0.0000 
@<TRIPOS>BOND
@<TRIPOS>SUBSTRUCTURE
     1 ALC1       45 GROUP        1 X    ALC  0     ROOT ALC X 1
     2 SEC2        4 GROUP        1 X    SEC  0     **** SEC X 2
     3 LYC4        1 GROUP        1 X    LYC  0     **** LYC X 4
     4 GLC5       28 GROUP        1 X    GLC  0     **** GLC X 6
     5 ALP1       47 GROUP        1 Y    ALP  0     ROOT ALP Y 8
     6 SEP2        6 GROUP        1 Y    SEP  0     **** SEP Y 9
     7 LYP4        3 GROUP        1 Y    LYP  0     **** LYP Y 11
     8 GLP5       30 GROUP        1 Y    GLP  0     **** GLP Y 13
     9 ALL1       46 GROUP        1 Z    ALL  0     ROOT ALL Z 15
    10 SEL2        5 GROUP        1 Z    SEL  0     **** SEL Z 16
    11 LYL4        2 GROUP        1 Z    LYL  0     **** LYL Z 18
    12 GLL5       29 GROUP        1 Z    GLL  0     **** GLL Z 20
@<TRIPOS>SET

