#    Name: 1do0_ATP_1_ligand
#    Modification time : Mon Mar 24 22:11:11 2014

@<TRIPOS>MOLECULE
1do0_ATP_1_ligand
   43    45     1     0     0
SMALL
NO_CHARGES


@<TRIPOS>ATOM
      1 PG         50.4430   47.8620   53.6620 P.3       1 ATP900      0.0000 
      2 O1G        50.6700   46.3660   53.4450 O.co2     1 ATP900      0.0000 
      3 O2G        51.6720   48.7380   53.6600 O.co2     1 ATP900      0.0000 
      4 O3G        49.3360   48.4200   52.7630 O.co2     1 ATP900      0.0000 
      5 PB         50.3920   47.6190   56.6250 P.3       1 ATP900      0.0000 
      6 O1B        51.4890   48.5480   56.9820 O.co2     1 ATP900      0.0000 
      7 O2B        50.6000   46.1520   56.7070 O.co2     1 ATP900      0.0000 
      8 O3B        49.8380   47.9850   55.1650 O.3       1 ATP900      0.0000 
      9 PA         48.6330   49.4880   57.8820 P.3       1 ATP900      0.0000 
     10 O1A        49.2950   50.0140   59.1230 O.co2     1 ATP900      0.0000 
     11 O2A        48.7170   50.2830   56.6120 O.co2     1 ATP900      0.0000 
     12 O3A        49.1990   48.0300   57.5760 O.3       1 ATP900      0.0000 
     13 O5'        47.0680   49.2260   58.1460 O.3       1 ATP900      0.0000 
     14 C5'        46.5600   48.2420   59.0620 C.3       1 ATP900      0.0000 
     15 C4'        45.2360   48.6980   59.6900 C.3       1 ATP900      0.0000 
     16 O4'        45.2820   48.4430   61.1220 O.3       1 ATP900      0.0000 
     17 C3'        44.9530   50.1910   59.5580 C.3       1 ATP900      0.0000 
     18 O3'        43.5630   50.4220   59.3230 O.3       1 ATP900      0.0000 
     19 C2'        45.4090   50.7630   60.8620 C.3       1 ATP900      0.0000 
     20 O2'        44.7830   51.9860   61.1600 O.3       1 ATP900      0.0000 
     21 C1'        45.0770   49.6490   61.8490 C.3       1 ATP900      0.0000 
     22 N9         45.9780   49.6610   63.0340 N.pl3     1 ATP900      0.0000 
     23 C8         45.9290   50.5220   64.1200 C.2       1 ATP900      0.0000 
     24 N7         46.8600   50.3050   65.0170 N.2       1 ATP900      0.0000 
     25 C5         47.5710   49.2460   64.5070 C.ar      1 ATP900      0.0000 
     26 C6         48.6980   48.5230   64.9770 C.ar      1 ATP900      0.0000 
     27 N6         49.3270   48.7980   66.1170 N.pl3     1 ATP900      0.0000 
     28 N1         49.1710   47.4870   64.2080 N.ar      1 ATP900      0.0000 
     29 C2         48.5420   47.1940   63.0380 C.ar      1 ATP900      0.0000 
     30 N3         47.4840   47.8020   62.4960 N.ar      1 ATP900      0.0000 
     31 C4         47.0370   48.8230   63.2850 C.ar      1 ATP900      0.0000 
     32 H          47.2685   48.0508   59.8821 H         1 ATP900      0.0000 
     33 H          46.3758   47.2804   58.5594 H         1 ATP900      0.0000 
     34 H          44.4236   48.1505   59.2541 H         1 ATP900      0.0000 
     35 H          45.5782   50.5691   58.7775 H         1 ATP900      0.0000 
     36 H          46.4897   50.8317   60.8227 H         1 ATP900      0.0000 
     37 H          44.0599   49.7493   62.1440 H         1 ATP900      0.0000 
     38 H          45.2268   51.2361   64.1777 H         1 ATP900      0.0000 
     39 H          49.7950   48.0317   66.5573 H         1 ATP900      0.0000 
     40 H          49.2749   49.7461   66.4306 H         1 ATP900      0.0000 
     41 H          48.9644   46.3499   62.4753 H         1 ATP900      0.0000 
     42 H          43.5270   50.9295   58.4621 H         1 ATP900      0.0000 
     43 H          43.9164   51.9612   60.6617 H         1 ATP900      0.0000 
@<TRIPOS>BOND
     1    2    1 ar   
     2    3    1 ar   
     3    4    1 ar   
     4    8    1 1    
     5    6    5 ar   
     6    7    5 ar   
     7    8    5 1    
     8   12    5 1    
     9   10    9 ar   
    10   11    9 ar   
    11   12    9 1    
    12   13    9 1    
    13   14   13 1    
    14   15   14 1    
    15   32   14 1    
    16   33   14 1    
    17   16   15 1    
    18   17   15 1    
    19   34   15 1    
    20   21   16 1    
    21   18   17 1    
    22   19   17 1    
    23   35   17 1    
    24   42   18 1    
    25   20   19 1    
    26   21   19 1    
    27   36   19 1    
    28   43   20 1    
    29   22   21 1    
    30   37   21 1    
    31   23   22 1    
    32   31   22 1    
    33   24   23 2    
    34   38   23 1    
    35   25   24 1    
    36   26   25 ar   
    37   31   25 ar   
    38   27   26 1    
    39   28   26 ar   
    40   39   27 1    
    41   40   27 1    
    42   29   28 ar   
    43   30   29 ar   
    44   41   29 1    
    45   31   30 ar   
@<TRIPOS>SUBSTRUCTURE
     1 ATP900      1 GROUP   
@<TRIPOS>SET

