#    Name: 3brp_BLA_2_INTS_M
#    Modification time : Mon Mar 24 20:00:32 2014

@<TRIPOS>MOLECULE
3brp_BLA_2_INTS_M
   96     0    12     0     0
SMALL
NO_CHARGES


@<TRIPOS>ATOM
      1 O           7.0985   18.6890   16.2845 O.2       1 ALC1        0.0000 
      2 O           7.3480   17.3760   16.9180 O.2       9 ALL1        0.0000 
      3 O           6.8490   20.0020   15.6510 O.2       5 ALP1        0.0000 
      4 O           7.3470   18.7380   17.3485 O.2       1 ALC1        0.0000 
      5 O           7.3460   20.1000   17.7790 O.2       5 ALP1        0.0000 
      6 CA          5.3365   13.9800   17.8015 C.3       4 GLC5        0.0000 
      7 CA          5.3170   14.2480   15.7930 C.3      12 GLL5        0.0000 
      8 CA          5.3560   13.7120   19.8100 C.3       8 GLP5        0.0000 
      9 NZ          8.5420   16.4240   13.6590 N.4       3 LYC4        0.0000 
     10 NZ          8.9240   15.0960   13.1640 N.4      11 LYL4        0.0000 
     11 NZ          8.1650   18.0820   12.8760 N.4       7 LYP4        0.0000 
     12 N           8.9110   16.2365   12.5830 N.am      2 SEC2        0.0000 
     13 N           8.9240   15.0960   13.1640 N.am     10 SEL2        0.0000 
     14 N           8.8980   17.3770   12.0020 N.am      6 SEP2        0.0000 
     15 N           8.5420   16.4240   13.6590 N.am      2 SEC2        0.0000 
     16 N           8.1600   17.7520   14.1540 N.am      6 SEP2        0.0000 
     17 CA          2.7260   18.8615   13.2995 C.3       4 GLC5        0.0000 
     18 CA          1.8090   17.4890   14.4310 C.3      12 GLL5        0.0000 
     19 CA          3.6430   20.2340   12.1680 C.3       8 GLP5        0.0000 
     20 CA          0.3275   20.0120   16.9885 C.3       4 GLC5        0.0000 
     21 CA          1.9620   18.8050   16.7620 C.3      12 GLL5        0.0000 
     22 CA         -1.3070   21.2190   17.2150 C.3       8 GLP5        0.0000 
     23 O          13.2425   20.3465   20.9385 O.2       1 ALC1        0.0000 
     24 O          12.5720   21.4980   20.3280 O.2       9 ALL1        0.0000 
     25 O          13.9130   19.1950   21.5490 O.2       5 ALP1        0.0000 
     26 CA         11.9080   22.7190   18.3470 C.3       4 GLC5        0.0000 
     27 CA         11.3940   21.8840   19.7900 C.3      12 GLL5        0.0000 
     28 CA         12.4220   23.5540   16.9040 C.3       8 GLP5        0.0000 
     29 CA         11.8215   26.5835   21.9880 C.3       4 GLC5        0.0000 
     30 CA         12.0940   24.8330   22.0860 C.3      12 GLL5        0.0000 
     31 CA         11.5490   28.3340   21.8900 C.3       8 GLP5        0.0000 
     32 CA         13.3395   25.8240   22.8600 C.3       4 GLC5        0.0000 
     33 CA         14.5850   26.8150   23.6340 C.3       8 GLP5        0.0000 
     34 CA         12.0080   24.8590   20.0465 C.3       4 GLC5        0.0000 
     35 CA         11.9220   24.8850   18.0070 C.3       8 GLP5        0.0000 
     36 CA         11.7715   25.0965   23.9695 C.3       4 GLC5        0.0000 
     37 CA         11.4490   25.3600   25.8530 C.3       8 GLP5        0.0000 
     38 CA         10.6715   26.8200   20.8490 C.3       4 GLC5        0.0000 
     39 CA          9.7940   25.3060   19.8080 C.3      12 GLL5        0.0000 
     40 CA          8.8145   26.3205   18.4415 C.3       4 GLC5        0.0000 
     41 CA          7.8350   27.3350   17.0750 C.3       8 GLP5        0.0000 
     42 CA         10.9515   22.0385   17.4535 C.3       4 GLC5        0.0000 
     43 CA         10.6370   21.0560   18.8330 C.3      12 GLL5        0.0000 
     44 CA         11.2660   23.0210   16.0740 C.3       8 GLP5        0.0000 
     45 CA          8.7620   21.6190   17.7645 C.3       4 GLC5        0.0000 
     46 CA          6.8870   22.1820   16.6960 C.3       8 GLP5        0.0000 
     47 CA         15.3735   19.4535   17.3585 C.3       4 GLC5        0.0000 
     48 CA         13.7280   19.5720   18.2460 C.3      12 GLL5        0.0000 
     49 CA         17.0190   19.3350   16.4710 C.3       8 GLP5        0.0000 
     50 CA         12.8865   19.3120   16.2815 C.3       4 GLC5        0.0000 
     51 CA         12.0450   19.0520   14.3170 C.3       8 GLP5        0.0000 
     52 CA         13.0750   21.5630   17.5750 C.3       4 GLC5        0.0000 
     53 CA         15.0075   17.2460   16.9045 C.3       4 GLC5        0.0000 
     54 CA         12.8600   16.6640   17.0330 C.3      12 GLL5        0.0000 
     55 CA         17.1550   17.8280   16.7760 C.3       8 GLP5        0.0000 
     56 CA         12.4525   17.8580   15.6750 C.3       4 GLC5        0.0000 
     57 CA         11.9415   14.6035   19.7930 C.3       4 GLC5        0.0000 
     58 CA         13.0830   15.8150   18.2800 C.3      12 GLL5        0.0000 
     59 CA         10.8000   13.3920   21.3060 C.3       8 GLP5        0.0000 
     60 CA         11.9655   16.5775   19.7555 C.3       4 GLC5        0.0000 
     61 CA         10.8480   17.3400   21.2310 C.3       8 GLP5        0.0000 
     62 CA         13.9235   16.1585   20.0265 C.3       4 GLC5        0.0000 
     63 CA         14.7640   16.5020   21.7730 C.3       8 GLP5        0.0000 
     64 CA         11.0765   18.1375   15.7800 C.3       4 GLC5        0.0000 
     65 CA         10.4850   17.8070   17.4730 C.3      12 GLL5        0.0000 
     66 CA          9.0320   15.1913   18.2585 C.3       4 GLC5        0.0000 
     67 CA          9.7310   16.6390   17.0130 C.3      12 GLL5        0.0000 
     68 CA          9.0560   13.8600   19.5980 C.3       8 GLP5        0.0000 
     69 CA         10.4780   17.2815   19.2370 C.3       4 GLC5        0.0000 
     70 CA          6.2190   14.4455   18.0412 C.3       4 GLC5        0.0000 
     71 CA          7.8100   15.0790   16.3450 C.3      12 GLL5        0.0000 
     72 CA          8.6420   14.1547   17.9230 C.3       4 GLC5        0.0000 
     73 CA          3.6753   17.3848   18.0142 C.3       4 GLC5        0.0000 
     74 CA          4.8760   17.4010   16.6020 C.3      12 GLL5        0.0000 
     75 CA          3.0110   17.4410   19.9410 C.3       8 GLP5        0.0000 
     76 CA          1.6930   19.8843   14.9490 C.3       4 GLC5        0.0000 
     77 CA          1.1680   21.4100   13.6790 C.3       8 GLP5        0.0000 
     78 CA          2.6145   17.8997   18.0800 C.3       4 GLC5        0.0000 
     79 CA          0.7415   19.7235   13.5267 C.3       4 GLC5        0.0000 
     80 CA          0.4260   17.8440   13.9950 C.3      12 GLL5        0.0000 
     81 CA         -1.0345   19.4225   12.9767 C.3       4 GLC5        0.0000 
     82 CA          0.2040   18.2300   12.7540 C.3      12 GLL5        0.0000 
     83 CA         -2.3840   20.8080   12.5790 C.3       8 GLP5        0.0000 
     84 CA         11.6985   24.1515   19.3863 C.3       4 GLC5        0.0000 
     85 CA         10.9500   23.2090   20.2870 C.3      12 GLL5        0.0000 
     86 CA          9.7060   23.0855   21.6538 C.3       4 GLC5        0.0000 
     87 CA          7.9370   22.7530   22.5420 C.3       8 GLP5        0.0000 
     88 CA         10.8443   24.7620   18.9363 C.3       4 GLC5        0.0000 
     89 CA          9.7390   23.9720   19.9230 C.3      12 GLL5        0.0000 
     90 CA          8.8518   23.6960   21.2037 C.3       4 GLC5        0.0000 
     91 CA         10.4558   20.6296   20.8659 C.3       4 GLC5        0.0000 
     92 CA         10.0070   19.4580   22.2960 C.3       8 GLP5        0.0000 
     93 CA         12.0910   18.7477   16.0400 C.3       4 GLC5        0.0000 
     94 CA         12.3200   19.1010   18.0430 C.3      12 GLL5        0.0000 
     95 CA         11.4925   17.8918   19.4970 C.3       4 GLC5        0.0000 
     96 CA         11.9540   17.7860   17.4830 C.3      12 GLL5        0.0000 
@<TRIPOS>BOND
@<TRIPOS>SUBSTRUCTURE
     1 ALC1        1 GROUP        1 X    ALC  0     ROOT ALC X 1
     2 SEC2       12 GROUP        1 X    SEC  0     **** SEC X 2
     3 LYC4        9 GROUP        1 X    LYC  0     **** LYC X 4
     4 GLC5        6 GROUP        1 X    GLC  0     **** GLC X 6
     5 ALP1        3 GROUP        1 Y    ALP  0     ROOT ALP Y 8
     6 SEP2       14 GROUP        1 Y    SEP  0     **** SEP Y 9
     7 LYP4       11 GROUP        1 Y    LYP  0     **** LYP Y 11
     8 GLP5        8 GROUP        1 Y    GLP  0     **** GLP Y 13
     9 ALL1        2 GROUP        1 Z    ALL  0     ROOT ALL Z 15
    10 SEL2       13 GROUP        1 Z    SEL  0     **** SEL Z 16
    11 LYL4       10 GROUP        1 Z    LYL  0     **** LYL Z 18
    12 GLL5        7 GROUP        1 Z    GLL  0     **** GLL Z 20
@<TRIPOS>SET

