#    Name: 3brp_BLA_2_ligand
#    Modification time : Mon Mar 24 20:00:32 2014

@<TRIPOS>MOLECULE
3brp_BLA_2_ligand
   71    74     1     0     0
SMALL
NO_CHARGES


@<TRIPOS>ATOM
      1 CHA         9.7310   16.6390   17.0130 C.2       1 BLA584      0.0000 
      2 NA          7.3480   17.3760   16.9180 N.pl3     1 BLA584      0.0000 
      3 C1A         8.2850   16.4060   16.8250 C.2       1 BLA584      0.0000 
      4 C2A         7.8100   15.0790   16.3450 C.2       1 BLA584      0.0000 
      5 C3A         6.3540   15.2790   16.2000 C.2       1 BLA584      0.0000 
      6 C4A         6.1930   16.7290   16.5650 C.2       1 BLA584      0.0000 
      7 CMA         5.3170   14.2480   15.7930 C.3       1 BLA584      0.0000 
      8 CAA         8.6460   13.8200   16.1510 C.3       1 BLA584      0.0000 
      9 CBA         8.8590   13.3710   14.7200 C.3       1 BLA584      0.0000 
     10 CGA         9.5940   14.4380   13.9730 C.2       1 BLA584      0.0000 
     11 O1A        10.8050   14.6520   14.1850 O.co2     1 BLA584      0.0000 
     12 O2A         8.9240   15.0960   13.1640 O.co2     1 BLA584      0.0000 
     13 CHB         4.8760   17.4010   16.6020 C.2       1 BLA584      0.0000 
     14 NB          3.9580   16.5110   14.4450 N.am      1 BLA584      0.0000 
     15 C1B         3.8030   17.2560   15.5730 C.2       1 BLA584      0.0000 
     16 C2B         2.4740   17.9120   15.6760 C.2       1 BLA584      0.0000 
     17 C3B         1.8090   17.4890   14.4310 C.2       1 BLA584      0.0000 
     18 C4B         2.7990   16.6240   13.7570 C.2       1 BLA584      0.0000 
     19 CMB         1.9620   18.8050   16.7620 C.3       1 BLA584      0.0000 
     20 OB          2.5750   16.0540   12.6090 O.2       1 BLA584      0.0000 
     21 CAB         0.4260   17.8440   13.9950 C.2       1 BLA584      0.0000 
     22 CBB         0.2040   18.2300   12.7540 C.2       1 BLA584      0.0000 
     23 NC         12.5720   21.4980   20.3280 N.am      1 BLA584      0.0000 
     24 C1C        12.9300   22.4880   21.1700 C.2       1 BLA584      0.0000 
     25 C2C        12.0000   23.6270   21.2440 C.2       1 BLA584      0.0000 
     26 C3C        10.9500   23.2090   20.2870 C.2       1 BLA584      0.0000 
     27 C4C        11.3940   21.8840   19.7900 C.2       1 BLA584      0.0000 
     28 CMC        12.0940   24.8330   22.0860 C.3       1 BLA584      0.0000 
     29 OC         14.0150   22.5220   21.8550 O.2       1 BLA584      0.0000 
     30 CAC         9.7390   23.9720   19.9230 C.2       1 BLA584      0.0000 
     31 CBC         9.7940   25.3060   19.8080 C.2       1 BLA584      0.0000 
     32 CHD        10.6370   21.0560   18.8330 C.2       1 BLA584      0.0000 
     33 ND          9.9380   18.9450   17.9610 N.2       1 BLA584      0.0000 
     34 C1D        11.0010   19.7360   18.2960 C.2       1 BLA584      0.0000 
     35 C2D        12.3200   19.1010   18.0430 C.2       1 BLA584      0.0000 
     36 C3D        11.9540   17.7860   17.4830 C.2       1 BLA584      0.0000 
     37 C4D        10.4850   17.8070   17.4730 C.2       1 BLA584      0.0000 
     38 CMD        13.7280   19.5720   18.2460 C.3       1 BLA584      0.0000 
     39 CAD        12.8600   16.6640   17.0330 C.3       1 BLA584      0.0000 
     40 CBD        13.0830   15.8150   18.2800 C.3       1 BLA584      0.0000 
     41 CGD        13.9230   14.6130   17.9860 C.2       1 BLA584      0.0000 
     42 O1D        14.6510   14.6190   16.9750 O.co2     1 BLA584      0.0000 
     43 O2D        13.8490   13.6620   18.7950 O.co2     1 BLA584      0.0000 
     44 H          10.3519   15.7749   16.7602 H         1 BLA584      0.0000 
     45 H           7.4501   18.2659   17.1606 H         1 BLA584      0.0000 
     46 H           8.1719   12.9889   16.7225 H         1 BLA584      0.0000 
     47 H           9.6396   13.9776   16.6307 H         1 BLA584      0.0000 
     48 H           7.8935   13.1893   14.2546 H         1 BLA584      0.0000 
     49 H           9.4362   12.4498   14.7162 H         1 BLA584      0.0000 
     50 H           4.6757   18.0249   17.4055 H         1 BLA584      0.0000 
     51 H           4.7265   16.0140   14.1957 H         1 BLA584      0.0000 
     52 H          -0.2978   17.7625   14.7182 H         1 BLA584      0.0000 
     53 H          13.0466   20.6967   20.1490 H         1 BLA584      0.0000 
     54 H           8.8857   23.4250   19.7707 H         1 BLA584      0.0000 
     55 H           9.7192   21.4627   18.4914 H         1 BLA584      0.0000 
     56 H          13.7932   17.0576   16.6975 H         1 BLA584      0.0000 
     57 H          12.3753   16.0784   16.2843 H         1 BLA584      0.0000 
     58 H          12.1082   15.5022   18.6717 H         1 BLA584      0.0000 
     59 H          13.5697   16.4325   19.0438 H         1 BLA584      0.0000 
     60 H           5.5001   13.8764   14.8828 H         1 BLA584      0.0000 
     61 H           5.2940   13.4744   16.4263 H         1 BLA584      0.0000 
     62 H           4.3958   14.6364   15.7712 H         1 BLA584      0.0000 
     63 H           1.9567   18.3447   17.6497 H         1 BLA584      0.0000 
     64 H           2.5222   19.6273   16.8616 H         1 BLA584      0.0000 
     65 H           1.0259   19.1079   16.5833 H         1 BLA584      0.0000 
     66 H          12.9267   25.3536   21.8975 H         1 BLA584      0.0000 
     67 H          11.3220   25.4509   21.9372 H         1 BLA584      0.0000 
     68 H          12.1043   24.6061   23.0599 H         1 BLA584      0.0000 
     69 H          14.3947   18.8801   17.9688 H         1 BLA584      0.0000 
     70 H          13.9238   20.3968   17.7156 H         1 BLA584      0.0000 
     71 H          13.9124   19.7893   19.2045 H         1 BLA584      0.0000 
@<TRIPOS>BOND
     1    3    1 1    
     2   37    1 2    
     3   44    1 1    
     4    3    2 1    
     5    6    2 1    
     6   45    2 1    
     7    4    3 2    
     8    5    4 1    
     9    8    4 1    
    10    6    5 2    
    11    7    5 1    
    12   13    6 1    
    13   60    7 1    
    14   61    7 1    
    15   62    7 1    
    16    9    8 1    
    17   46    8 1    
    18   47    8 1    
    19   10    9 1    
    20   48    9 1    
    21   49    9 1    
    22   11   10 ar   
    23   12   10 ar   
    24   15   13 2    
    25   50   13 1    
    26   15   14 1    
    27   18   14 am   
    28   51   14 1    
    29   16   15 1    
    30   17   16 2    
    31   19   16 1    
    32   18   17 1    
    33   21   17 1    
    34   20   18 2    
    35   63   19 1    
    36   64   19 1    
    37   65   19 1    
    38   22   21 2    
    39   52   21 1    
    40   24   23 am   
    41   27   23 1    
    42   53   23 1    
    43   25   24 1    
    44   29   24 2    
    45   26   25 2    
    46   28   25 1    
    47   27   26 1    
    48   30   26 1    
    49   32   27 2    
    50   66   28 1    
    51   67   28 1    
    52   68   28 1    
    53   31   30 2    
    54   54   30 1    
    55   34   32 1    
    56   55   32 1    
    57   34   33 2    
    58   37   33 1    
    59   35   34 1    
    60   36   35 2    
    61   38   35 1    
    62   37   36 1    
    63   39   36 1    
    64   69   38 1    
    65   70   38 1    
    66   71   38 1    
    67   40   39 1    
    68   56   39 1    
    69   57   39 1    
    70   41   40 1    
    71   58   40 1    
    72   59   40 1    
    73   42   41 ar   
    74   43   41 ar   
@<TRIPOS>SUBSTRUCTURE
     1 BLA584      1 GROUP   
@<TRIPOS>SET

