#    Name: 4b4w_9L9_1_INTS_M
#    Modification time : Tue Mar 25 06:41:43 2014

@<TRIPOS>MOLECULE
4b4w_9L9_1_INTS_M
   52     0     9     0     0
SMALL
NO_CHARGES


@<TRIPOS>ATOM
      1 O          18.3665   -5.2195   31.3855 O.2       1 ALC1        0.0000 
      2 O          17.2200   -4.5350   30.9650 O.2       7 ALL1        0.0000 
      3 O          19.5130   -5.9040   31.8060 O.2       4 ALP1        0.0000 
      4 O          17.1170   -3.1295   31.0385 O.2       1 ALC1        0.0000 
      5 O          17.0140   -1.7240   31.1120 O.2       4 ALP1        0.0000 
      6 N          16.7295   -7.0190   29.9430 N.am      2 SEC2        0.0000 
      7 N          15.8900   -5.8340   29.5460 N.am      8 SEL2        0.0000 
      8 N          17.5690   -8.2040   30.3400 N.am      5 SEP2        0.0000 
      9 O          16.4165   -2.6150   30.2705 O.2       1 ALC1        0.0000 
     10 O          15.8190   -3.5060   29.4290 O.2       7 ALL1        0.0000 
     11 N          15.8405   -2.8435   27.0045 N.am      2 SEC2        0.0000 
     12 N          14.4480   -2.4020   27.9190 N.am      8 SEL2        0.0000 
     13 N          17.2330   -3.2850   26.0900 N.am      5 SEP2        0.0000 
     14 CA         15.2740   -7.2085   30.1420 C.3       3 GLC5        0.0000 
     15 CA         14.9700   -5.9520   28.5710 C.3       9 GLL5        0.0000 
     16 CA         15.5780   -8.4650   31.7130 C.3       6 GLP5        0.0000 
     17 O          15.2070   -8.3275   28.4380 O.2       1 ALC1        0.0000 
     18 O          14.5650   -7.1510   28.1680 O.2       7 ALL1        0.0000 
     19 O          15.8490   -9.5040   28.7080 O.2       4 ALP1        0.0000 
     20 N          16.1015   -3.8665   25.6960 N.am      2 SEC2        0.0000 
     21 N          14.9700   -4.4480   25.3020 N.am      8 SEL2        0.0000 
     22 N          15.9355   -5.6675   25.7230 N.am      2 SEC2        0.0000 
     23 N          16.9010   -6.8870   26.1440 N.am      5 SEP2        0.0000 
     24 CA         15.2420   -4.8610   22.7460 C.3       3 GLC5        0.0000 
     25 CA         13.5750   -3.4400   23.0060 C.3       9 GLL5        0.0000 
     26 CA         16.9090   -6.2820   22.4860 C.3       6 GLP5        0.0000 
     27 CA         15.5625   -3.0125   23.9085 C.3       3 GLC5        0.0000 
     28 CA         17.5500   -2.5850   24.8110 C.3       6 GLP5        0.0000 
     29 CA         14.7305   -1.4710   21.5455 C.3       3 GLC5        0.0000 
     30 CA         13.4230   -3.0410   21.6780 C.3       9 GLL5        0.0000 
     31 CA         16.0380    0.0990   21.4130 C.3       6 GLP5        0.0000 
     32 CA          9.5840   -6.3350   16.3135 C.3       3 GLC5        0.0000 
     33 CA         10.7170   -4.6620   16.4920 C.3       9 GLL5        0.0000 
     34 CA          8.4510   -8.0080   16.1350 C.3       6 GLP5        0.0000 
     35 CA          9.0095   -4.0345   15.5945 C.3       3 GLC5        0.0000 
     36 CA          7.3020   -3.4070   14.6970 C.3       6 GLP5        0.0000 
     37 CA         13.6975   -3.9550   16.5210 C.3       3 GLC5        0.0000 
     38 CA         11.9800   -5.2140   15.8310 C.3       9 GLL5        0.0000 
     39 CA         15.4150   -2.6960   17.2110 C.3       6 GLP5        0.0000 
     40 N           8.3650   -1.1505   16.1045 N.am      2 SEC2        0.0000 
     41 N           9.6500   -1.6720   16.4470 N.am      8 SEL2        0.0000 
     42 N           7.0800   -0.6290   15.7620 N.am      5 SEP2        0.0000 
     43 CA         13.2255   -3.0515   17.2625 C.3       3 GLC5        0.0000 
     44 CA         11.0360   -3.4070   17.3140 C.3       9 GLL5        0.0000 
     45 CA         13.8570   -5.4735   30.2055 C.3       3 GLC5        0.0000 
     46 CA         14.4640   -4.8080   27.9710 C.3       9 GLL5        0.0000 
     47 CA         12.9970   -5.5670   32.1400 C.3       6 GLP5        0.0000 
     48 CA         13.2045   -2.1892   24.4587 C.3       3 GLC5        0.0000 
     49 CA         12.6810   -4.3430   23.5930 C.3       9 GLL5        0.0000 
     50 CA         13.2810   -0.4870   25.6180 C.3       6 GLP5        0.0000 
     51 CA         11.0921   -2.2125   21.1460 C.3       3 GLC5        0.0000 
     52 CA         10.0280   -0.5980   20.8800 C.3       6 GLP5        0.0000 
@<TRIPOS>BOND
@<TRIPOS>SUBSTRUCTURE
     1 ALC1        1 GROUP        1 X    ALC  0     ROOT ALC X 1
     2 SEC2        6 GROUP        1 X    SEC  0     **** SEC X 2
     3 GLC5       14 GROUP        1 X    GLC  0     **** GLC X 6
     4 ALP1        3 GROUP        1 Y    ALP  0     ROOT ALP Y 8
     5 SEP2        8 GROUP        1 Y    SEP  0     **** SEP Y 9
     6 GLP5       16 GROUP        1 Y    GLP  0     **** GLP Y 13
     7 ALL1        2 GROUP        1 Z    ALL  0     ROOT ALL Z 15
     8 SEL2        7 GROUP        1 Z    SEL  0     **** SEL Z 16
     9 GLL5       15 GROUP        1 Z    GLL  0     **** GLL Z 20
@<TRIPOS>SET

