#    Name: 4b4w_9L9_1_ligand
#    Modification time : Tue Mar 25 06:41:43 2014

@<TRIPOS>MOLECULE
4b4w_9L9_1_ligand
   48    49     1     0     0
SMALL
NO_CHARGES


@<TRIPOS>ATOM
      1 N2A        17.2200   -4.5350   30.9650 N.pl3     1 9L92001     0.0000 
      2 N1         15.8900   -5.8340   29.5460 N.2       1 9L92001     0.0000 
      3 C2         16.3120   -4.6280   29.9830 C.2       1 9L92001     0.0000 
      4 N3         15.8190   -3.5060   29.4290 N.am      1 9L92001     0.0000 
      5 C4         14.9100   -3.5650   28.4450 C.2       1 9L92001     0.0000 
      6 O4A        14.4480   -2.4020   27.9190 O.2       1 9L92001     0.0000 
      7 N5A        13.5380   -4.8400   27.0040 N.am      1 9L92001     0.0000 
      8 C5         14.4640   -4.8080   27.9710 C.2       1 9L92001     0.0000 
      9 C6         14.9700   -5.9520   28.5710 C.2       1 9L92001     0.0000 
     10 N7         14.5650   -7.1510   28.1680 N.pl3     1 9L92001     0.0000 
     11 O8A        14.9700   -4.4480   25.3020 O.2       1 9L92001     0.0000 
     12 N9         12.7530   -4.6780   24.8900 N.am      1 9L92001     0.0000 
     13 C1B        12.6810   -4.3430   23.5930 C.ar      1 9L92001     0.0000 
     14 C2B        13.5750   -3.4400   23.0060 C.ar      1 9L92001     0.0000 
     15 C3B        13.4230   -3.0410   21.6780 C.ar      1 9L92001     0.0000 
     16 C4B        12.3520   -3.5170   20.9240 C.ar      1 9L92001     0.0000 
     17 C5B        11.4250   -4.3750   21.5230 C.ar      1 9L92001     0.0000 
     18 C6B        11.5810   -4.7720   22.8530 C.ar      1 9L92001     0.0000 
     19 C7B        12.1720   -3.0400   19.4740 C.2       1 9L92001     0.0000 
     20 O7B        12.6360   -1.9540   19.1250 O.2       1 9L92001     0.0000 
     21 N          11.3850   -3.7900   18.7000 N.am      1 9L92001     0.0000 
     22 CB         10.7170   -4.6620   16.4920 C.3       1 9L92001     0.0000 
     23 CG         11.9800   -5.2140   15.8310 C.3       1 9L92001     0.0000 
     24 CD         12.2510   -6.6570   16.2630 C.2       1 9L92001     0.0000 
     25 OE1        12.8260   -7.3960   15.4270 O.co2     1 9L92001     0.0000 
     26 OE2        11.8930   -6.9920   17.4220 O.co2     1 9L92001     0.0000 
     27 C           9.7760   -2.5220   17.3540 C.2       1 9L92001     0.0000 
     28 O           8.9440   -2.7140   18.2790 O.co2     1 9L92001     0.0000 
     29 OXT         9.6500   -1.6720   16.4470 O.co2     1 9L92001     0.0000 
     30 CA         11.0360   -3.4070   17.3140 C.3       1 9L92001     0.0000 
     31 CAW        13.8200   -4.6180   25.7070 C.2       1 9L92001     0.0000 
     32 H          17.1877   -3.7015   31.5167 H         1 9L92001     0.0000 
     33 H          17.8483   -5.3074   31.0579 H         1 9L92001     0.0000 
     34 H          16.1519   -2.5710   29.7733 H         1 9L92001     0.0000 
     35 H          12.5282   -5.0513   27.2718 H         1 9L92001     0.0000 
     36 H          15.2167   -7.8996   28.2902 H         1 9L92001     0.0000 
     37 H          13.6450   -7.1969   27.7788 H         1 9L92001     0.0000 
     38 H          11.8217   -5.0491   25.3446 H         1 9L92001     0.0000 
     39 H          14.3576   -3.0650   23.5658 H         1 9L92001     0.0000 
     40 H          14.1018   -2.3954   21.2558 H         1 9L92001     0.0000 
     41 H          10.6204   -4.7170   20.9785 H         1 9L92001     0.0000 
     42 H          10.8778   -5.3857   23.2881 H         1 9L92001     0.0000 
     43 H          10.9709   -4.6888   19.0274 H         1 9L92001     0.0000 
     44 H          10.2930   -5.4195   17.1477 H         1 9L92001     0.0000 
     45 H           9.9892   -4.4096   15.7238 H         1 9L92001     0.0000 
     46 H          12.8318   -4.5915   16.1080 H         1 9L92001     0.0000 
     47 H          11.8619   -5.1811   14.7471 H         1 9L92001     0.0000 
     48 H          11.8195   -2.8701   16.8519 H         1 9L92001     0.0000 
@<TRIPOS>BOND
     1    3    1 1    
     2   32    1 1    
     3   33    1 1    
     4    3    2 2    
     5    9    2 1    
     6    4    3 1    
     7    5    4 am   
     8   34    4 1    
     9    6    5 2    
    10    8    5 1    
    11    8    7 1    
    12   31    7 am   
    13   35    7 1    
    14    9    8 2    
    15   10    9 1    
    16   36   10 1    
    17   37   10 1    
    18   31   11 2    
    19   13   12 1    
    20   31   12 am   
    21   38   12 1    
    22   14   13 ar   
    23   18   13 ar   
    24   15   14 ar   
    25   39   14 1    
    26   16   15 ar   
    27   40   15 1    
    28   17   16 ar   
    29   19   16 1    
    30   18   17 ar   
    31   41   17 1    
    32   42   18 1    
    33   20   19 2    
    34   21   19 am   
    35   30   21 1    
    36   43   21 1    
    37   23   22 1    
    38   30   22 1    
    39   44   22 1    
    40   45   22 1    
    41   24   23 1    
    42   46   23 1    
    43   47   23 1    
    44   25   24 ar   
    45   26   24 ar   
    46   28   27 ar   
    47   29   27 ar   
    48   30   27 1    
    49   48   30 1    
@<TRIPOS>SUBSTRUCTURE
     1 9L92001     1 GROUP   
@<TRIPOS>SET

