#    Name: 4e47_0N6_6_INTS_M
#    Modification time : Tue Mar 25 10:35:03 2014

@<TRIPOS>MOLECULE
4e47_0N6_6_INTS_M
   71     0    12     0     0
SMALL
NO_CHARGES


@<TRIPOS>ATOM
      1 CA        -31.8530   17.0215   69.0110 C.3       4 GLC5        0.0000 
      2 CA        -32.7040   16.1620   67.3810 C.3      12 GLL5        0.0000 
      3 CA        -31.0020   17.8810   70.6410 C.3       8 GLP5        0.0000 
      4 OD1       -32.6725   12.9155   65.8660 O.co2     3 ASC3        0.0000 
      5 OD1       -33.2490   14.2410   65.8980 O.co2    11 ASL3        0.0000 
      6 OD1       -32.0960   11.5900   65.8340 O.co2     7 ASP3        0.0000 
      7 OD1       -33.6935   12.6255   66.1640 O.co2     3 ASC3        0.0000 
      8 OD1       -34.1380   11.0100   66.4300 O.co2     7 ASP3        0.0000 
      9 CA        -34.3750   14.7865   64.4205 C.3       4 GLC5        0.0000 
     10 CA        -32.3100   14.5960   64.8240 C.3      12 GLL5        0.0000 
     11 CA        -36.4400   14.9770   64.0170 C.3       8 GLP5        0.0000 
     12 CA        -31.2880   13.7220   63.4290 C.3       4 GLC5        0.0000 
     13 CA        -30.2660   12.8480   62.0340 C.3       8 GLP5        0.0000 
     14 CA        -33.3530   15.4060   63.0595 C.3       4 GLC5        0.0000 
     15 CA        -34.3960   16.2160   61.2950 C.3       8 GLP5        0.0000 
     16 CA        -30.6870   14.7215   62.9720 C.3       4 GLC5        0.0000 
     17 CA        -31.1080   16.5950   63.9100 C.3      12 GLL5        0.0000 
     18 CA        -32.7520   16.4055   62.6025 C.3       4 GLC5        0.0000 
     19 N         -31.2900   20.6600   62.9340 N.am      2 SEC2        0.0000 
     20 N         -30.2790   20.9190   63.9690 N.am     10 SEL2        0.0000 
     21 N         -32.3010   20.4010   61.8990 N.am      6 SEP2        0.0000 
     22 N         -30.5990   20.2655   67.9120 N.am      2 SEC2        0.0000 
     23 N         -30.6760   20.9180   66.4280 N.am     10 SEL2        0.0000 
     24 N         -30.5220   19.6130   69.3960 N.am      6 SEP2        0.0000 
     25 O         -27.9350   19.9705   66.8460 O.2       1 ALC1        0.0000 
     26 O         -28.4070   20.1350   65.6050 O.2       9 ALL1        0.0000 
     27 O         -27.4630   19.8060   68.0870 O.2       5 ALP1        0.0000 
     28 N         -26.5620   22.3890   66.1020 N.am      2 SEC2        0.0000 
     29 N         -26.8530   22.1280   64.7800 N.am     10 SEL2        0.0000 
     30 N         -26.2710   22.6500   67.4240 N.am      6 SEP2        0.0000 
     31 CA        -27.5460   22.9855   61.9735 C.3       4 GLC5        0.0000 
     32 CA        -25.5600   22.4530   62.3370 C.3      12 GLL5        0.0000 
     33 CA        -29.5320   23.5180   61.6100 C.3       8 GLP5        0.0000 
     34 CA        -26.2595   24.2250   62.4695 C.3       4 GLC5        0.0000 
     35 CA        -26.9590   25.9970   62.6020 C.3       8 GLP5        0.0000 
     36 CA        -24.2225   22.6705   63.4375 C.3       4 GLC5        0.0000 
     37 CA        -22.8850   22.8880   64.5380 C.3       8 GLP5        0.0000 
     38 CA        -26.1730   23.0645   59.1155 C.3       4 GLC5        0.0000 
     39 CA        -25.2750   22.1690   60.8460 C.3      12 GLL5        0.0000 
     40 CA        -27.0710   23.9600   57.3850 C.3       8 GLP5        0.0000 
     41 CA        -25.8380   24.1450   61.0910 C.3       4 GLC5        0.0000 
     42 CA        -26.4010   26.1210   61.3360 C.3       8 GLP5        0.0000 
     43 CA        -23.4880   22.6845   61.4235 C.3       4 GLC5        0.0000 
     44 CA        -21.7010   23.2000   62.0010 C.3       8 GLP5        0.0000 
     45 CA        -26.7665   21.7985   58.7410 C.3       4 GLC5        0.0000 
     46 CA        -26.0710   20.9070   60.4980 C.3      12 GLL5        0.0000 
     47 CA        -27.4620   22.6900   56.9840 C.3       8 GLP5        0.0000 
     48 CA        -25.7275   19.6665   58.9975 C.3       4 GLC5        0.0000 
     49 CA        -25.3840   18.4260   57.4970 C.3       8 GLP5        0.0000 
     50 CA        -28.0675   21.4105   60.1120 C.3       4 GLC5        0.0000 
     51 CA        -30.0640   21.9140   59.7260 C.3       8 GLP5        0.0000 
     52 CA        -28.2770   20.3510   61.1160 C.3       4 GLC5        0.0000 
     53 CA        -26.1580   20.1420   61.8320 C.3      12 GLL5        0.0000 
     54 CA        -30.3960   20.5600   60.4000 C.3       8 GLP5        0.0000 
     55 CA        -25.2205   18.0255   65.7440 C.3       4 GLC5        0.0000 
     56 CA        -26.4340   18.8870   64.8890 C.3      12 GLL5        0.0000 
     57 CA        -24.0070   17.1640   66.5990 C.3       8 GLP5        0.0000 
     58 CA        -26.7910   14.1720   62.6325 C.3       4 GLC5        0.0000 
     59 CA        -27.5210   15.3440   63.9940 C.3      12 GLL5        0.0000 
     60 CA        -26.0610   13.0000   61.2710 C.3       8 GLP5        0.0000 
     61 CA        -27.0375   14.6115   67.3095 C.3       4 GLC5        0.0000 
     62 CA        -28.8760   15.4530   67.4710 C.3      12 GLL5        0.0000 
     63 CA        -25.1990   13.7700   67.1480 C.3       8 GLP5        0.0000 
     64 CA        -29.4725   16.9175   68.6350 C.3       4 GLC5        0.0000 
     65 CA        -30.0690   18.3820   69.7990 C.3       8 GLP5        0.0000 
     66 CA        -30.8672   17.8867   68.0153 C.3       4 GLC5        0.0000 
     67 CA        -31.3940   18.0370   66.2810 C.3      12 GLL5        0.0000 
     68 CA        -32.3128   19.1466   64.3424 C.3       4 GLC5        0.0000 
     69 CA        -33.8270   20.2040   63.8060 C.3       8 GLP5        0.0000 
     70 CA        -29.0472   13.9958   63.3100 C.3       4 GLC5        0.0000 
     71 CA        -28.1360   14.9430   65.1780 C.3      12 GLL5        0.0000 
@<TRIPOS>BOND
@<TRIPOS>SUBSTRUCTURE
     1 ALC1       25 GROUP        1 X    ALC  0     ROOT ALC X 1
     2 SEC2       19 GROUP        1 X    SEC  0     **** SEC X 2
     3 ASC3        4 GROUP        1 X    ASC  0     **** ASC X 3
     4 GLC5        1 GROUP        1 X    GLC  0     **** GLC X 6
     5 ALP1       27 GROUP        1 Y    ALP  0     ROOT ALP Y 8
     6 SEP2       21 GROUP        1 Y    SEP  0     **** SEP Y 9
     7 ASP3        6 GROUP        1 Y    ASP  0     **** ASP Y 10
     8 GLP5        3 GROUP        1 Y    GLP  0     **** GLP Y 13
     9 ALL1       26 GROUP        1 Z    ALL  0     ROOT ALL Z 15
    10 SEL2       20 GROUP        1 Z    SEL  0     **** SEL Z 16
    11 ASL3        5 GROUP        1 Z    ASL  0     **** ASL Z 17
    12 GLL5        2 GROUP        1 Z    GLL  0     **** GLL Z 20
@<TRIPOS>SET

