#    Name: 4e47_0N6_6_ligand
#    Modification time : Tue Mar 25 10:35:03 2014

@<TRIPOS>MOLECULE
4e47_0N6_6_ligand
   56    59     1     0     0
SMALL
NO_CHARGES


@<TRIPOS>ATOM
      1 C9        -31.3940   18.0370   66.2810 C.ar      1 0N6801      0.0000 
      2 C5        -31.9370   16.7460   66.1820 C.ar      1 0N6801      0.0000 
      3 C3        -32.7040   16.1620   67.3810 C.3       1 0N6801      0.0000 
      4 C2        -32.8090   14.6240   67.2620 C.3       1 0N6801      0.0000 
      5 N1        -33.2490   14.2410   65.8980 N.4       1 0N6801      0.0000 
      6 C1        -32.3100   14.5960   64.8240 C.3       1 0N6801      0.0000 
      7 C4        -31.7680   16.0170   65.0040 C.ar      1 0N6801      0.0000 
      8 C6        -31.1080   16.5950   63.9100 C.ar      1 0N6801      0.0000 
      9 C7        -30.5490   17.8650   64.0180 C.ar      1 0N6801      0.0000 
     10 C8        -30.7020   18.5900   65.1980 C.ar      1 0N6801      0.0000 
     11 S1        -30.0480   20.2060   65.2880 S.o2      1 0N6801      0.0000 
     12 O1        -30.2790   20.9190   63.9690 O.2       1 0N6801      0.0000 
     13 O3        -30.6760   20.9180   66.4280 O.2       1 0N6801      0.0000 
     14 N2        -28.4070   20.1350   65.6050 N.pl3     1 0N6801      0.0000 
     15 C10       -27.5370   19.8690   64.4390 C.3       1 0N6801      0.0000 
     16 C12       -26.8560   21.1620   64.0150 C.2       1 0N6801      0.0000 
     17 O2        -26.8530   22.1280   64.7800 O.2       1 0N6801      0.0000 
     18 N3        -26.2300   21.2350   62.8340 N.am      1 0N6801      0.0000 
     19 C13       -25.5600   22.4530   62.3370 C.3       1 0N6801      0.0000 
     20 C14       -25.2750   22.1690   60.8460 C.3       1 0N6801      0.0000 
     21 C15       -26.0710   20.9070   60.4980 C.3       1 0N6801      0.0000 
     22 C16       -26.1580   20.1420   61.8320 C.3       1 0N6801      0.0000 
     23 C11       -26.4340   18.8870   64.8890 C.3       1 0N6801      0.0000 
     24 C17       -27.0360   17.4980   64.9800 C.ar      1 0N6801      0.0000 
     25 C22       -27.6760   17.1100   66.1570 C.ar      1 0N6801      0.0000 
     26 C18       -26.9820   16.6290   63.8900 C.ar      1 0N6801      0.0000 
     27 C19       -27.5210   15.3440   63.9940 C.ar      1 0N6801      0.0000 
     28 C20       -28.1360   14.9430   65.1780 C.ar      1 0N6801      0.0000 
     29 C21       -28.2260   15.8360   66.2550 C.ar      1 0N6801      0.0000 
     30 C23       -28.8760   15.4530   67.4710 C.1       1 0N6801      0.0000 
     31 N4        -29.3880   15.1510   68.4410 N.1       1 0N6801      0.0000 
     32 H         -31.5057   18.5725   67.1474 H         1 0N6801      0.0000 
     33 H         -33.7029   16.5834   67.4077 H         1 0N6801      0.0000 
     34 H         -32.1803   16.4106   68.2976 H         1 0N6801      0.0000 
     35 H         -33.5214   14.2734   68.0086 H         1 0N6801      0.0000 
     36 H         -31.8305   14.1986   67.4842 H         1 0N6801      0.0000 
     37 H         -32.8024   14.5387   63.8451 H         1 0N6801      0.0000 
     38 H         -31.4586   13.9039   64.8101 H         1 0N6801      0.0000 
     39 H         -31.0392   16.0744   63.0259 H         1 0N6801      0.0000 
     40 H         -30.0260   18.2666   63.2320 H         1 0N6801      0.0000 
     41 H         -28.1459   20.2675   66.4956 H         1 0N6801      0.0000 
     42 H         -28.0667   19.4536   63.6397 H         1 0N6801      0.0000 
     43 H         -24.6286   22.6150   62.8359 H         1 0N6801      0.0000 
     44 H         -26.2027   23.3045   62.4037 H         1 0N6801      0.0000 
     45 H         -24.2326   21.9869   60.7143 H         1 0N6801      0.0000 
     46 H         -25.6212   22.9886   60.2581 H         1 0N6801      0.0000 
     47 H         -25.5362   20.3272   59.7912 H         1 0N6801      0.0000 
     48 H         -27.0450   21.1724   60.1774 H         1 0N6801      0.0000 
     49 H         -27.0440   19.5596   61.8364 H         1 0N6801      0.0000 
     50 H         -25.2760   19.5666   61.9557 H         1 0N6801      0.0000 
     51 H         -26.0659   19.1936   65.8551 H         1 0N6801      0.0000 
     52 H         -25.6385   18.8974   64.1611 H         1 0N6801      0.0000 
     53 H         -27.7400   17.7622   66.9457 H         1 0N6801      0.0000 
     54 H         -26.5467   16.9324   63.0115 H         1 0N6801      0.0000 
     55 H         -27.4630   14.6984   63.1988 H         1 0N6801      0.0000 
     56 H         -28.5231   13.9980   65.2654 H         1 0N6801      0.0000 
@<TRIPOS>BOND
     1    2    1 ar   
     2   10    1 ar   
     3   32    1 1    
     4    3    2 1    
     5    7    2 ar   
     6    4    3 1    
     7   33    3 1    
     8   34    3 1    
     9    5    4 1    
    10   35    4 1    
    11   36    4 1    
    12    6    5 1    
    13    7    6 1    
    14   37    6 1    
    15   38    6 1    
    16    8    7 ar   
    17    9    8 ar   
    18   39    8 1    
    19   10    9 ar   
    20   40    9 1    
    21   11   10 1    
    22   12   11 2    
    23   13   11 2    
    24   14   11 1    
    25   15   14 1    
    26   41   14 1    
    27   16   15 1    
    28   23   15 1    
    29   42   15 1    
    30   17   16 2    
    31   18   16 am   
    32   19   18 1    
    33   22   18 1    
    34   20   19 1    
    35   43   19 1    
    36   44   19 1    
    37   21   20 1    
    38   45   20 1    
    39   46   20 1    
    40   22   21 1    
    41   47   21 1    
    42   48   21 1    
    43   49   22 1    
    44   50   22 1    
    45   24   23 1    
    46   51   23 1    
    47   52   23 1    
    48   25   24 ar   
    49   26   24 ar   
    50   29   25 ar   
    51   53   25 1    
    52   27   26 ar   
    53   54   26 1    
    54   28   27 ar   
    55   55   27 1    
    56   29   28 ar   
    57   56   28 1    
    58   30   29 1    
    59   31   30 3    
@<TRIPOS>SUBSTRUCTURE
     1 0N6801      1 GROUP   
@<TRIPOS>SET

