#    Name: 3nix_FAD_8_INTS_M
#    Modification time : Tue Mar 25 01:40:47 2014

@<TRIPOS>MOLECULE
3nix_FAD_8_INTS_M
  139     0     9     0     0
SMALL
NO_CHARGES


@<TRIPOS>ATOM
      1 N          77.4825  168.5660    4.5955 N.am      2 SEC2        0.0000 
      2 N          75.9030  168.7290    4.1980 N.am      8 SEL2        0.0000 
      3 N          79.0620  168.4030    4.9930 N.am      5 SEP2        0.0000 
      4 N          73.0085  170.5515    2.3270 N.am      2 SEC2        0.0000 
      5 N          74.2330  169.7930    2.7380 N.am      8 SEL2        0.0000 
      6 N          71.7840  171.3100    1.9160 N.am      5 SEP2        0.0000 
      7 CA         77.4790  167.2860    2.4435 C.3       3 GLC5        0.0000 
      8 CA         75.7960  166.2530    2.3100 C.3       9 GLL5        0.0000 
      9 CA         79.1620  168.3190    2.5770 C.3       6 GLP5        0.0000 
     10 CA         75.3745  163.7325    0.9420 C.3       3 GLC5        0.0000 
     11 CA         75.0700  164.8990    2.4150 C.3       9 GLL5        0.0000 
     12 CA         75.6790  162.5660   -0.5310 C.3       6 GLP5        0.0000 
     13 N          71.5660  164.9060    4.0280 N.am      2 SEC2        0.0000 
     14 N          73.0350  164.5700    3.3950 N.am      8 SEL2        0.0000 
     15 N          70.0970  165.2420    4.6610 N.am      5 SEP2        0.0000 
     16 N          72.1980  165.5185    3.2945 N.am      2 SEC2        0.0000 
     17 N          71.3610  166.4670    3.1940 N.am      5 SEP2        0.0000 
     18 O          72.8435  163.3640    2.5935 O.2       1 ALC1        0.0000 
     19 O          73.0350  164.5700    3.3950 O.2       7 ALL1        0.0000 
     20 O          72.6520  162.1580    1.7920 O.2       4 ALP1        0.0000 
     21 O          72.5310  163.0230    3.5855 O.2       1 ALC1        0.0000 
     22 O          72.0270  161.4760    3.7760 O.2       4 ALP1        0.0000 
     23 N          73.2170  163.2650    6.0230 N.am      2 SEC2        0.0000 
     24 N          73.9640  162.8860    5.0000 N.am      8 SEL2        0.0000 
     25 N          72.4700  163.6440    7.0460 N.am      5 SEP2        0.0000 
     26 O          72.9955  162.1810    4.3880 O.2       1 ALC1        0.0000 
     27 O          73.9640  162.8860    5.0000 O.2       7 ALL1        0.0000 
     28 CA         75.6155  162.7455    1.3700 C.3       3 GLC5        0.0000 
     29 CA         75.5520  162.9250    3.2710 C.3       9 GLL5        0.0000 
     30 CA         77.3720  163.8170    2.3425 C.3       3 GLC5        0.0000 
     31 CA         79.1920  164.7090    1.4140 C.3       6 GLP5        0.0000 
     32 CA         77.9310  157.2735    4.2955 C.3       3 GLC5        0.0000 
     33 CA         78.6450  159.2930    3.7570 C.3       9 GLL5        0.0000 
     34 CA         77.2170  155.2540    4.8340 C.3       6 GLP5        0.0000 
     35 CA         79.3675  158.0435    2.3790 C.3       3 GLC5        0.0000 
     36 CA         80.0900  156.7940    1.0010 C.3       6 GLP5        0.0000 
     37 O          80.7075  157.4450    4.7435 O.2       1 ALC1        0.0000 
     38 O          79.8050  158.8810    4.3840 O.2       7 ALL1        0.0000 
     39 O          81.6100  156.0090    5.1030 O.2       4 ALP1        0.0000 
     40 N          78.5820  157.0560    3.2555 N.am      2 SEC2        0.0000 
     41 N          77.9570  158.4600    2.9710 N.am      8 SEL2        0.0000 
     42 N          79.2070  155.6520    3.5400 N.am      5 SEP2        0.0000 
     43 CA         78.2525  159.4525    1.2415 C.3       3 GLC5        0.0000 
     44 CA         76.8130  158.8460    2.3940 C.3       9 GLL5        0.0000 
     45 CA         79.6920  160.0590    0.0890 C.3       6 GLP5        0.0000 
     46 CA         75.0045  158.8375    1.7485 C.3       3 GLC5        0.0000 
     47 CA         73.1960  158.8290    1.1030 C.3       6 GLP5        0.0000 
     48 CA         75.9845  158.8865    3.9690 C.3       3 GLC5        0.0000 
     49 CA         75.1560  158.9270    5.5440 C.3       6 GLP5        0.0000 
     50 CA         77.0150  157.0500    3.6140 C.3       3 GLC5        0.0000 
     51 CA         78.4515  157.8200    1.6975 C.3       3 GLC5        0.0000 
     52 N          75.1055  159.4225    3.0035 N.am      2 SEC2        0.0000 
     53 N          76.2900  160.0700    2.5730 N.am      8 SEL2        0.0000 
     54 N          73.9210  158.7750    3.4340 N.am      5 SEP2        0.0000 
     55 CA         76.3160  161.7535    1.4110 C.3       3 GLC5        0.0000 
     56 CA         76.9530  160.9410    3.3530 C.3       9 GLL5        0.0000 
     57 N          74.3545  177.4095    1.4900 N.am      2 SEC2        0.0000 
     58 N          73.9440  178.0730    2.9430 N.am      8 SEL2        0.0000 
     59 N          74.7650  176.7460    0.0370 N.am      5 SEP2        0.0000 
     60 N          73.8870  177.6360    0.4510 N.am      2 SEC2        0.0000 
     61 N          73.0090  178.5260    0.8650 N.am      8 SEL2        0.0000 
     62 O          71.2905  180.1665    2.0280 O.2       1 ALC1        0.0000 
     63 O          72.1340  179.5520    2.7550 O.2       7 ALL1        0.0000 
     64 O          70.4470  180.7810    1.3010 O.2       4 ALP1        0.0000 
     65 N          70.3910  179.2685    4.7795 N.am      2 SEC2        0.0000 
     66 N          71.1790  180.7140    4.6320 N.am      8 SEL2        0.0000 
     67 N          69.6030  177.8230    4.9270 N.am      5 SEP2        0.0000 
     68 N          69.9320  180.3615    4.0485 N.am      2 SEC2        0.0000 
     69 N          68.6850  180.0090    3.4650 N.am      5 SEP2        0.0000 
     70 CA         73.4010  177.2865   10.1280 C.3       3 GLC5        0.0000 
     71 CA         75.1350  178.3880   10.6110 C.3       9 GLL5        0.0000 
     72 CA         71.6670  176.1850    9.6450 C.3       6 GLP5        0.0000 
     73 CA         75.5690  178.1025   12.5825 C.3       3 GLC5        0.0000 
     74 CA         76.0030  177.8170   14.5540 C.3       6 GLP5        0.0000 
     75 CA         73.9160  179.6610   11.0515 C.3       3 GLC5        0.0000 
     76 CA         72.6970  180.9340   11.4920 C.3       6 GLP5        0.0000 
     77 CA         77.1200  174.7305    8.2520 C.3       3 GLC5        0.0000 
     78 CA         77.0270  176.5610    9.3360 C.3       9 GLL5        0.0000 
     79 CA         77.2130  172.9000    7.1680 C.3       6 GLP5        0.0000 
     80 CA         78.9960  176.3990    9.9095 C.3       3 GLC5        0.0000 
     81 CA         80.9650  176.2370   10.4830 C.3       6 GLP5        0.0000 
     82 CA         78.3585  177.1780    8.2065 C.3       3 GLC5        0.0000 
     83 CA         79.6900  177.7950    7.0770 C.3       6 GLP5        0.0000 
     84 CA         76.2895  174.0730    5.6655 C.3       3 GLC5        0.0000 
     85 CA         75.3660  175.2460    4.1630 C.3       9 GLL5        0.0000 
     86 N          75.7485  174.4585    6.1255 N.am      2 SEC2        0.0000 
     87 N          74.7160  174.7080    5.1440 N.am      8 SEL2        0.0000 
     88 N          76.7810  174.2090    7.1070 N.am      5 SEP2        0.0000 
     89 CA         76.2780  173.1255    4.9650 C.3       3 GLC5        0.0000 
     90 CA         76.1630  174.3690    3.2340 C.3       9 GLL5        0.0000 
     91 CA         76.3930  171.8820    6.6960 C.3       6 GLP5        0.0000 
     92 O          78.0020  174.5045    2.3355 O.2       1 ALC1        0.0000 
     93 O          76.8300  175.1150    2.3300 O.2       7 ALL1        0.0000 
     94 O          79.1740  173.8940    2.3410 O.2       4 ALP1        0.0000 
     95 CA         74.6020  174.7020    0.7880 C.3       3 GLC5        0.0000 
     96 CA         75.3020  173.4250    2.4190 C.3       9 GLL5        0.0000 
     97 CA         73.9020  175.9790   -0.8430 C.3       6 GLP5        0.0000 
     98 N          73.1280  172.8540    3.2165 N.am      2 SEC2        0.0000 
     99 N          74.6200  172.5240    3.1940 N.am      8 SEL2        0.0000 
    100 N          71.6360  173.1840    3.2390 N.am      5 SEP2        0.0000 
    101 N          73.2020  171.9170    2.5550 N.am      2 SEC2        0.0000 
    102 CA         78.1140  172.2105    2.3225 C.3       3 GLC5        0.0000 
    103 CA         76.1720  172.6270    1.4990 C.3       9 GLL5        0.0000 
    104 CA         80.0560  171.7940    3.1460 C.3       6 GLP5        0.0000 
    105 CA         76.3475  172.7590   -0.3335 C.3       3 GLC5        0.0000 
    106 CA         76.5230  172.8910   -2.1660 C.3       6 GLP5        0.0000 
    107 N          78.8825  170.9755    0.2845 N.am      2 SEC2        0.0000 
    108 N          77.3910  170.3980   -0.1730 N.am      8 SEL2        0.0000 
    109 N          80.3740  171.5530    0.7420 N.am      5 SEP2        0.0000 
    110 N          74.8175  169.5390   -2.1180 N.am      2 SEC2        0.0000 
    111 N          75.1860  169.4790   -0.5290 N.am      8 SEL2        0.0000 
    112 N          74.4490  169.5990   -3.7070 N.am      5 SEP2        0.0000 
    113 CA         77.3125  165.1425    1.8882 C.3       3 GLC5        0.0000 
    114 CA         78.8770  162.2295    2.8155 C.3       3 GLC5        0.0000 
    115 CA         78.1510  160.5770    3.9870 C.3       9 GLL5        0.0000 
    116 CA         80.2020  163.7000    1.9610 C.3       6 GLP5        0.0000 
    117 CA         80.1360  160.5780    3.5900 C.3       3 GLC5        0.0000 
    118 CA         81.8740  161.2210    3.3080 C.3       6 GLP5        0.0000 
    119 CA         78.6837  160.2485    1.8508 C.3       3 GLC5        0.0000 
    120 CA         76.4158  159.6825    4.5783 C.3       3 GLC5        0.0000 
    121 CA         72.8692  177.4745    8.6522 C.3       3 GLC5        0.0000 
    122 CA         74.0450  178.6680    6.9670 C.3       9 GLL5        0.0000 
    123 CA         75.8176  179.6513    8.7263 C.3       3 GLC5        0.0000 
    124 CA         75.0560  178.1760    9.0990 C.3       9 GLL5        0.0000 
    125 CA         76.1080  181.5080    8.2780 C.3       6 GLP5        0.0000 
    126 CA         74.9246  175.8676    9.0546 C.3       3 GLC5        0.0000 
    127 CA         73.5820  174.5840    9.0430 C.3       6 GLP5        0.0000 
    128 CA         74.5078  176.0157    7.8877 C.3       3 GLC5        0.0000 
    129 CA         75.9150  177.1050    7.1160 C.3       9 GLL5        0.0000 
    130 CA         73.0744  177.4420    6.1911 C.3       3 GLC5        0.0000 
    131 CA         74.9520  177.7900    6.3490 C.3       9 GLL5        0.0000 
    132 CA         71.6370  176.6070    5.3780 C.3       6 GLP5        0.0000 
    133 CA         75.3099  179.8925    7.6411 C.3       3 GLC5        0.0000 
    134 CA         73.6157  176.2858    4.8193 C.3       3 GLC5        0.0000 
    135 CA         75.8230  176.6830    4.3580 C.3       9 GLL5        0.0000 
    136 CA         77.2167  176.9228    4.5437 C.3       3 GLC5        0.0000 
    137 CA         78.8390  177.8810    4.8270 C.3       6 GLP5        0.0000 
    138 CA         76.3529  176.4379    2.2901 C.3       3 GLC5        0.0000 
    139 CA         76.8270  177.7090    0.8330 C.3       6 GLP5        0.0000 
@<TRIPOS>BOND
@<TRIPOS>SUBSTRUCTURE
     1 ALC1       18 GROUP        1 X    ALC  0     ROOT ALC X 1
     2 SEC2        1 GROUP        1 X    SEC  0     **** SEC X 2
     3 GLC5        7 GROUP        1 X    GLC  0     **** GLC X 6
     4 ALP1       20 GROUP        1 Y    ALP  0     ROOT ALP Y 8
     5 SEP2        3 GROUP        1 Y    SEP  0     **** SEP Y 9
     6 GLP5        9 GROUP        1 Y    GLP  0     **** GLP Y 13
     7 ALL1       19 GROUP        1 Z    ALL  0     ROOT ALL Z 15
     8 SEL2        2 GROUP        1 Z    SEL  0     **** SEL Z 16
     9 GLL5        8 GROUP        1 Z    GLL  0     **** GLL Z 20
@<TRIPOS>SET

