#    Name: 3nix_FAD_8_ligand
#    Modification time : Tue Mar 25 01:40:47 2014

@<TRIPOS>MOLECULE
3nix_FAD_8_ligand
   84    89     1     0     0
SMALL
NO_CHARGES


@<TRIPOS>ATOM
      1 PA         75.3410  168.8040    2.7850 P.3       1 FAD508      0.0000 
      2 O1A        75.9030  168.7290    4.1980 O.co2     1 FAD508      0.0000 
      3 O2A        74.2330  169.7930    2.7380 O.co2     1 FAD508      0.0000 
      4 O5B        74.8740  167.3190    2.3870 O.3       1 FAD508      0.0000 
      5 C5B        75.7960  166.2530    2.3100 C.3       1 FAD508      0.0000 
      6 C4B        75.0700  164.8990    2.4150 C.3       1 FAD508      0.0000 
      7 O4B        75.9520  163.8360    2.2950 O.3       1 FAD508      0.0000 
      8 C3B        74.3870  164.8160    3.6990 C.3       1 FAD508      0.0000 
      9 O3B        73.0350  164.5700    3.3950 O.3       1 FAD508      0.0000 
     10 C2B        74.9460  163.7020    4.3420 C.3       1 FAD508      0.0000 
     11 O2B        73.9640  162.8860    5.0000 O.3       1 FAD508      0.0000 
     12 C1B        75.5520  162.9250    3.2710 C.3       1 FAD508      0.0000 
     13 N9A        76.7130  162.1910    3.7390 N.pl3     1 FAD508      0.0000 
     14 C8A        77.6910  162.6110    4.5480 C.2       1 FAD508      0.0000 
     15 N7A        78.5900  161.6270    4.7180 N.2       1 FAD508      0.0000 
     16 C5A        78.1510  160.5770    3.9870 C.ar      1 FAD508      0.0000 
     17 C6A        78.6450  159.2930    3.7570 C.ar      1 FAD508      0.0000 
     18 N6A        79.8050  158.8810    4.3840 N.pl3     1 FAD508      0.0000 
     19 N1A        77.9570  158.4600    2.9710 N.ar      1 FAD508      0.0000 
     20 C2A        76.8130  158.8460    2.3940 C.ar      1 FAD508      0.0000 
     21 N3A        76.2900  160.0700    2.5730 N.ar      1 FAD508      0.0000 
     22 C4A        76.9530  160.9410    3.3530 C.ar      1 FAD508      0.0000 
     23 N1         73.9440  178.0730    2.9430 N.2       1 FAD508      0.0000 
     24 C2         73.0250  178.7130    2.2130 C.2       1 FAD508      0.0000 
     25 O2         73.0090  178.5260    0.8650 O.2       1 FAD508      0.0000 
     26 N3         72.1340  179.5520    2.7550 N.am      1 FAD508      0.0000 
     27 C4         72.1470  179.7900    4.0800 C.2       1 FAD508      0.0000 
     28 O4         71.1790  180.7140    4.6320 O.2       1 FAD508      0.0000 
     29 C4X        73.0780  179.1410    4.8940 C.2       1 FAD508      0.0000 
     30 N5         73.1270  179.3200    6.2270 N.2       1 FAD508      0.0000 
     31 C5X        74.0450  178.6680    6.9670 C.ar      1 FAD508      0.0000 
     32 C6         74.0980  178.8600    8.3520 C.ar      1 FAD508      0.0000 
     33 C7         75.0560  178.1760    9.0990 C.ar      1 FAD508      0.0000 
     34 C7M        75.1350  178.3880   10.6110 C.3       1 FAD508      0.0000 
     35 C8         75.9590  177.3070    8.4940 C.ar      1 FAD508      0.0000 
     36 C8M        77.0270  176.5610    9.3360 C.3       1 FAD508      0.0000 
     37 C9         75.9150  177.1050    7.1160 C.ar      1 FAD508      0.0000 
     38 C9A        74.9520  177.7900    6.3490 C.ar      1 FAD508      0.0000 
     39 N10        74.9150  177.6120    5.0120 N.pl3     1 FAD508      0.0000 
     40 C10        73.9990  178.2700    4.2740 C.2       1 FAD508      0.0000 
     41 C1'        75.8230  176.6830    4.3580 C.3       1 FAD508      0.0000 
     42 C2'        75.3660  175.2460    4.1630 C.3       1 FAD508      0.0000 
     43 O2'        74.7160  174.7080    5.1440 O.3       1 FAD508      0.0000 
     44 C3'        76.1630  174.3690    3.2340 C.3       1 FAD508      0.0000 
     45 O3'        76.8300  175.1150    2.3300 O.3       1 FAD508      0.0000 
     46 C4'        75.3020  173.4250    2.4190 C.3       1 FAD508      0.0000 
     47 O4'        74.6200  172.5240    3.1940 O.3       1 FAD508      0.0000 
     48 C5'        76.1720  172.6270    1.4990 C.3       1 FAD508      0.0000 
     49 O5'        75.5060  171.6570    0.7200 O.3       1 FAD508      0.0000 
     50 P          76.1160  170.1490    0.4920 P.3       1 FAD508      0.0000 
     51 O1P        77.3910  170.3980   -0.1730 O.co2     1 FAD508      0.0000 
     52 O2P        75.1860  169.4790   -0.5290 O.co2     1 FAD508      0.0000 
     53 O3P        76.4140  169.2610    1.7700 O.3       1 FAD508      0.0000 
     54 H          76.5396  166.2854    3.1211 H         1 FAD508      0.0000 
     55 H          76.3513  166.2497    1.3595 H         1 FAD508      0.0000 
     56 H          74.3186  164.8861    1.6204 H         1 FAD508      0.0000 
     57 H          74.5276  165.7086    4.2343 H         1 FAD508      0.0000 
     58 H          75.7228  163.9982    5.0255 H         1 FAD508      0.0000 
     59 H          74.8185  162.2388    2.8717 H         1 FAD508      0.0000 
     60 H          77.7470  163.4972    4.9553 H         1 FAD508      0.0000 
     61 H          80.2433  159.5512    4.9830 H         1 FAD508      0.0000 
     62 H          80.1057  157.9484    4.1844 H         1 FAD508      0.0000 
     63 H          76.2967  158.1589    1.7695 H         1 FAD508      0.0000 
     64 H          71.4243  180.0257    2.1505 H         1 FAD508      0.0000 
     65 H          73.4411  179.4947    8.8085 H         1 FAD508      0.0000 
     66 H          76.5700  176.4694    6.6608 H         1 FAD508      0.0000 
     67 H          76.8064  176.6504    4.9154 H         1 FAD508      0.0000 
     68 H          76.1162  177.0835    3.3419 H         1 FAD508      0.0000 
     69 H          74.4000  175.5126    3.3437 H         1 FAD508      0.0000 
     70 H          76.8388  173.7550    3.8270 H         1 FAD508      0.0000 
     71 H          74.6381  174.0204    1.7995 H         1 FAD508      0.0000 
     72 H          76.9811  172.1539    2.1232 H         1 FAD508      0.0000 
     73 H          76.7293  173.3541    0.8441 H         1 FAD508      0.0000 
     74 H          75.8629  177.8415   11.0251 H         1 FAD508      0.0000 
     75 H          75.3176  179.3434   10.8430 H         1 FAD508      0.0000 
     76 H          74.2820  178.1336   11.0668 H         1 FAD508      0.0000 
     77 H          77.6055  175.9758    8.7679 H         1 FAD508      0.0000 
     78 H          77.6331  177.1964    9.8145 H         1 FAD508      0.0000 
     79 H          76.6095  175.9750   10.0305 H         1 FAD508      0.0000 
     80 H          73.0405  163.7297    2.8530 H         1 FAD508      0.0000 
     81 H          73.2869  162.6765    4.2945 H         1 FAD508      0.0000 
     82 H          74.4339  173.8102    4.8059 H         1 FAD508      0.0000 
     83 H          77.7826  175.0993    2.6340 H         1 FAD508      0.0000 
     84 H          74.7388  171.6444    2.7333 H         1 FAD508      0.0000 
@<TRIPOS>BOND
     1    2    1 ar   
     2    3    1 ar   
     3    4    1 1    
     4   53    1 1    
     5    5    4 1    
     6    6    5 1    
     7   54    5 1    
     8   55    5 1    
     9    7    6 1    
    10    8    6 1    
    11   56    6 1    
    12   12    7 1    
    13    9    8 1    
    14   10    8 1    
    15   57    8 1    
    16   80    9 1    
    17   11   10 1    
    18   12   10 1    
    19   58   10 1    
    20   81   11 1    
    21   13   12 1    
    22   59   12 1    
    23   14   13 1    
    24   22   13 1    
    25   15   14 2    
    26   60   14 1    
    27   16   15 1    
    28   17   16 ar   
    29   22   16 ar   
    30   18   17 1    
    31   19   17 ar   
    32   61   18 1    
    33   62   18 1    
    34   20   19 ar   
    35   21   20 ar   
    36   63   20 1    
    37   22   21 ar   
    38   24   23 1    
    39   40   23 2    
    40   25   24 2    
    41   26   24 am   
    42   27   26 am   
    43   64   26 1    
    44   28   27 2    
    45   29   27 1    
    46   30   29 2    
    47   40   29 1    
    48   31   30 1    
    49   32   31 ar   
    50   38   31 ar   
    51   33   32 ar   
    52   65   32 1    
    53   34   33 1    
    54   35   33 ar   
    55   74   34 1    
    56   75   34 1    
    57   76   34 1    
    58   36   35 1    
    59   37   35 ar   
    60   77   36 1    
    61   78   36 1    
    62   79   36 1    
    63   38   37 ar   
    64   66   37 1    
    65   39   38 1    
    66   40   39 1    
    67   41   39 1    
    68   42   41 1    
    69   67   41 1    
    70   68   41 1    
    71   43   42 1    
    72   44   42 1    
    73   69   42 1    
    74   82   43 1    
    75   45   44 1    
    76   46   44 1    
    77   70   44 1    
    78   83   45 1    
    79   47   46 1    
    80   48   46 1    
    81   71   46 1    
    82   84   47 1    
    83   49   48 1    
    84   72   48 1    
    85   73   48 1    
    86   50   49 1    
    87   51   50 ar   
    88   52   50 ar   
    89   53   50 1    
@<TRIPOS>SUBSTRUCTURE
     1 FAD508      1 GROUP   
@<TRIPOS>SET

