#    Name: 3s1h_56Z_1_INTS_M
#    Modification time : Tue Mar 25 12:06:36 2014

@<TRIPOS>MOLECULE
3s1h_56Z_1_INTS_M
   62     0     9     0     0
SMALL
NO_CHARGES


@<TRIPOS>ATOM
      1 CA         96.3065   79.2405  -46.2300 C.3       3 GLC5        0.0000 
      2 CA         96.2020   77.2120  -47.0020 C.3       9 GLL5        0.0000 
      3 CA         96.4110   81.2690  -45.4580 C.3       6 GLP5        0.0000 
      4 N          91.2385   82.5965  -52.4405 N.am      2 SEC2        0.0000 
      5 N          92.2610   81.9090  -51.3390 N.am      8 SEL2        0.0000 
      6 N          90.2160   83.2840  -53.5420 N.am      5 SEP2        0.0000 
      7 N          86.2955   79.9545  -46.6205 N.am      2 SEC2        0.0000 
      8 N          86.2250   80.8410  -45.4210 N.am      8 SEL2        0.0000 
      9 N          86.3660   79.0680  -47.8200 N.am      5 SEP2        0.0000 
     10 CA         93.2465   82.4400  -48.2485 C.3       3 GLC5        0.0000 
     11 CA         92.9860   80.7360  -49.1500 C.3       9 GLL5        0.0000 
     12 CA         93.5070   84.1440  -47.3470 C.3       6 GLP5        0.0000 
     13 CA         97.3915   79.8035  -47.0805 C.3       3 GLC5        0.0000 
     14 CA         97.2400   77.9420  -47.7770 C.3       9 GLL5        0.0000 
     15 CA         97.5430   81.6650  -46.3840 C.3       6 GLP5        0.0000 
     16 CA         99.4325   78.1445  -48.1625 C.3       3 GLC5        0.0000 
     17 CA        101.6250   78.3470  -48.5480 C.3       6 GLP5        0.0000 
     18 O          93.7425   81.8495  -54.0255 O.2       1 ALC1        0.0000 
     19 O          93.7920   81.0630  -52.9230 O.2       7 ALL1        0.0000 
     20 O          93.6930   82.6360  -55.1280 O.2       4 ALP1        0.0000 
     21 N          85.5555   83.5345  -43.6780 N.am      2 SEC2        0.0000 
     22 N          86.9220   83.1470  -44.3330 N.am      8 SEL2        0.0000 
     23 N          84.1890   83.9220  -43.0230 N.am      5 SEP2        0.0000 
     24 O          89.9200   83.0240  -50.4305 O.2       1 ALC1        0.0000 
     25 O          90.9060   82.5510  -49.5490 O.2       7 ALL1        0.0000 
     26 O          88.9340   83.4970  -51.3120 O.2       4 ALP1        0.0000 
     27 O          88.4140   79.5545  -44.3095 O.2       1 ALC1        0.0000 
     28 O          88.1570   80.9180  -43.7310 O.2       7 ALL1        0.0000 
     29 O          88.6710   78.1910  -44.8880 O.2       4 ALP1        0.0000 
     30 CA         94.1140   75.2360  -48.1225 C.3       3 GLC5        0.0000 
     31 CA         94.7880   77.2320  -47.4650 C.3       9 GLL5        0.0000 
     32 CA         93.4400   73.2400  -48.7800 C.3       6 GLP5        0.0000 
     33 CA         90.2135   79.4415  -48.7585 C.3       3 GLC5        0.0000 
     34 CA         90.3240   81.1300  -47.5020 C.3       9 GLL5        0.0000 
     35 CA         90.1030   77.7530  -50.0150 C.3       6 GLP5        0.0000 
     36 CA         87.6995   83.6825  -49.5840 C.3       3 GLC5        0.0000 
     37 CA         89.0670   83.2720  -48.1470 C.3       9 GLL5        0.0000 
     38 CA         86.3320   84.0930  -51.0210 C.3       6 GLP5        0.0000 
     39 CA         96.9250   76.1355  -48.4817 C.3       3 GLC5        0.0000 
     40 CA         97.1290   74.6940  -49.5740 C.3       6 GLP5        0.0000 
     41 CA         96.5858   80.4725  -48.4550 C.3       3 GLC5        0.0000 
     42 CA         95.4640   78.7110  -49.4420 C.3       9 GLL5        0.0000 
     43 CA         97.0000   82.2460  -47.6950 C.3       6 GLP5        0.0000 
     44 CA         96.6502   76.6965  -49.3945 C.3       3 GLC5        0.0000 
     45 CA         96.8790   78.6870  -48.9880 C.3       9 GLL5        0.0000 
     46 CA         94.3118   77.0793  -50.6657 C.3       3 GLC5        0.0000 
     47 CA         93.6680   75.8200  -52.2820 C.3       6 GLP5        0.0000 
     48 CA         95.8733   76.1465  -48.8175 C.3       3 GLC5        0.0000 
     49 CA         94.4470   77.9660  -48.6570 C.3       9 GLL5        0.0000 
     50 CA         94.4522   82.2211  -51.0991 C.3       3 GLC5        0.0000 
     51 CA         93.8380   80.4130  -50.5990 C.3       9 GLL5        0.0000 
     52 CA         95.5410   83.5910  -51.4310 C.3       6 GLP5        0.0000 
     53 CA         92.4183   79.6811  -51.3996 C.3       3 GLC5        0.0000 
     54 CA         93.3150   81.1280  -51.6600 C.3       9 GLL5        0.0000 
     55 CA         91.4730   78.5110  -52.0320 C.3       6 GLP5        0.0000 
     56 CA         91.8693   82.9325  -47.6580 C.3       3 GLC5        0.0000 
     57 CA         90.1390   82.3120  -48.4360 C.3       9 GLL5        0.0000 
     58 CA         88.9720   79.2145  -46.9787 C.3       3 GLC5        0.0000 
     59 CA         88.0400   77.3920  -47.0160 C.3       6 GLP5        0.0000 
     60 CA         87.1344   82.0231  -48.0631 C.3       3 GLC5        0.0000 
     61 CA         88.4150   81.9190  -46.1240 C.3       9 GLL5        0.0000 
     62 CA         85.5750   81.1620  -48.7680 C.3       6 GLP5        0.0000 
@<TRIPOS>BOND
@<TRIPOS>SUBSTRUCTURE
     1 ALC1       18 GROUP        1 X    ALC  0     ROOT ALC X 1
     2 SEC2        4 GROUP        1 X    SEC  0     **** SEC X 2
     3 GLC5        1 GROUP        1 X    GLC  0     **** GLC X 6
     4 ALP1       20 GROUP        1 Y    ALP  0     ROOT ALP Y 8
     5 SEP2        6 GROUP        1 Y    SEP  0     **** SEP Y 9
     6 GLP5        3 GROUP        1 Y    GLP  0     **** GLP Y 13
     7 ALL1       19 GROUP        1 Z    ALL  0     ROOT ALL Z 15
     8 SEL2        5 GROUP        1 Z    SEL  0     **** SEL Z 16
     9 GLL5        2 GROUP        1 Z    GLL  0     **** GLL Z 20
@<TRIPOS>SET

