#    Name: 3s1h_56Z_1_ligand
#    Modification time : Tue Mar 25 12:06:36 2014

@<TRIPOS>MOLECULE
3s1h_56Z_1_ligand
   43    45     1     0     0
SMALL
NO_CHARGES


@<TRIPOS>ATOM
      1 C1         96.2020   77.2120  -47.0020 C.ar      1 56Z479      0.0000 
      2 N1         92.2610   81.9090  -51.3390 N.2       1 56Z479      0.0000 
      3 O1         86.2250   80.8410  -45.4210 O.2       1 56Z479      0.0000 
      4 S1         92.9860   80.7360  -49.1500 S.3       1 56Z479      0.0000 
      5 C2         97.2400   77.9420  -47.7770 C.ar      1 56Z479      0.0000 
      6 N2         93.7920   81.0630  -52.9230 N.pl3     1 56Z479      0.0000 
      7 O2         86.9220   83.1470  -44.3330 O.2       1 56Z479      0.0000 
      8 S2         87.4330   81.7170  -44.8730 S.o2      1 56Z479      0.0000 
      9 C3         96.8790   78.6870  -48.9880 C.ar      1 56Z479      0.0000 
     10 N3         90.9060   82.5510  -49.5490 N.pl3     1 56Z479      0.0000 
     11 O3         95.6300   79.2820  -51.8560 O.2       1 56Z479      0.0000 
     12 C4         94.4470   77.9660  -48.6570 C.ar      1 56Z479      0.0000 
     13 N4         88.1570   80.9180  -43.7310 N.pl3     1 56Z479      0.0000 
     14 C5         94.7880   77.2320  -47.4650 C.ar      1 56Z479      0.0000 
     15 O6         96.5340   76.5090  -45.8450 O.3       1 56Z479      0.0000 
     16 C7         95.6740   75.8150  -45.0650 C.3       1 56Z479      0.0000 
     17 C10        95.4640   78.7110  -49.4420 C.ar      1 56Z479      0.0000 
     18 C11        95.0130   79.4550  -50.6680 C.2       1 56Z479      0.0000 
     19 C12        93.8380   80.4130  -50.5990 C.2       1 56Z479      0.0000 
     20 C13        93.3150   81.1280  -51.6600 C.2       1 56Z479      0.0000 
     21 C14        91.9600   81.8150  -50.0460 C.2       1 56Z479      0.0000 
     22 C15        90.1390   82.3120  -48.4360 C.ar      1 56Z479      0.0000 
     23 C16        90.3240   81.1300  -47.5020 C.ar      1 56Z479      0.0000 
     24 C17        89.4840   80.9440  -46.3810 C.ar      1 56Z479      0.0000 
     25 C18        88.4150   81.9190  -46.1240 C.ar      1 56Z479      0.0000 
     26 C19        88.2260   83.0740  -47.0150 C.ar      1 56Z479      0.0000 
     27 C20        89.0670   83.2720  -48.1470 C.ar      1 56Z479      0.0000 
     28 H          98.1924   77.9196  -47.4621 H         1 56Z479      0.0000 
     29 H          93.2935   81.5925  -53.6094 H         1 56Z479      0.0000 
     30 H          94.6011   80.4912  -53.0589 H         1 56Z479      0.0000 
     31 H          97.5729   79.1774  -49.5097 H         1 56Z479      0.0000 
     32 H          90.6466   83.4484  -50.1215 H         1 56Z479      0.0000 
     33 H          93.4825   77.9859  -48.9871 H         1 56Z479      0.0000 
     34 H          88.5644   81.4662  -43.0006 H         1 56Z479      0.0000 
     35 H          88.1553   79.9221  -43.8215 H         1 56Z479      0.0000 
     36 H          94.0983   76.7354  -46.9406 H         1 56Z479      0.0000 
     37 H          91.0757   80.4879  -47.7244 H         1 56Z479      0.0000 
     38 H          89.5950   80.1668  -45.7552 H         1 56Z479      0.0000 
     39 H          87.4783   83.7292  -46.8023 H         1 56Z479      0.0000 
     40 H          88.9421   84.0632  -48.7599 H         1 56Z479      0.0000 
     41 H          96.1374   75.3923  -44.2862 H         1 56Z479      0.0000 
     42 H          94.9532   76.4008  -44.6945 H         1 56Z479      0.0000 
     43 H          95.2231   75.0803  -45.5718 H         1 56Z479      0.0000 
@<TRIPOS>BOND
     1    5    1 ar   
     2   14    1 ar   
     3   15    1 1    
     4   20    2 1    
     5   21    2 2    
     6    8    3 2    
     7   19    4 1    
     8   21    4 1    
     9    9    5 ar   
    10   28    5 1    
    11   20    6 1    
    12   29    6 1    
    13   30    6 1    
    14    8    7 2    
    15   13    8 1    
    16   25    8 1    
    17   17    9 ar   
    18   31    9 1    
    19   21   10 1    
    20   22   10 1    
    21   32   10 1    
    22   18   11 2    
    23   14   12 ar   
    24   17   12 ar   
    25   33   12 1    
    26   34   13 1    
    27   35   13 1    
    28   36   14 1    
    29   16   15 1    
    30   41   16 1    
    31   42   16 1    
    32   43   16 1    
    33   18   17 1    
    34   19   18 1    
    35   20   19 2    
    36   23   22 ar   
    37   27   22 ar   
    38   24   23 ar   
    39   37   23 1    
    40   25   24 ar   
    41   38   24 1    
    42   26   25 ar   
    43   27   26 ar   
    44   39   26 1    
    45   40   27 1    
@<TRIPOS>SUBSTRUCTURE
     1 56Z479      1 GROUP   
@<TRIPOS>SET

