#    Name: 1qy8_RDI_1_INTS_M
#    Modification time : Tue Mar 25 00:07:43 2014

@<TRIPOS>MOLECULE
1qy8_RDI_1_INTS_M
   50     0     6     0     0
SMALL
NO_CHARGES


@<TRIPOS>ATOM
      1 CA         14.6925  -20.6405   55.1720 C.3       2 GLC5        0.0000 
      2 CA         15.8860  -21.3240   56.4550 C.3       6 GLL5        0.0000 
      3 CA         13.4990  -19.9570   53.8890 C.3       4 GLP5        0.0000 
      4 CA         14.7905  -22.8315   55.3155 C.3       2 GLC5        0.0000 
      5 CA         13.6950  -24.3390   54.1760 C.3       4 GLP5        0.0000 
      6 CA         17.1670  -21.6790   58.0790 C.3       2 GLC5        0.0000 
      7 CA         18.4480  -22.0340   59.7030 C.3       4 GLP5        0.0000 
      8 CA         15.7170  -20.4345   58.3895 C.3       2 GLC5        0.0000 
      9 CA         15.5480  -19.5450   60.3240 C.3       4 GLP5        0.0000 
     10 CA         14.9690  -19.4245   55.1320 C.3       2 GLC5        0.0000 
     11 CA         16.4390  -18.8920   56.3750 C.3       6 GLL5        0.0000 
     12 CA         19.7445  -18.6100   56.5330 C.3       2 GLC5        0.0000 
     13 CA         18.6370  -17.9510   55.3470 C.3       6 GLL5        0.0000 
     14 CA         20.8520  -19.2690   57.7190 C.3       4 GLP5        0.0000 
     15 CA         18.7530  -16.1260   56.5960 C.3       2 GLC5        0.0000 
     16 CA         18.8690  -14.3010   57.8450 C.3       4 GLP5        0.0000 
     17 CA         15.0040  -19.1245   52.6305 C.3       2 GLC5        0.0000 
     18 CA         16.5090  -18.2920   51.3720 C.3       6 GLL5        0.0000 
     19 CA         14.9590  -20.1095   51.6295 C.3       2 GLC5        0.0000 
     20 CA         16.6890  -19.3410   50.5640 C.3       6 GLL5        0.0000 
     21 CA         13.2290  -20.8780   52.6950 C.3       4 GLP5        0.0000 
     22 CA         18.9835  -22.9475   51.3870 C.3       2 GLC5        0.0000 
     23 CA         19.9830  -21.2680   51.4160 C.3       6 GLL5        0.0000 
     24 CA         17.9840  -24.6270   51.3580 C.3       4 GLP5        0.0000 
     25 CA         19.2605  -22.4720   52.7650 C.3       2 GLC5        0.0000 
     26 CA         20.5610  -20.6420   52.6560 C.3       6 GLL5        0.0000 
     27 CA         17.9600  -24.3020   52.8740 C.3       4 GLP5        0.0000 
     28 N          16.7530  -23.8080   56.2105 N.am      1 SEC2        0.0000 
     29 N          17.4220  -22.9090   55.6110 N.am      5 SEL2        0.0000 
     30 N          16.0840  -24.7070   56.8100 N.am      3 SEP2        0.0000 
     31 CA         17.4150  -15.8015   57.3145 C.3       2 GLC5        0.0000 
     32 CA         15.9610  -17.3020   56.7840 C.3       6 GLL5        0.0000 
     33 CA         15.1620  -16.3625   57.9230 C.3       2 GLC5        0.0000 
     34 CA         14.3630  -15.4230   59.0620 C.3       4 GLP5        0.0000 
     35 N          18.6970  -21.2050   48.0540 N.am      1 SEC2        0.0000 
     36 N          18.3500  -21.0180   49.3670 N.am      5 SEL2        0.0000 
     37 N          19.0440  -21.3920   46.7410 N.am      3 SEP2        0.0000 
     38 CA         19.3682  -19.5535   56.6445 C.3       2 GLC5        0.0000 
     39 CA         18.0650  -20.5320   55.4210 C.3       6 GLL5        0.0000 
     40 CA         15.8740  -18.8210   58.4518 C.3       2 GLC5        0.0000 
     41 CA         16.2013  -21.0965   49.6545 C.3       2 GLC5        0.0000 
     42 CA         15.2200  -22.2560   48.7950 C.3       4 GLP5        0.0000 
     43 CA         18.1930  -22.5690   50.8987 C.3       2 GLC5        0.0000 
     44 CA         17.6760  -20.5330   50.4640 C.3       6 GLL5        0.0000 
     45 CA         20.2647  -21.6863   49.3967 C.3       2 GLC5        0.0000 
     46 CA         20.9740  -22.4940   47.8780 C.3       4 GLP5        0.0000 
     47 CA         21.2550  -22.6100   52.0485 C.3       2 GLC5        0.0000 
     48 CA         22.2380  -24.2650   52.0610 C.3       4 GLP5        0.0000 
     49 CA         21.9928  -19.8477   54.3320 C.3       2 GLC5        0.0000 
     50 CA         23.0240  -19.6940   56.0610 C.3       4 GLP5        0.0000 
@<TRIPOS>BOND
@<TRIPOS>SUBSTRUCTURE
     1 SEC2       28 GROUP        1 X    SEC  0     ROOT SEC X 2
     2 GLC5        1 GROUP        1 X    GLC  0     **** GLC X 6
     3 SEP2       30 GROUP        1 Y    SEP  0     ROOT SEP Y 9
     4 GLP5        3 GROUP        1 Y    GLP  0     **** GLP Y 13
     5 SEL2       29 GROUP        1 Z    SEL  0     ROOT SEL Z 16
     6 GLL5        2 GROUP        1 Z    GLL  0     **** GLL Z 20
@<TRIPOS>SET

