#    Name: 1qy8_RDI_1_ligand
#    Modification time : Tue Mar 25 00:07:43 2014

@<TRIPOS>MOLECULE
1qy8_RDI_1_ligand
   47    49     1     0     0
SMALL
NO_CHARGES


@<TRIPOS>ATOM
      1 C1         19.3100  -20.9500   54.7330 C.2       1 RDI338      0.0000 
      2 C2         18.0650  -20.5320   55.4210 C.3       1 RDI338      0.0000 
      3 C3         17.1420  -21.6030   55.8220 C.2       1 RDI338      0.0000 
      4 C4         15.8860  -21.3240   56.4550 C.ar      1 RDI338      0.0000 
      5 C5         15.5320  -19.9750   56.7250 C.2       1 RDI338      0.0000 
      6 C6         16.4390  -18.8920   56.3750 C.3       1 RDI338      0.0000 
      7 C7         17.7040  -19.1440   55.7190 C.3       1 RDI338      0.0000 
      8 C8         18.6370  -17.9510   55.3470 C.3       1 RDI338      0.0000 
      9 C9         18.0750  -16.7530   54.5060 C.2       1 RDI338      0.0000 
     10 C10        17.1990  -16.9740   53.3340 C.3       1 RDI338      0.0000 
     11 C11        17.3270  -18.0010   52.5170 C.3       1 RDI338      0.0000 
     12 C12        16.5090  -18.2920   51.3720 C.3       1 RDI338      0.0000 
     13 C13        16.6890  -19.3410   50.5640 C.3       1 RDI338      0.0000 
     14 C14        17.6760  -20.5330   50.4640 C.3       1 RDI338      0.0000 
     15 C15        19.1280  -20.4890   50.4150 C.3       1 RDI338      0.0000 
     16 C16        19.9830  -21.2680   51.4160 C.3       1 RDI338      0.0000 
     17 C17        20.5610  -20.6420   52.6560 C.3       1 RDI338      0.0000 
     18 C18        21.3620  -19.3610   52.5500 C.3       1 RDI338      0.0000 
     19 O1         19.4470  -20.3780   53.5520 O.3       1 RDI338      0.0000 
     20 O2         20.1050  -21.7560   55.1950 O.2       1 RDI338      0.0000 
     21 O3         17.4220  -22.9090   55.6110 O.2       1 RDI338      0.0000 
     22 O4         14.3290  -19.6480   57.3170 O.2       1 RDI338      0.0000 
     23 CL1        15.9610  -17.3020   56.7840 Cl        1 RDI338      0.0000 
     24 O5         18.2940  -15.6360   54.8590 O.2       1 RDI338      0.0000 
     25 O6         18.3500  -21.0180   49.3670 O.3       1 RDI338      0.0000 
     26 H          18.7290  -20.6520   56.7001 H         1 RDI338      0.0000 
     27 H          15.2653  -22.0809   56.7033 H         1 RDI338      0.0000 
     28 H          15.7684  -18.7081   55.1095 H         1 RDI338      0.0000 
     29 H          18.3581  -19.2393   57.0046 H         1 RDI338      0.0000 
     30 H          19.5280  -18.3625   54.8030 H         1 RDI338      0.0000 
     31 H          19.0620  -17.5321   56.2973 H         1 RDI338      0.0000 
     32 H          17.2163  -15.9586   52.7440 H         1 RDI338      0.0000 
     33 H          16.1042  -16.8997   53.7527 H         1 RDI338      0.0000 
     34 H          17.3595  -19.0141   53.1470 H         1 RDI338      0.0000 
     35 H          18.4524  -18.0649   52.1249 H         1 RDI338      0.0000 
     36 H          16.4715  -17.2980   50.7359 H         1 RDI338      0.0000 
     37 H          15.3919  -18.2670   51.7535 H         1 RDI338      0.0000 
     38 H          16.6755  -18.9415   49.3959 H         1 RDI338      0.0000 
     39 H          15.6049  -19.9139   50.4198 H         1 RDI338      0.0000 
     40 H          17.4826  -21.3954   51.0746 H         1 RDI338      0.0000 
     41 H          19.3489  -19.5198   50.1618 H         1 RDI338      0.0000 
     42 H          20.8400  -21.7498   50.8268 H         1 RDI338      0.0000 
     43 H          19.3806  -22.1912   51.7299 H         1 RDI338      0.0000 
     44 H          21.1953  -21.3999   53.1616 H         1 RDI338      0.0000 
     45 H          21.6917  -19.0542   53.4428 H         1 RDI338      0.0000 
     46 H          22.1644  -19.4721   51.9636 H         1 RDI338      0.0000 
     47 H          20.8192  -18.6143   52.1656 H         1 RDI338      0.0000 
@<TRIPOS>BOND
     1    2    1 1    
     2   19    1 1    
     3   20    1 2    
     4    3    2 1    
     5    7    2 1    
     6   26    2 1    
     7    4    3 1    
     8   21    3 2    
     9    5    4 1    
    10   27    4 1    
    11    6    5 1    
    12   22    5 2    
    13    7    6 1    
    14   23    6 1    
    15   28    6 1    
    16    8    7 1    
    17   29    7 1    
    18    9    8 1    
    19   30    8 1    
    20   31    8 1    
    21   10    9 1    
    22   24    9 2    
    23   11   10 1    
    24   32   10 1    
    25   33   10 1    
    26   12   11 1    
    27   34   11 1    
    28   35   11 1    
    29   13   12 1    
    30   36   12 1    
    31   37   12 1    
    32   14   13 1    
    33   38   13 1    
    34   39   13 1    
    35   15   14 1    
    36   25   14 1    
    37   40   14 1    
    38   16   15 1    
    39   25   15 1    
    40   41   15 1    
    41   17   16 1    
    42   42   16 1    
    43   43   16 1    
    44   18   17 1    
    45   19   17 1    
    46   44   17 1    
    47   45   18 1    
    48   46   18 1    
    49   47   18 1    
@<TRIPOS>SUBSTRUCTURE
     1 RDI338      1 GROUP   
@<TRIPOS>SET

