#    Name: 1e1k_FAD_1_INTS_M
#    Modification time : Mon Mar 24 22:41:45 2014

@<TRIPOS>MOLECULE
1e1k_FAD_1_INTS_M
  119     0     9     0     0
SMALL
NO_CHARGES


@<TRIPOS>ATOM
      1 N          17.8180    3.3720    8.0905 N.am      2 SEC2        0.0000 
      2 N          16.2690    3.0280    8.0070 N.am      8 SEL2        0.0000 
      3 N          19.3670    3.7160    8.1740 N.am      5 SEP2        0.0000 
      4 CA         13.0680    5.3370    9.8980 C.3       3 GLC5        0.0000 
      5 CA         14.2450    6.0900    8.5330 C.3       9 GLL5        0.0000 
      6 CA         11.8910    4.5840   11.2630 C.3       6 GLP5        0.0000 
      7 CA         13.5685    8.4050    6.8020 C.3       3 GLC5        0.0000 
      8 CA         14.7530    7.4250    7.9520 C.3       9 GLL5        0.0000 
      9 CA         12.3840    9.3850    5.6520 C.3       6 GLP5        0.0000 
     10 CA         17.5725    6.8660    7.7340 C.3       3 GLC5        0.0000 
     11 CA         16.1590    7.9060    8.4240 C.3       9 GLL5        0.0000 
     12 CA         18.9860    5.8260    7.0440 C.3       6 GLP5        0.0000 
     13 O          16.6415    9.2680    6.5815 O.2       1 ALC1        0.0000 
     14 O          17.0310    8.2230    7.3840 O.2       7 ALL1        0.0000 
     15 O          16.2520   10.3130    5.7790 O.2       4 ALP1        0.0000 
     16 O          17.1875    9.8100    7.3735 O.2       1 ALC1        0.0000 
     17 O          17.3440   11.3970    7.3630 O.2       4 ALP1        0.0000 
     18 O          17.1110   10.6510    8.4515 O.2       1 ALC1        0.0000 
     19 O          16.8780    9.9050    9.5400 O.2       7 ALL1        0.0000 
     20 CA         13.5245    9.5125    7.1620 C.3       3 GLC5        0.0000 
     21 CA         14.6650    9.6400    8.6720 C.3       9 GLL5        0.0000 
     22 CA         12.7105    8.6660    9.0385 C.3       3 GLC5        0.0000 
     23 CA         10.7560    7.6920    9.4050 C.3       6 GLP5        0.0000 
     24 CA         10.3275   12.8045    8.7530 C.3       3 GLC5        0.0000 
     25 CA         11.8200   13.3470   10.2840 C.3       9 GLL5        0.0000 
     26 CA          8.8350   12.2620    7.2220 C.3       6 GLP5        0.0000 
     27 CA         10.3295   14.5345    9.2710 C.3       3 GLC5        0.0000 
     28 CA          8.8390   15.7220    8.2580 C.3       6 GLP5        0.0000 
     29 CA          9.7205   13.1050   10.6400 C.3       3 GLC5        0.0000 
     30 CA          7.6210   12.8630   10.9960 C.3       6 GLP5        0.0000 
     31 O          10.2810   15.0290   11.3720 O.2       1 ALC1        0.0000 
     32 O          11.2290   13.8510   11.3610 O.2       7 ALL1        0.0000 
     33 O           9.3330   16.2070   11.3830 O.2       4 ALP1        0.0000 
     34 N          11.2990   15.3905    9.1135 N.am      2 SEC2        0.0000 
     35 N          11.7720   13.9360    9.0610 N.am      8 SEL2        0.0000 
     36 N          10.8260   16.8450    9.1660 N.am      5 SEP2        0.0000 
     37 CA         10.6080   12.8325    7.5930 C.3       3 GLC5        0.0000 
     38 CA         12.3810   13.4030    7.9640 C.3       9 GLL5        0.0000 
     39 CA         13.6990   13.4430    6.5830 C.3       3 GLC5        0.0000 
     40 CA         15.0170   13.4830    5.2020 C.3       6 GLP5        0.0000 
     41 CA         13.9690   13.8080    8.8965 C.3       3 GLC5        0.0000 
     42 CA         15.5570   14.2130    9.8290 C.3       6 GLP5        0.0000 
     43 CA         10.9000   14.6545    7.4140 C.3       3 GLC5        0.0000 
     44 CA          9.4190   15.9060    6.8640 C.3       6 GLP5        0.0000 
     45 N          14.3445   13.1740    7.7085 N.am      2 SEC2        0.0000 
     46 N          13.1240   12.2560    7.9460 N.am      8 SEL2        0.0000 
     47 N          15.5650   14.0920    7.4710 N.am      5 SEP2        0.0000 
     48 CA         12.7755   10.5085    7.4025 C.3       3 GLC5        0.0000 
     49 CA         13.1670   11.6320    9.1530 C.3       9 GLL5        0.0000 
     50 N          17.5215   -5.4395    7.0410 N.am      2 SEC2        0.0000 
     51 N          18.8750   -5.2360    8.0720 N.am      8 SEL2        0.0000 
     52 N          16.1680   -5.6430    6.0100 N.am      5 SEP2        0.0000 
     53 N          17.5015   -6.1040    6.1515 N.am      2 SEC2        0.0000 
     54 N          18.8350   -6.5650    6.2930 N.am      8 SEL2        0.0000 
     55 N          23.2435   -4.8680   10.2515 N.am      2 SEC2        0.0000 
     56 N          21.7140   -4.4810   10.2420 N.am      8 SEL2        0.0000 
     57 N          24.7730   -5.2550   10.2610 N.am      5 SEP2        0.0000 
     58 CA         23.6675   -0.4330   14.2865 C.3       3 GLC5        0.0000 
     59 CA         22.1570   -1.6510   14.0950 C.3       9 GLL5        0.0000 
     60 CA         25.1780    0.7850   14.4780 C.3       6 GLP5        0.0000 
     61 CA         18.3035   -1.0265   15.6960 C.3       3 GLC5        0.0000 
     62 CA         19.3880   -0.9550   13.9690 C.3       9 GLL5        0.0000 
     63 CA         17.2190   -1.0980   17.4230 C.3       6 GLP5        0.0000 
     64 CA         17.3995   -1.4285   13.5720 C.3       3 GLC5        0.0000 
     65 CA         15.4110   -1.9020   13.1750 C.3       6 GLP5        0.0000 
     66 CA         16.5710   -5.2875    8.8540 C.3       3 GLC5        0.0000 
     67 CA         17.5620   -3.6570    9.6960 C.3       9 GLL5        0.0000 
     68 CA         15.5800   -6.9180    8.0120 C.3       6 GLP5        0.0000 
     69 CA         17.6120   -5.0885   11.1920 C.3       3 GLC5        0.0000 
     70 CA         17.6620   -6.5200   12.6880 C.3       6 GLP5        0.0000 
     71 CA         18.3315   -0.3415    9.1955 C.3       3 GLC5        0.0000 
     72 CA         17.4050   -2.3480    8.8310 C.3       9 GLL5        0.0000 
     73 CA         19.2580    1.6650    9.5600 C.3       6 GLP5        0.0000 
     74 N          13.7675   -2.9025    7.5900 N.am      2 SEC2        0.0000 
     75 N          15.1750   -3.0150    8.2950 N.am      8 SEL2        0.0000 
     76 N          12.3600   -2.7900    6.8850 N.am      5 SEP2        0.0000 
     77 O          14.8060   -4.1360    9.0850 O.2       1 ALC1        0.0000 
     78 O          15.1750   -3.0150    8.2950 O.2       7 ALL1        0.0000 
     79 O          14.4370   -5.2570    9.8750 O.2       4 ALP1        0.0000 
     80 CA         16.0745   -0.1090    6.1620 C.3       3 GLC5        0.0000 
     81 CA         15.6710   -0.7500    7.9410 C.3       9 GLL5        0.0000 
     82 CA         16.4780    0.5320    4.3830 C.3       6 GLP5        0.0000 
     83 CA         12.9970   -0.9690    9.5165 C.3       3 GLC5        0.0000 
     84 CA         14.3050   -0.1820    8.4150 C.3       9 GLL5        0.0000 
     85 CA         11.6890   -1.7560   10.6180 C.3       6 GLP5        0.0000 
     86 CA         13.0095   -0.6680    6.8325 C.3       3 GLC5        0.0000 
     87 CA         11.7140   -1.1540    5.2500 C.3       6 GLP5        0.0000 
     88 N          12.9050    2.4910    5.0845 N.am      2 SEC2        0.0000 
     89 N          13.1890    2.9540    6.3530 N.am      8 SEL2        0.0000 
     90 N          12.6210    2.0280    3.8160 N.am      5 SEP2        0.0000 
     91 N          10.7565    1.1750    8.8815 N.am      2 SEC2        0.0000 
     92 N          11.9030    1.9190    8.2200 N.am      8 SEL2        0.0000 
     93 N           9.6100    0.4310    9.5430 N.am      5 SEP2        0.0000 
     94 CA         15.2165    5.7927    6.4223 C.3       3 GLC5        0.0000 
     95 CA         15.9340    4.8280    4.6020 C.3       6 GLP5        0.0000 
     96 CA         12.6275    7.2248    8.8238 C.3       3 GLC5        0.0000 
     97 CA         11.5903   10.4758    9.8205 C.3       3 GLC5        0.0000 
     98 CA         12.5900   12.1110   10.3430 C.3       9 GLL5        0.0000 
     99 CA         10.3020    9.0800    9.8930 C.3       6 GLP5        0.0000 
    100 CA         14.1215   13.1967    9.7811 C.3       3 GLC5        0.0000 
    101 CA         22.9125   -2.6233   10.3115 C.3       3 GLC5        0.0000 
    102 CA         21.8660   -3.1070   12.0820 C.3       9 GLL5        0.0000 
    103 CA         24.3490   -1.8800    9.0440 C.3       6 GLP5        0.0000 
    104 CA         21.2347   -3.2598   14.7233 C.3       3 GLC5        0.0000 
    105 CA         21.3380   -2.2530   12.9900 C.3       9 GLL5        0.0000 
    106 CA         20.5900   -4.3540   16.1310 C.3       6 GLP5        0.0000 
    107 CA         21.9379   -0.5691   12.2146 C.3       3 GLC5        0.0000 
    108 CA         19.9380   -1.8990   12.9250 C.3       9 GLL5        0.0000 
    109 CA         22.9670    0.8940   11.3090 C.3       6 GLP5        0.0000 
    110 CA         20.1265   -2.8905   14.7890 C.3       3 GLC5        0.0000 
    111 CA         18.5007   -0.1923   12.0663 C.3       3 GLC5        0.0000 
    112 CA         17.5820    1.5470   11.4560 C.3       6 GLP5        0.0000 
    113 CA         18.5515   -4.6943   12.0675 C.3       3 GLC5        0.0000 
    114 CA         19.1760   -2.4360   11.9060 C.3       9 GLL5        0.0000 
    115 CA         17.3320   -2.8407    7.0310 C.3       3 GLC5        0.0000 
    116 CA         15.9270   -1.9530    8.8770 C.3       9 GLL5        0.0000 
    117 CA         17.9980   -3.5310    5.2080 C.3       6 GLP5        0.0000 
    118 CA         15.7301   -2.5654   10.6566 C.3       3 GLC5        0.0000 
    119 CA         14.7550   -2.6530   12.2430 C.3       6 GLP5        0.0000 
@<TRIPOS>BOND
@<TRIPOS>SUBSTRUCTURE
     1 ALC1       13 GROUP        1 X    ALC  0     ROOT ALC X 1
     2 SEC2        1 GROUP        1 X    SEC  0     **** SEC X 2
     3 GLC5        4 GROUP        1 X    GLC  0     **** GLC X 6
     4 ALP1       15 GROUP        1 Y    ALP  0     ROOT ALP Y 8
     5 SEP2        3 GROUP        1 Y    SEP  0     **** SEP Y 9
     6 GLP5        6 GROUP        1 Y    GLP  0     **** GLP Y 13
     7 ALL1       14 GROUP        1 Z    ALL  0     ROOT ALL Z 15
     8 SEL2        2 GROUP        1 Z    SEL  0     **** SEL Z 16
     9 GLL5        5 GROUP        1 Z    GLL  0     **** GLL Z 20
@<TRIPOS>SET

