#    Name: 1e1k_FAD_1_ligand
#    Modification time : Mon Mar 24 22:41:46 2014

@<TRIPOS>MOLECULE
1e1k_FAD_1_ligand
   84    89     1     0     0
SMALL
NO_CHARGES


@<TRIPOS>ATOM
      1 PA         15.3470    3.7020    8.7960 P.3       1 FAD801      0.0000 
      2 O1A        15.6740    4.1390   10.1510 O.co2     1 FAD801      0.0000 
      3 O2A        16.2690    3.0280    8.0070 O.co2     1 FAD801      0.0000 
      4 O5B        15.2090    5.0500    8.0580 O.3       1 FAD801      0.0000 
      5 C5B        14.2450    6.0900    8.5330 C.3       1 FAD801      0.0000 
      6 C4B        14.7530    7.4250    7.9520 C.3       1 FAD801      0.0000 
      7 O4B        13.8150    8.5210    8.2750 O.3       1 FAD801      0.0000 
      8 C3B        16.1590    7.9060    8.4240 C.3       1 FAD801      0.0000 
      9 O3B        17.0310    8.2230    7.3840 O.3       1 FAD801      0.0000 
     10 C2B        15.8000    8.9860    9.4460 C.3       1 FAD801      0.0000 
     11 O2B        16.8780    9.9050    9.5400 O.3       1 FAD801      0.0000 
     12 C1B        14.6650    9.6400    8.6720 C.3       1 FAD801      0.0000 
     13 N9A        13.7980   10.4540    9.5280 N.pl3     1 FAD801      0.0000 
     14 C8A        13.5830   10.2710   10.8800 C.2       1 FAD801      0.0000 
     15 N7A        12.8350   11.2630   11.4070 N.2       1 FAD801      0.0000 
     16 C5A        12.5900   12.1110   10.3430 C.ar      1 FAD801      0.0000 
     17 C6A        11.8200   13.3470   10.2840 C.ar      1 FAD801      0.0000 
     18 N6A        11.2290   13.8510   11.3610 N.pl3     1 FAD801      0.0000 
     19 N1A        11.7720   13.9360    9.0610 N.ar      1 FAD801      0.0000 
     20 C2A        12.3810   13.4030    7.9640 C.ar      1 FAD801      0.0000 
     21 N3A        13.1240   12.2560    7.9460 N.ar      1 FAD801      0.0000 
     22 C4A        13.1670   11.6320    9.1530 C.ar      1 FAD801      0.0000 
     23 N1         18.8750   -5.2360    8.0720 N.2       1 FAD801      0.0000 
     24 C2         19.4290   -6.0690    7.2090 C.2       1 FAD801      0.0000 
     25 O2         18.8350   -6.5650    6.2930 O.2       1 FAD801      0.0000 
     26 N3         20.7890   -6.4140    7.3560 N.am      1 FAD801      0.0000 
     27 C4         21.5890   -5.9180    8.3180 C.2       1 FAD801      0.0000 
     28 O4         22.7530   -6.2470    8.4580 O.2       1 FAD801      0.0000 
     29 C4X        20.9850   -5.0040    9.2580 C.2       1 FAD801      0.0000 
     30 N5         21.7140   -4.4810   10.2420 N.2       1 FAD801      0.0000 
     31 C5X        21.0860   -3.6260   11.0760 C.ar      1 FAD801      0.0000 
     32 C6         21.8660   -3.1070   12.0820 C.ar      1 FAD801      0.0000 
     33 C7         21.3380   -2.2530   12.9900 C.ar      1 FAD801      0.0000 
     34 C7M        22.1570   -1.6510   14.0950 C.3       1 FAD801      0.0000 
     35 C8         19.9380   -1.8990   12.9250 C.ar      1 FAD801      0.0000 
     36 C8M        19.3880   -0.9550   13.9690 C.3       1 FAD801      0.0000 
     37 C9         19.1760   -2.4360   11.9060 C.ar      1 FAD801      0.0000 
     38 C9A        19.7060   -3.3010   10.9880 C.ar      1 FAD801      0.0000 
     39 N10        19.0040   -3.8850    9.9440 N.pl3     1 FAD801      0.0000 
     40 C10        19.5850   -4.7150    9.0830 C.2       1 FAD801      0.0000 
     41 C1'        17.5620   -3.6570    9.6960 C.3       1 FAD801      0.0000 
     42 C2'        17.4050   -2.3480    8.8310 C.3       1 FAD801      0.0000 
     43 O2'        18.2050   -1.3420    9.4450 O.3       1 FAD801      0.0000 
     44 C3'        15.9270   -1.9530    8.8770 C.3       1 FAD801      0.0000 
     45 O3'        15.1750   -3.0150    8.2950 O.3       1 FAD801      0.0000 
     46 C4'        15.6710   -0.7500    7.9410 C.3       1 FAD801      0.0000 
     47 O4'        16.6780    0.2890    8.0490 O.3       1 FAD801      0.0000 
     48 C5'        14.3050   -0.1820    8.4150 C.3       1 FAD801      0.0000 
     49 O5'        13.9150    0.9480    7.4020 O.3       1 FAD801      0.0000 
     50 P          13.1740    2.2210    7.6710 P.3       1 FAD801      0.0000 
     51 O1P        13.1890    2.9540    6.3530 O.co2     1 FAD801      0.0000 
     52 O2P        11.9030    1.9190    8.2200 O.co2     1 FAD801      0.0000 
     53 O3P        13.9210    2.9650    8.7830 O.3       1 FAD801      0.0000 
     54 H          14.2520    6.1532    9.6009 H         1 FAD801      0.0000 
     55 H          13.2637    5.8988    8.1522 H         1 FAD801      0.0000 
     56 H          14.7965    7.3372    6.8582 H         1 FAD801      0.0000 
     57 H          16.5260    7.0404    9.0401 H         1 FAD801      0.0000 
     58 H          15.4566    8.5667   10.2941 H         1 FAD801      0.0000 
     59 H          15.0176   10.1478    7.8466 H         1 FAD801      0.0000 
     60 H          13.9387    9.5060   11.3816 H         1 FAD801      0.0000 
     61 H          10.7511   14.7202   11.2345 H         1 FAD801      0.0000 
     62 H          11.3152   13.3158   12.2013 H         1 FAD801      0.0000 
     63 H          12.2680   13.9289    7.0326 H         1 FAD801      0.0000 
     64 H          21.1788   -7.1064    6.6546 H         1 FAD801      0.0000 
     65 H          22.8690   -3.3784   12.1380 H         1 FAD801      0.0000 
     66 H          18.1662   -2.1706   11.8389 H         1 FAD801      0.0000 
     67 H          17.0231   -3.5037   10.6186 H         1 FAD801      0.0000 
     68 H          17.1250   -4.4704    9.1370 H         1 FAD801      0.0000 
     69 H          17.6882   -2.5764    7.8492 H         1 FAD801      0.0000 
     70 H          15.6291   -1.7190    9.8391 H         1 FAD801      0.0000 
     71 H          15.5387   -1.1087    6.9533 H         1 FAD801      0.0000 
     72 H          14.4121    0.2426    9.3847 H         1 FAD801      0.0000 
     73 H          13.5682   -0.9489    8.3806 H         1 FAD801      0.0000 
     74 H          22.5446   -2.3516   14.6941 H         1 FAD801      0.0000 
     75 H          22.9217   -1.1133   13.7399 H         1 FAD801      0.0000 
     76 H          21.6125   -1.0413   14.6710 H         1 FAD801      0.0000 
     77 H          19.4918   -1.3222   14.8933 H         1 FAD801      0.0000 
     78 H          19.8531   -0.0699   13.9513 H         1 FAD801      0.0000 
     79 H          18.4136   -0.7768   13.8321 H         1 FAD801      0.0000 
     80 H          16.6105    9.0045    6.9230 H         1 FAD801      0.0000 
     81 H          16.9138   10.3539    8.6472 H         1 FAD801      0.0000 
     82 H          17.8613   -0.4779    9.0773 H         1 FAD801      0.0000 
     83 H          15.0727   -3.6901    9.0256 H         1 FAD801      0.0000 
     84 H          16.1665    1.1480    8.0294 H         1 FAD801      0.0000 
@<TRIPOS>BOND
     1    2    1 ar   
     2    3    1 ar   
     3    4    1 1    
     4   53    1 1    
     5    5    4 1    
     6    6    5 1    
     7   54    5 1    
     8   55    5 1    
     9    7    6 1    
    10    8    6 1    
    11   56    6 1    
    12   12    7 1    
    13    9    8 1    
    14   10    8 1    
    15   57    8 1    
    16   80    9 1    
    17   11   10 1    
    18   12   10 1    
    19   58   10 1    
    20   81   11 1    
    21   13   12 1    
    22   59   12 1    
    23   14   13 1    
    24   22   13 1    
    25   15   14 2    
    26   60   14 1    
    27   16   15 1    
    28   17   16 ar   
    29   22   16 ar   
    30   18   17 1    
    31   19   17 ar   
    32   61   18 1    
    33   62   18 1    
    34   20   19 ar   
    35   21   20 ar   
    36   63   20 1    
    37   22   21 ar   
    38   24   23 1    
    39   40   23 2    
    40   25   24 2    
    41   26   24 am   
    42   27   26 am   
    43   64   26 1    
    44   28   27 2    
    45   29   27 1    
    46   30   29 2    
    47   40   29 1    
    48   31   30 1    
    49   32   31 ar   
    50   38   31 ar   
    51   33   32 ar   
    52   65   32 1    
    53   34   33 1    
    54   35   33 ar   
    55   74   34 1    
    56   75   34 1    
    57   76   34 1    
    58   36   35 1    
    59   37   35 ar   
    60   77   36 1    
    61   78   36 1    
    62   79   36 1    
    63   38   37 ar   
    64   66   37 1    
    65   39   38 1    
    66   40   39 1    
    67   41   39 1    
    68   42   41 1    
    69   67   41 1    
    70   68   41 1    
    71   43   42 1    
    72   44   42 1    
    73   69   42 1    
    74   82   43 1    
    75   45   44 1    
    76   46   44 1    
    77   70   44 1    
    78   83   45 1    
    79   47   46 1    
    80   48   46 1    
    81   71   46 1    
    82   84   47 1    
    83   49   48 1    
    84   72   48 1    
    85   73   48 1    
    86   50   49 1    
    87   51   50 ar   
    88   52   50 ar   
    89   53   50 1    
@<TRIPOS>SUBSTRUCTURE
     1 FAD801      1 GROUP   
@<TRIPOS>SET

