#    Name: 3lfe_Z84_1_INTS_M
#    Modification time : Mon Mar 24 21:35:45 2014

@<TRIPOS>MOLECULE
3lfe_Z84_1_INTS_M
   90     0     9     0     0
SMALL
NO_CHARGES


@<TRIPOS>ATOM
      1 CA         21.5675   -7.2105   -9.2655 C.3       3 GLC5        0.0000 
      2 CA         20.1010   -7.1730  -10.7180 C.3       9 GLL5        0.0000 
      3 CA         23.0340   -7.2480   -7.8130 C.3       6 GLP5        0.0000 
      4 CA         19.7835   -9.3420  -10.5560 C.3       3 GLC5        0.0000 
      5 CA         19.4660  -11.5110  -10.3940 C.3       6 GLP5        0.0000 
      6 CA         12.4850   -8.8660  -19.6315 C.3       3 GLC5        0.0000 
      7 CA         13.9990   -7.7060  -18.8200 C.3       9 GLL5        0.0000 
      8 CA         10.9710  -10.0260  -20.4430 C.3       6 GLP5        0.0000 
      9 CA         12.3845   -6.9295  -18.0160 C.3       3 GLC5        0.0000 
     10 CA         10.7700   -6.1530  -17.2120 C.3       6 GLP5        0.0000 
     11 CA         12.5585   -6.8175  -19.7795 C.3       3 GLC5        0.0000 
     12 CA         11.1180   -5.9290  -20.7390 C.3       6 GLP5        0.0000 
     13 CA         14.4330   -6.0080  -19.5860 C.3       3 GLC5        0.0000 
     14 CA         14.8670   -4.3100  -20.3520 C.3       6 GLP5        0.0000 
     15 CA         14.4945   -6.1525  -17.2905 C.3       3 GLC5        0.0000 
     16 CA         14.9900   -4.5990  -15.7610 C.3       6 GLP5        0.0000 
     17 CA         16.2735  -11.2230  -17.1450 C.3       3 GLC5        0.0000 
     18 CA         15.2360   -9.8580  -18.4670 C.3       9 GLL5        0.0000 
     19 CA         17.3110  -12.5880  -15.8230 C.3       6 GLP5        0.0000 
     20 CA         15.9180  -11.2960  -19.4280 C.3       3 GLC5        0.0000 
     21 CA         16.6000  -12.7340  -20.3890 C.3       6 GLP5        0.0000 
     22 CA         14.8830   -9.9865  -20.5515 C.3       3 GLC5        0.0000 
     23 CA         14.5300  -10.1150  -22.6360 C.3       6 GLP5        0.0000 
     24 CA         12.5880  -10.8295  -15.8600 C.3       3 GLC5        0.0000 
     25 CA         13.5700   -9.1460  -16.8120 C.3       9 GLL5        0.0000 
     26 CA         11.6060  -12.5130  -14.9080 C.3       6 GLP5        0.0000 
     27 CA         12.1700   -7.6495  -17.0120 C.3       3 GLC5        0.0000 
     28 N          16.8145   -4.3440  -18.3390 N.am      2 SEC2        0.0000 
     29 N          18.1050   -4.8500  -18.6090 N.am      8 SEL2        0.0000 
     30 N          15.5240   -3.8380  -18.0690 N.am      5 SEP2        0.0000 
     31 CA         19.0510    1.2565  -26.9310 C.3       3 GLC5        0.0000 
     32 CA         20.2850    1.7900  -25.4600 C.3       9 GLL5        0.0000 
     33 CA         17.8170    0.7230  -28.4020 C.3       6 GLP5        0.0000 
     34 CA         18.8165    0.1785  -26.5680 C.3       3 GLC5        0.0000 
     35 CA         19.8160   -0.3660  -24.7340 C.3       9 GLL5        0.0000 
     36 CA         17.6995   -0.3645  -25.2165 C.3       3 GLC5        0.0000 
     37 CA         15.5830   -0.3630  -25.6990 C.3       6 GLP5        0.0000 
     38 CA         19.2600   -9.9990  -11.5190 C.3       3 GLC5        0.0000 
     39 CA         19.0540   -8.4870  -12.6440 C.3       9 GLL5        0.0000 
     40 CA         17.5245  -10.2245  -14.2215 C.3       3 GLC5        0.0000 
     41 CA         18.3380   -8.5390  -13.8480 C.3       9 GLL5        0.0000 
     42 CA         16.7110  -11.9100  -14.5950 C.3       6 GLP5        0.0000 
     43 CA         17.2115   -6.9665  -19.7130 C.3       3 GLC5        0.0000 
     44 CA         16.7340   -7.1950  -17.7160 C.3       9 GLL5        0.0000 
     45 CA         17.6890   -6.7380  -21.7100 C.3       6 GLP5        0.0000 
     46 CA         15.8005   -5.7525  -19.0340 C.3       3 GLC5        0.0000 
     47 CA         23.8780   -0.5035  -22.9040 C.3       3 GLC5        0.0000 
     48 CA         22.9090   -0.9070  -21.4930 C.3       9 GLL5        0.0000 
     49 CA         24.8470   -0.1000  -24.3150 C.3       6 GLP5        0.0000 
     50 CA         24.9350   -1.9735  -19.4825 C.3       3 GLC5        0.0000 
     51 CA         23.0990   -1.9900  -20.4030 C.3       9 GLL5        0.0000 
     52 CA         26.7710   -1.9570  -18.5620 C.3       6 GLP5        0.0000 
     53 CA         23.8690    1.8120  -21.7015 C.3       3 GLC5        0.0000 
     54 CA         21.9960    1.2980  -22.1840 C.3       9 GLL5        0.0000 
     55 CA         25.7420    2.3260  -21.2190 C.3       6 GLP5        0.0000 
     56 CA         20.4965    1.1095  -20.8680 C.3       3 GLC5        0.0000 
     57 CA         18.9970    0.9210  -19.5520 C.3       6 GLP5        0.0000 
     58 N          19.9735    0.7855  -27.1410 N.am      2 SEC2        0.0000 
     59 N          19.6940    0.6070  -25.6330 N.am      8 SEL2        0.0000 
     60 N          20.2530    0.9640  -28.6490 N.am      5 SEP2        0.0000 
     61 O          20.0700   -5.7730  -16.1405 O.2       1 ALC1        0.0000 
     62 O          18.6730   -6.1110  -16.8230 O.2       7 ALL1        0.0000 
     63 O          21.4670   -5.4350  -15.4580 O.2       4 ALP1        0.0000 
     64 O          20.7620   -4.9780  -16.4845 O.2       1 ALC1        0.0000 
     65 O          20.0570   -4.5210  -17.5110 O.2       7 ALL1        0.0000 
     66 CA         18.5205   -1.4640  -17.3545 C.3       3 GLC5        0.0000 
     67 CA         19.3930   -2.4100  -18.9970 C.3       9 GLL5        0.0000 
     68 CA         17.6480   -0.5180  -15.7120 C.3       6 GLP5        0.0000 
     69 CA         21.0667   -7.8338  -12.5370 C.3       3 GLC5        0.0000 
     70 CA         19.3180   -7.2580  -12.0440 C.3       9 GLL5        0.0000 
     71 CA         22.4240   -8.4520  -13.6930 C.3       6 GLP5        0.0000 
     72 CA         22.1737    2.3085  -25.8588 C.3       3 GLC5        0.0000 
     73 CA         21.0580    2.0400  -24.3150 C.3       9 GLL5        0.0000 
     74 CA         23.6760    2.7020  -26.8300 C.3       6 GLP5        0.0000 
     75 CA         18.6025   -0.9195  -23.1197 C.3       3 GLC5        0.0000 
     76 CA         17.0110   -1.5650  -22.0890 C.3       6 GLP5        0.0000 
     77 CA         20.3665   -9.2210  -13.4910 C.3       3 GLC5        0.0000 
     78 CA         22.0370   -9.9290  -13.7360 C.3       6 GLP5        0.0000 
     79 CA         16.4975   -5.6770  -14.9632 C.3       3 GLC5        0.0000 
     80 CA         18.1450   -6.1430  -13.8750 C.3       9 GLL5        0.0000 
     81 CA         18.5115   -1.8127  -20.7742 C.3       3 GLC5        0.0000 
     82 CA         18.4812   -8.0152  -18.4053 C.3       3 GLC5        0.0000 
     83 CA         19.8010   -8.9950  -19.5770 C.3       6 GLP5        0.0000 
     84 CA         16.0757   -5.8173  -16.4973 C.3       3 GLC5        0.0000 
     85 CA         24.0750    0.0612  -19.9360 C.3       3 GLC5        0.0000 
     86 CA         25.1460    1.5710  -18.9240 C.3       6 GLP5        0.0000 
     87 CA         23.1359    0.4444  -23.6279 C.3       3 GLC5        0.0000 
     88 CA         20.1172   -7.2219  -14.4114 C.3       3 GLC5        0.0000 
     89 CA         17.8650   -7.3670  -14.4560 C.3       9 GLL5        0.0000 
     90 CA         22.0530   -7.7010  -14.9600 C.3       6 GLP5        0.0000 
@<TRIPOS>BOND
@<TRIPOS>SUBSTRUCTURE
     1 ALC1       61 GROUP        1 X    ALC  0     ROOT ALC X 1
     2 SEC2       28 GROUP        1 X    SEC  0     **** SEC X 2
     3 GLC5        1 GROUP        1 X    GLC  0     **** GLC X 6
     4 ALP1       63 GROUP        1 Y    ALP  0     ROOT ALP Y 8
     5 SEP2       30 GROUP        1 Y    SEP  0     **** SEP Y 9
     6 GLP5        3 GROUP        1 Y    GLP  0     **** GLP Y 13
     7 ALL1       62 GROUP        1 Z    ALL  0     ROOT ALL Z 15
     8 SEL2       29 GROUP        1 Z    SEL  0     **** SEL Z 16
     9 GLL5        2 GROUP        1 Z    GLL  0     **** GLL Z 20
@<TRIPOS>SET

