#    Name: 3lfe_Z84_1_ligand
#    Modification time : Mon Mar 24 21:35:45 2014

@<TRIPOS>MOLECULE
3lfe_Z84_1_ligand
   65    68     1     0     0
SMALL
NO_CHARGES


@<TRIPOS>ATOM
      1 CAA        20.1010   -7.1730  -10.7180 C.3       1 Z84361      0.0000 
      2 CAB        13.9990   -7.7060  -18.8200 C.3       1 Z84361      0.0000 
      3 CAC        15.2360   -9.8580  -18.4670 C.3       1 Z84361      0.0000 
      4 CAD        13.5700   -9.1460  -16.8120 C.3       1 Z84361      0.0000 
      5 OAE        18.1050   -4.8500  -18.6090 O.2       1 Z84361      0.0000 
      6 CAF        20.2850    1.7900  -25.4600 C.ar      1 Z84361      0.0000 
      7 CAG        19.8160   -0.3660  -24.7340 C.ar      1 Z84361      0.0000 
      8 CAH        21.0580    2.0400  -24.3150 C.ar      1 Z84361      0.0000 
      9 CAI        20.5720   -0.1820  -23.5670 C.ar      1 Z84361      0.0000 
     10 CAJ        19.0540   -8.4870  -12.6440 C.ar      1 Z84361      0.0000 
     11 CAK        18.8510   -6.0940  -12.6640 C.ar      1 Z84361      0.0000 
     12 CAL        18.3380   -8.5390  -13.8480 C.ar      1 Z84361      0.0000 
     13 CAM        18.1450   -6.1430  -13.8750 C.ar      1 Z84361      0.0000 
     14 CAN        20.6310   -1.7110  -19.9220 C.2       1 Z84361      0.0000 
     15 CAO        16.7340   -7.1950  -17.7160 C.2       1 Z84361      0.0000 
     16 CAP        22.9090   -0.9070  -21.4930 C.3       1 Z84361      0.0000 
     17 CAQ        23.0990   -1.9900  -20.4030 C.3       1 Z84361      0.0000 
     18 CAR        21.9960    1.2980  -22.1840 C.3       1 Z84361      0.0000 
     19 NAS        19.6940    0.6070  -25.6330 N.ar      1 Z84361      0.0000 
     20 NAT        21.6660   -3.4160  -18.8500 N.2       1 Z84361      0.0000 
     21 NAU        16.1790   -8.1030  -15.8250 N.2       1 Z84361      0.0000 
     22 NAV        18.6730   -6.1110  -16.8230 N.am      1 Z84361      0.0000 
     23 NAW        20.0570   -4.5210  -17.5110 N.am      1 Z84361      0.0000 
     24 OAX        22.2400    0.3310  -21.0950 O.3       1 Z84361      0.0000 
     25 SAY        19.3930   -2.4100  -18.9970 S.3       1 Z84361      0.0000 
     26 CAZ        18.9030   -5.1530  -17.7110 C.2       1 Z84361      0.0000 
     27 CBA        19.3180   -7.2580  -12.0440 C.ar      1 Z84361      0.0000 
     28 CBB        21.2130    1.0430  -23.3410 C.ar      1 Z84361      0.0000 
     29 CBC        21.7840   -2.3820  -19.7180 C.2       1 Z84361      0.0000 
     30 CBD        17.8650   -7.3670  -14.4560 C.ar      1 Z84361      0.0000 
     31 CBE        17.5890   -6.8760  -16.7510 C.2       1 Z84361      0.0000 
     32 CBF        15.8340   -7.9560  -17.0960 C.2       1 Z84361      0.0000 
     33 CBG        20.4290   -3.5730  -18.3480 C.2       1 Z84361      0.0000 
     34 NBH        17.2010   -7.4560  -15.6210 N.pl3     1 Z84361      0.0000 
     35 CBI        14.6250   -8.6420  -17.7770 C.3       1 Z84361      0.0000 
     36 H          20.1916    2.5528  -26.1600 H         1 Z84361      0.0000 
     37 H          19.3541   -1.2924  -24.8701 H         1 Z84361      0.0000 
     38 H          21.5088    2.9515  -24.1915 H         1 Z84361      0.0000 
     39 H          20.6545   -0.9390  -22.8847 H         1 Z84361      0.0000 
     40 H          19.3817   -9.3559  -12.2081 H         1 Z84361      0.0000 
     41 H          19.0296   -5.1760  -12.2206 H         1 Z84361      0.0000 
     42 H          18.1565   -9.4510  -14.2929 H         1 Z84361      0.0000 
     43 H          17.8416   -5.2710  -14.3208 H         1 Z84361      0.0000 
     44 H          20.3676   -0.9879  -20.4279 H         1 Z84361      0.0000 
     45 H          16.7568   -6.9436  -18.6247 H         1 Z84361      0.0000 
     46 H          22.3590   -1.3909  -22.3432 H         1 Z84361      0.0000 
     47 H          23.9254   -0.6829  -21.9127 H         1 Z84361      0.0000 
     48 H          23.7985   -1.6113  -19.6511 H         1 Z84361      0.0000 
     49 H          23.5437   -2.8773  -20.8645 H         1 Z84361      0.0000 
     50 H          23.0464    1.6897  -22.5227 H         1 Z84361      0.0000 
     51 H          21.6049    2.2784  -21.6769 H         1 Z84361      0.0000 
     52 H          19.4511   -6.2894  -16.0767 H         1 Z84361      0.0000 
     53 H          20.6593   -4.7785  -16.6952 H         1 Z84361      0.0000 
     54 H          21.0164   -7.5669  -10.8013 H         1 Z84361      0.0000 
     55 H          20.2154   -6.2271  -10.4142 H         1 Z84361      0.0000 
     56 H          19.6368   -7.6636   -9.9805 H         1 Z84361      0.0000 
     57 H          14.6750   -7.3829  -19.4823 H         1 Z84361      0.0000 
     58 H          13.2742   -8.1596  -19.3385 H         1 Z84361      0.0000 
     59 H          13.5934   -6.8961  -18.3963 H         1 Z84361      0.0000 
     60 H          15.9521   -9.5969  -19.1143 H         1 Z84361      0.0000 
     61 H          15.6501  -10.4885  -17.8105 H         1 Z84361      0.0000 
     62 H          14.5520  -10.3766  -18.9800 H         1 Z84361      0.0000 
     63 H          13.9591   -9.7562  -16.1219 H         1 Z84361      0.0000 
     64 H          13.1255   -8.3957  -16.3227 H         1 Z84361      0.0000 
     65 H          12.8501   -9.6565  -17.2822 H         1 Z84361      0.0000 
@<TRIPOS>BOND
     1   27    1 1    
     2   54    1 1    
     3   55    1 1    
     4   56    1 1    
     5   35    2 1    
     6   57    2 1    
     7   58    2 1    
     8   59    2 1    
     9   35    3 1    
    10   60    3 1    
    11   61    3 1    
    12   62    3 1    
    13   35    4 1    
    14   63    4 1    
    15   64    4 1    
    16   65    4 1    
    17   26    5 2    
    18    8    6 ar   
    19   19    6 ar   
    20   36    6 1    
    21    9    7 ar   
    22   19    7 ar   
    23   37    7 1    
    24   28    8 ar   
    25   38    8 1    
    26   28    9 ar   
    27   39    9 1    
    28   12   10 ar   
    29   27   10 ar   
    30   40   10 1    
    31   13   11 ar   
    32   27   11 ar   
    33   41   11 1    
    34   30   12 ar   
    35   42   12 1    
    36   30   13 ar   
    37   43   13 1    
    38   25   14 1    
    39   29   14 2    
    40   44   14 1    
    41   31   15 2    
    42   32   15 1    
    43   45   15 1    
    44   17   16 1    
    45   24   16 1    
    46   46   16 1    
    47   47   16 1    
    48   29   17 1    
    49   48   17 1    
    50   49   17 1    
    51   24   18 1    
    52   28   18 1    
    53   50   18 1    
    54   51   18 1    
    55   29   20 1    
    56   33   20 2    
    57   32   21 2    
    58   34   21 1    
    59   26   22 am   
    60   31   22 1    
    61   52   22 1    
    62   26   23 am   
    63   33   23 1    
    64   53   23 1    
    65   33   25 1    
    66   34   30 1    
    67   34   31 1    
    68   35   32 1    
@<TRIPOS>SUBSTRUCTURE
     1 Z84361      1 GROUP   
@<TRIPOS>SET

