#    Name: 3t54_ATP_1_INTS_M
#    Modification time : Mon Mar 24 19:06:57 2014

@<TRIPOS>MOLECULE
3t54_ATP_1_INTS_M
   67     0    12     0     0
SMALL
NO_CHARGES


@<TRIPOS>ATOM
      1 NZ          4.3935   15.0100    8.1180 N.4       3 LYC4        0.0000 
      2 NZ          3.6620   13.8170    8.4080 N.4      11 LYL4        0.0000 
      3 NZ          5.1250   16.2030    7.8280 N.4       7 LYP4        0.0000 
      4 N           4.3935   15.0100    8.1180 N.am      2 SEC2        0.0000 
      5 N           3.6620   13.8170    8.4080 N.am     10 SEL2        0.0000 
      6 N           5.1250   16.2030    7.8280 N.am      6 SEP2        0.0000 
      7 N           0.9500   15.2655   10.9975 N.am      2 SEC2        0.0000 
      8 N           2.2870   14.4350   10.4530 N.am     10 SEL2        0.0000 
      9 N          -0.3870   16.0960   11.5420 N.am      6 SEP2        0.0000 
     10 N           0.1685    9.0415   10.5300 N.am      2 SEC2        0.0000 
     11 N           1.1600   10.2610   11.0770 N.am     10 SEL2        0.0000 
     12 N          -0.8230    7.8220    9.9830 N.am      6 SEP2        0.0000 
     13 N           0.1520   11.1640   11.3725 N.am      2 SEC2        0.0000 
     14 N          -0.8560   12.0670   11.6680 N.am      6 SEP2        0.0000 
     15 NZ          0.7520    9.1075    8.2495 N.4       3 LYC4        0.0000 
     16 NZ          1.2390   10.5060    8.5470 N.4      11 LYL4        0.0000 
     17 NZ         -0.5830    7.1890    8.8440 N.4       7 LYP4        0.0000 
     18 N           0.7520    9.1075    8.2495 N.am      2 SEC2        0.0000 
     19 N           1.2390   10.5060    8.5470 N.am     10 SEL2        0.0000 
     20 N           0.2650    7.7090    7.9520 N.am      6 SEP2        0.0000 
     21 NZ          4.2040    6.7100    7.4455 N.4       3 LYC4        0.0000 
     22 NZ          3.9170    8.0370    7.9640 N.4      11 LYL4        0.0000 
     23 NZ          4.4910    5.3830    6.9270 N.4       7 LYP4        0.0000 
     24 N           4.2040    6.7100    7.4455 N.am      2 SEC2        0.0000 
     25 N           3.9170    8.0370    7.9640 N.am     10 SEL2        0.0000 
     26 N           4.4910    5.3830    6.9270 N.am      6 SEP2        0.0000 
     27 CA          8.1480   10.5250   12.7700 C.3       4 GLC5        0.0000 
     28 CA          7.2970    9.2750   11.1770 C.3      12 GLL5        0.0000 
     29 CA          8.9990   11.7750   14.3630 C.3       8 GLP5        0.0000 
     30 O           9.4385   11.6310   10.0020 O.2       1 ALC1        0.0000 
     31 O           8.0870   11.0540    9.7450 O.2       9 ALL1        0.0000 
     32 O          10.7900   12.2080   10.2590 O.2       5 ALP1        0.0000 
     33 CA         10.4805    8.7800    8.1925 C.3       4 GLC5        0.0000 
     34 CA          9.3220    8.9890   10.0080 C.3      12 GLL5        0.0000 
     35 CA         11.6390    8.5710    6.3770 C.3       8 GLP5        0.0000 
     36 N          11.4375    9.8450   11.6935 N.am      2 SEC2        0.0000 
     37 N          10.2100    9.7140   10.8980 N.am     10 SEL2        0.0000 
     38 N          12.6650    9.9760   12.4890 N.am      6 SEP2        0.0000 
     39 O          10.5000   10.9610   10.5785 O.2       1 ALC1        0.0000 
     40 O          10.2100    9.7140   10.8980 O.2       9 ALL1        0.0000 
     41 CA          7.9095    8.0685   12.6260 C.3       4 GLC5        0.0000 
     42 CA          8.9360    7.6830   10.6850 C.3      12 GLL5        0.0000 
     43 CA          6.8830    8.4540   14.5670 C.3       8 GLP5        0.0000 
     44 CA         10.9310    2.1400    8.4675 C.3       4 GLC5        0.0000 
     45 CA          9.8340    3.8400    7.8700 C.3      12 GLL5        0.0000 
     46 CA         12.0280    0.4400    9.0650 C.3       8 GLP5        0.0000 
     47 CA         11.1830    3.2865    6.3140 C.3       4 GLC5        0.0000 
     48 CA         12.5320    2.7330    4.7580 C.3       8 GLP5        0.0000 
     49 O           7.9735    2.9435    6.8460 O.2       1 ALC1        0.0000 
     50 O           9.2960    2.9210    7.0750 O.2       9 ALL1        0.0000 
     51 O           6.6510    2.9660    6.6170 O.2       5 ALP1        0.0000 
     52 O           9.7610    1.5360    7.0255 O.2       1 ALC1        0.0000 
     53 O          10.2260    0.1510    6.9760 O.2       5 ALP1        0.0000 
     54 N          12.1610    2.8915    7.8705 N.am      2 SEC2        0.0000 
     55 N          11.1470    3.8050    8.1760 N.am     10 SEL2        0.0000 
     56 N          13.1750    1.9780    7.5650 N.am      6 SEP2        0.0000 
     57 CA         11.8665    2.5815    9.0125 C.3       4 GLC5        0.0000 
     58 CA         11.7050    4.7230    8.9600 C.3      12 GLL5        0.0000 
     59 CA         12.9775    3.5855    7.8300 C.3       4 GLC5        0.0000 
     60 CA         14.2500    2.4480    6.7000 C.3       8 GLP5        0.0000 
     61 CA         11.2485    5.5295    7.2820 C.3       4 GLC5        0.0000 
     62 CA         10.7920    6.3360    5.6040 C.3       8 GLP5        0.0000 
     63 CA          6.7088    8.8693   12.8562 C.3       4 GLC5        0.0000 
     64 CA          9.0430    3.4889    9.7647 C.3       4 GLC5        0.0000 
     65 CA          9.0460    4.8430    8.4040 C.3      12 GLL5        0.0000 
     66 CA          8.5380    1.9190   10.8390 C.3       8 GLP5        0.0000 
     67 CA         10.1700    5.6974    7.1472 C.3       4 GLC5        0.0000 
@<TRIPOS>BOND
@<TRIPOS>SUBSTRUCTURE
     1 ALC1       30 GROUP        1 X    ALC  0     ROOT ALC X 1
     2 SEC2        4 GROUP        1 X    SEC  0     **** SEC X 2
     3 LYC4        1 GROUP        1 X    LYC  0     **** LYC X 4
     4 GLC5       27 GROUP        1 X    GLC  0     **** GLC X 6
     5 ALP1       32 GROUP        1 Y    ALP  0     ROOT ALP Y 8
     6 SEP2        6 GROUP        1 Y    SEP  0     **** SEP Y 9
     7 LYP4        3 GROUP        1 Y    LYP  0     **** LYP Y 11
     8 GLP5       29 GROUP        1 Y    GLP  0     **** GLP Y 13
     9 ALL1       31 GROUP        1 Z    ALL  0     ROOT ALL Z 15
    10 SEL2        5 GROUP        1 Z    SEL  0     **** SEL Z 16
    11 LYL4        2 GROUP        1 Z    LYL  0     **** LYL Z 18
    12 GLL5       28 GROUP        1 Z    GLL  0     **** GLL Z 20
@<TRIPOS>SET

