#    Name: 3t54_ATP_1_ligand
#    Modification time : Mon Mar 24 19:06:57 2014

@<TRIPOS>MOLECULE
3t54_ATP_1_ligand
   43    45     1     0     0
SMALL
NO_CHARGES


@<TRIPOS>ATOM
      1 PG          2.4290   13.4300    9.3680 P.3       1 ATP401      0.0000 
      2 O1G         3.6620   13.8170    8.4080 O.co2     1 ATP401      0.0000 
      3 O2G         2.2870   14.4350   10.4530 O.co2     1 ATP401      0.0000 
      4 O3G         1.0630   13.3570    8.5060 O.co2     1 ATP401      0.0000 
      5 PB          1.9370   10.5570    9.8560 P.3       1 ATP401      0.0000 
      6 O1B         1.1600   10.2610   11.0770 O.co2     1 ATP401      0.0000 
      7 O2B         1.2390   10.5060    8.5470 O.co2     1 ATP401      0.0000 
      8 O3B         2.7740   11.9140   10.0290 O.3       1 ATP401      0.0000 
      9 PA          4.2930    9.0500    8.9540 P.3       1 ATP401      0.0000 
     10 O1A         3.9170    8.0370    7.9640 O.co2     1 ATP401      0.0000 
     11 O2A         4.8870   10.3230    8.5150 O.co2     1 ATP401      0.0000 
     12 O3A         3.0220    9.3420    9.9170 O.3       1 ATP401      0.0000 
     13 O5'         5.2580    8.4480   10.0450 O.3       1 ATP401      0.0000 
     14 C5'         5.7720    9.2940   11.1140 C.3       1 ATP401      0.0000 
     15 C4'         7.2970    9.2750   11.1770 C.3       1 ATP401      0.0000 
     16 O4'         7.6750    7.8960   11.3640 O.3       1 ATP401      0.0000 
     17 C3'         7.9570    9.6550    9.8540 C.3       1 ATP401      0.0000 
     18 O3'         8.0870   11.0540    9.7450 O.3       1 ATP401      0.0000 
     19 C2'         9.3220    8.9890   10.0080 C.3       1 ATP401      0.0000 
     20 O2'        10.2100    9.7140   10.8980 O.3       1 ATP401      0.0000 
     21 C1'         8.9360    7.6830   10.6850 C.3       1 ATP401      0.0000 
     22 N9          8.7370    6.6270    9.6680 N.pl3     1 ATP401      0.0000 
     23 C8          7.4600    6.3370    9.0140 C.2       1 ATP401      0.0000 
     24 N7          7.7440    5.0980    8.3050 N.2       1 ATP401      0.0000 
     25 C5          9.0460    4.8430    8.4040 C.ar      1 ATP401      0.0000 
     26 C6          9.8340    3.8400    7.8700 C.ar      1 ATP401      0.0000 
     27 N6          9.2960    2.9210    7.0750 N.pl3     1 ATP401      0.0000 
     28 N1         11.1470    3.8050    8.1760 N.ar      1 ATP401      0.0000 
     29 C2         11.7050    4.7230    8.9600 C.ar      1 ATP401      0.0000 
     30 N3         10.9810    5.6910    9.5100 N.ar      1 ATP401      0.0000 
     31 C4          9.6560    5.7760    9.2440 C.ar      1 ATP401      0.0000 
     32 H           5.3862    8.9653   12.0929 H         1 ATP401      0.0000 
     33 H           5.4495   10.3390   10.9754 H         1 ATP401      0.0000 
     34 H           7.6518    9.8758   11.9495 H         1 ATP401      0.0000 
     35 H           7.4407    9.1834    9.0766 H         1 ATP401      0.0000 
     36 H           9.7198    8.7764    9.0725 H         1 ATP401      0.0000 
     37 H           9.6964    7.4064   11.3690 H         1 ATP401      0.0000 
     38 H           6.7094    6.8003    9.0450 H         1 ATP401      0.0000 
     39 H           8.4914    3.2062    6.5543 H         1 ATP401      0.0000 
     40 H           9.7444    2.0272    7.0693 H         1 ATP401      0.0000 
     41 H          12.7443    4.6807    9.1484 H         1 ATP401      0.0000 
     42 H           9.0261   11.2494   10.0276 H         1 ATP401      0.0000 
     43 H          10.3237   10.6127   10.4743 H         1 ATP401      0.0000 
@<TRIPOS>BOND
     1    2    1 ar   
     2    3    1 ar   
     3    4    1 ar   
     4    8    1 1    
     5    6    5 ar   
     6    7    5 ar   
     7    8    5 1    
     8   12    5 1    
     9   10    9 ar   
    10   11    9 ar   
    11   12    9 1    
    12   13    9 1    
    13   14   13 1    
    14   15   14 1    
    15   32   14 1    
    16   33   14 1    
    17   16   15 1    
    18   17   15 1    
    19   34   15 1    
    20   21   16 1    
    21   18   17 1    
    22   19   17 1    
    23   35   17 1    
    24   42   18 1    
    25   20   19 1    
    26   21   19 1    
    27   36   19 1    
    28   43   20 1    
    29   22   21 1    
    30   37   21 1    
    31   23   22 1    
    32   31   22 1    
    33   24   23 2    
    34   38   23 1    
    35   25   24 1    
    36   26   25 ar   
    37   31   25 ar   
    38   27   26 1    
    39   28   26 ar   
    40   39   27 1    
    41   40   27 1    
    42   29   28 ar   
    43   30   29 ar   
    44   41   29 1    
    45   31   30 ar   
@<TRIPOS>SUBSTRUCTURE
     1 ATP401      1 GROUP   
@<TRIPOS>SET

