#    Name: 3F0R_5_CAVITY_N1_ALL.mol2
#    Modification time : Mon Mar 10 15:12:35 2014

@<TRIPOS>MOLECULE
3F0R_5_CAVITY_N1_ALL.mol2
   61     0     5     0     0
SMALL
NO_CHARGES


@<TRIPOS>ATOM
      1 CA         55.0864  -21.3835   54.4311 C.3       4 GLY6        0.0000 
      2 CA         53.7259  -20.8183   54.1490 C.3       4 GLY6        0.0000 
      3 CZ         52.3654  -20.2531   53.8670 C.ar      3 PHE5        0.0000 
      4 CZ         55.3293  -21.5339   52.9586 C.ar      3 PHE5        0.0000 
      5 DU         53.9687  -20.9687   52.6765 H         5 CUB7        0.0000 
      6 CZ         52.6082  -20.4035   52.3944 C.ar      3 PHE5        0.0000 
      7 CZ         51.2477  -19.8383   52.1124 C.ar      3 PHE5        0.0000 
      8 CZ         49.8872  -19.2731   51.8303 C.ar      3 PHE5        0.0000 
      9 CZ         48.5267  -18.7079   51.5482 C.ar      3 PHE5        0.0000 
     10 CA         55.5721  -21.6843   51.4860 C.3       4 GLY6        0.0000 
     11 DU         54.2116  -21.1191   51.2039 H         5 CUB7        0.0000 
     12 CA         52.8510  -20.5539   50.9219 C.3       4 GLY6        0.0000 
     13 CA         51.4905  -19.9887   50.6398 C.3       4 GLY6        0.0000 
     14 CA         50.1300  -19.4235   50.3577 C.3       4 GLY6        0.0000 
     15 CA         55.8149  -21.8347   50.0134 C.3       4 GLY6        0.0000 
     16 CA         54.4544  -21.2695   49.7314 C.3       4 GLY6        0.0000 
     17 CA         53.0939  -20.7043   49.4493 C.3       4 GLY6        0.0000 
     18 CA         55.6696  -20.0022   54.3862 C.3       4 GLY6        0.0000 
     19 CA         54.3091  -19.4370   54.1041 C.3       4 GLY6        0.0000 
     20 CA         52.9486  -18.8718   53.8221 C.3       4 GLY6        0.0000 
     21 CZ         55.9124  -20.1526   52.9136 C.ar      3 PHE5        0.0000 
     22 DU         54.5519  -19.5874   52.6316 H         5 CUB7        0.0000 
     23 DU         53.1914  -19.0222   52.3495 H         5 CUB7        0.0000 
     24 CZ         51.8309  -18.4570   52.0674 C.ar      3 PHE5        0.0000 
     25 CZ         49.1099  -17.3266   51.5033 C.ar      3 PHE5        0.0000 
     26 DU         54.7947  -19.7378   51.1590 H         5 CUB7        0.0000 
     27 DU         53.4342  -19.1726   50.8769 H         5 CUB7        0.0000 
     28 DU         52.0737  -18.6074   50.5949 H         5 CUB7        0.0000 
     29 DU         55.0375  -19.8882   49.6865 H         5 CUB7        0.0000 
     30 CA         53.6770  -19.3230   49.4044 C.3       4 GLY6        0.0000 
     31 N          50.0328  -25.7782   54.0467 N.2       2 ALA2        0.0000 
     32 CA         51.9765  -24.9621   54.2838 C.3       4 GLY6        0.0000 
     33 N          50.6160  -24.3969   54.0018 N.2       2 ALA2        0.0000 
     34 CA         52.2193  -25.1125   52.8113 C.3       4 GLY6        0.0000 
     35 OG         50.8588  -24.5473   52.5292 O.2       1 SER1        0.0000 
     36 CZ         56.0577  -21.9851   48.5409 C.ar      3 PHE5        0.0000 
     37 CA         54.6972  -21.4199   48.2588 C.3       4 GLY6        0.0000 
     38 CZ         56.3005  -22.1355   47.0683 C.ar      3 PHE5        0.0000 
     39 CA         53.1428  -22.1996   54.1940 C.3       4 GLY6        0.0000 
     40 CZ         51.7823  -21.6343   53.9119 C.ar      3 PHE5        0.0000 
     41 CZ         53.3856  -22.3500   52.7214 C.ar      3 PHE5        0.0000 
     42 CZ         52.0251  -21.7848   52.4394 C.ar      3 PHE5        0.0000 
     43 CZ         50.6646  -21.2195   52.1573 C.ar      3 PHE5        0.0000 
     44 CZ         49.3041  -20.6543   51.8752 C.ar      3 PHE5        0.0000 
     45 N          53.6284  -22.5004   51.2489 N.2       2 ALA2        0.0000 
     46 CA         52.2679  -21.9352   50.9668 C.3       4 GLY6        0.0000 
     47 CA         50.9074  -21.3700   50.6847 C.3       4 GLY6        0.0000 
     48 CA         49.5469  -20.8047   50.4027 C.3       4 GLY6        0.0000 
     49 CA         55.2317  -23.2160   50.0584 C.3       4 GLY6        0.0000 
     50 N          53.8712  -22.6508   49.7763 N.2       2 ALA2        0.0000 
     51 CA         52.5107  -22.0856   49.4942 C.3       4 GLY6        0.0000 
     52 CZ         55.4745  -23.3664   48.5858 C.ar      3 PHE5        0.0000 
     53 CA         54.1140  -22.8012   48.3038 C.3       4 GLY6        0.0000 
     54 CA         52.5596  -23.5808   54.2389 C.3       4 GLY6        0.0000 
     55 CZ         51.1991  -23.0156   53.9568 C.ar      3 PHE5        0.0000 
     56 CZ         52.8025  -23.7312   52.7663 C.ar      3 PHE5        0.0000 
     57 OG         51.4419  -23.1660   52.4843 O.2       1 SER1        0.0000 
     58 N          51.6848  -23.3164   51.0117 N.2       2 ALA2        0.0000 
     59 CZ         50.3242  -22.7512   50.7297 C.ar      3 PHE5        0.0000 
     60 CA         54.8922  -18.0557   54.0592 C.3       4 GLY6        0.0000 
     61 CZ         52.4140  -17.0757   52.0225 C.ar      3 PHE5        0.0000 
@<TRIPOS>BOND
@<TRIPOS>SUBSTRUCTURE
     1 SER1       35 GROUP   
     2 ALA2       31 GROUP   
     3 PHE5        3 GROUP   
     4 GLY6        1 GROUP   
     5 CUB7        5 GROUP   
@<TRIPOS>SET

