#    Name: 3f0r_TSN_5_INTS_M
#    Modification time : Tue Mar 25 03:02:06 2014

@<TRIPOS>MOLECULE
3f0r_TSN_5_INTS_M
   41     0     9     0     0
SMALL
NO_CHARGES


@<TRIPOS>ATOM
      1 Zn         49.7145  -27.6710   51.5980 Zn        2 ZIC7        0.0000 
      2 Zn         49.5420  -27.6840   52.8330 Zn        8 ZIL7        0.0000 
      3 Zn         49.8870  -27.6580   50.3630 Zn        5 ZIP7        0.0000 
      4 N          50.0610  -29.0405   53.3070 N.am      1 SEC2        0.0000 
      5 N          49.5420  -27.6840   52.8330 N.am      7 SEL2        0.0000 
      6 N          50.5800  -30.3970   53.7810 N.am      4 SEP2        0.0000 
      7 Zn         49.9055  -26.6035   50.7850 Zn        2 ZIC7        0.0000 
      8 Zn         49.9240  -25.5490   51.2070 Zn        8 ZIL7        0.0000 
      9 N          48.9955  -24.7355   51.5505 N.am      1 SEC2        0.0000 
     10 N          49.9240  -25.5490   51.2070 N.am      7 SEL2        0.0000 
     11 N          48.0670  -23.9220   51.8940 N.am      4 SEP2        0.0000 
     12 CA         51.7505  -21.1310   49.5195 C.3       3 GLC5        0.0000 
     13 CA         52.5010  -21.0810   51.4090 C.3       9 GLL5        0.0000 
     14 CA         51.0000  -21.1810   47.6300 C.3       6 GLP5        0.0000 
     15 CA         51.6225  -25.9610   54.2200 C.3       3 GLC5        0.0000 
     16 CA         51.2960  -24.3460   52.7410 C.3       9 GLL5        0.0000 
     17 CA         51.9490  -27.5760   55.6990 C.3       6 GLP5        0.0000 
     18 CA         51.6865  -23.9700   54.8930 C.3       3 GLC5        0.0000 
     19 CA         52.0770  -23.5940   57.0450 C.3       6 GLP5        0.0000 
     20 CA         53.1225  -25.0365   53.6925 C.3       3 GLC5        0.0000 
     21 CA         54.9490  -25.7270   54.6440 C.3       6 GLP5        0.0000 
     22 CA         53.6935  -20.8705   55.1900 C.3       3 GLC5        0.0000 
     23 CA         53.0400  -22.0170   53.7100 C.3       9 GLL5        0.0000 
     24 CA         54.3470  -19.7240   56.6700 C.3       6 GLP5        0.0000 
     25 CA         52.5585  -22.8055   55.3775 C.3       3 GLC5        0.0000 
     26 CA         54.7650  -23.2165   53.5135 C.3       3 GLC5        0.0000 
     27 CA         56.4900  -24.4160   53.3170 C.3       6 GLP5        0.0000 
     28 CA         47.7665  -13.8380   55.8735 C.3       3 GLC5        0.0000 
     29 CA         48.9290  -14.4280   54.5680 C.3       9 GLL5        0.0000 
     30 CA         46.6040  -13.2480   57.1790 C.3       6 GLP5        0.0000 
     31 CA         50.7415  -13.6890   54.5725 C.3       3 GLC5        0.0000 
     32 CA         52.5540  -12.9500   54.5770 C.3       6 GLP5        0.0000 
     33 CA         50.3242  -22.5207   53.7910 C.3       3 GLC5        0.0000 
     34 CA         51.5250  -23.2530   51.9370 C.3       9 GLL5        0.0000 
     35 CA         49.2380  -21.2420   55.2430 C.3       6 GLP5        0.0000 
     36 CA         52.4537  -25.0192   51.2830 C.3       3 GLC5        0.0000 
     37 CA         53.4970  -26.2390   50.2270 C.3       6 GLP5        0.0000 
     38 CA         49.4368  -23.5568   51.5780 C.3       3 GLC5        0.0000 
     39 CA         47.4630  -23.3140   50.8170 C.3       6 GLP5        0.0000 
     40 CA         51.1330  -20.9565   53.6442 C.3       3 GLC5        0.0000 
     41 CA         49.5300  -20.1140   54.4980 C.3       6 GLP5        0.0000 
@<TRIPOS>BOND
@<TRIPOS>SUBSTRUCTURE
     1 SEC2        4 GROUP        1 X    SEC  0     ROOT SEC X 2
     2 ZIC7        1 GROUP        1 X    ZIC  0     **** ZIC X 5
     3 GLC5       12 GROUP        1 X    GLC  0     **** GLC X 6
     4 SEP2        6 GROUP        1 Y    SEP  0     ROOT SEP Y 9
     5 ZIP7        3 GROUP        1 Y    ZIP  0     **** ZIP Y 12
     6 GLP5       14 GROUP        1 Y    GLP  0     **** GLP Y 13
     7 SEL2        5 GROUP        1 Z    SEL  0     ROOT SEL Z 16
     8 ZIL7        2 GROUP        1 Z    ZIL  0     **** ZIL Z 19
     9 GLL5       13 GROUP        1 Z    GLL  0     **** GLL Z 20
@<TRIPOS>SET

