#    Name: 3f0r_TSN_5_ligand
#    Modification time : Tue Mar 25 03:02:06 2014

@<TRIPOS>MOLECULE
3f0r_TSN_5_ligand
   43    43     1     0     0
SMALL
NO_CHARGES


@<TRIPOS>ATOM
      1 O1         49.5420  -27.6840   52.8330 O.3       1 TSN802      0.0000 
      2 O2         49.9240  -25.5490   51.2070 O.2       1 TSN802      0.0000 
      3 O3         52.9340  -18.5840   49.5430 O.2       1 TSN802      0.0000 
      4 N1         50.3130  -26.5470   53.1810 N.am      1 TSN802      0.0000 
      5 N2         49.2640  -14.4410   53.1190 N.pl3     1 TSN802      0.0000 
      6 C1         51.8300  -17.5570   51.3900 C.ar      1 TSN802      0.0000 
      7 C2         51.2700  -16.4860   50.5600 C.ar      1 TSN802      0.0000 
      8 C3         50.4430  -15.4780   51.1130 C.ar      1 TSN802      0.0000 
      9 C4         50.1220  -15.4730   52.5390 C.ar      1 TSN802      0.0000 
     10 C5         50.6890  -16.5400   53.3690 C.ar      1 TSN802      0.0000 
     11 C6         51.5150  -17.5520   52.8170 C.ar      1 TSN802      0.0000 
     12 C7         52.7060  -18.6310   50.7580 C.2       1 TSN802      0.0000 
     13 C8         53.3190  -19.7910   51.5890 C.3       1 TSN802      0.0000 
     14 C9         52.5010  -21.0810   51.4090 C.2       1 TSN802      0.0000 
     15 C10        52.3630  -22.0810   52.3330 C.2       1 TSN802      0.0000 
     16 C11        51.5250  -23.2530   51.9370 C.2       1 TSN802      0.0000 
     17 C12        51.2960  -24.3460   52.7410 C.2       1 TSN802      0.0000 
     18 C13        50.4650  -25.5080   52.3170 C.2       1 TSN802      0.0000 
     19 C14        54.7800  -20.0600   51.1500 C.3       1 TSN802      0.0000 
     20 C15        53.0400  -22.0170   53.7100 C.3       1 TSN802      0.0000 
     21 C17        48.6800  -13.3550   52.2890 C.3       1 TSN802      0.0000 
     22 C16        48.9290  -14.4280   54.5680 C.3       1 TSN802      0.0000 
     23 H          50.7594  -26.5308   54.1175 H         1 TSN802      0.0000 
     24 H          51.4939  -16.4854   49.5625 H         1 TSN802      0.0000 
     25 H          50.0581  -14.7399   50.5271 H         1 TSN802      0.0000 
     26 H          50.4716  -16.5368   54.3688 H         1 TSN802      0.0000 
     27 H          51.9000  -18.2876   53.4025 H         1 TSN802      0.0000 
     28 H          53.3176  -19.5181   52.6240 H         1 TSN802      0.0000 
     29 H          52.0288  -21.1396   50.4682 H         1 TSN802      0.0000 
     30 H          51.1075  -23.1941   50.9808 H         1 TSN802      0.0000 
     31 H          51.7000  -24.4086   53.6949 H         1 TSN802      0.0000 
     32 H          55.3601  -19.2554   51.2770 H         1 TSN802      0.0000 
     33 H          55.1938  -20.8051   51.6731 H         1 TSN802      0.0000 
     34 H          54.8370  -20.3130   50.1842 H         1 TSN802      0.0000 
     35 H          54.0351  -21.9563   53.6321 H         1 TSN802      0.0000 
     36 H          52.7381  -21.2217   54.2357 H         1 TSN802      0.0000 
     37 H          52.8379  -22.8265   54.2612 H         1 TSN802      0.0000 
     38 H          49.3877  -12.8047   51.8460 H         1 TSN802      0.0000 
     39 H          48.0931  -13.7161   51.5644 H         1 TSN802      0.0000 
     40 H          48.1215  -12.7301   52.8345 H         1 TSN802      0.0000 
     41 H          49.7471  -14.3494   55.1376 H         1 TSN802      0.0000 
     42 H          48.3325  -13.6610   54.8044 H         1 TSN802      0.0000 
     43 H          48.4564  -15.2638   54.8474 H         1 TSN802      0.0000 
@<TRIPOS>BOND
     1    4    1 1    
     2   18    2 2    
     3   12    3 2    
     4   18    4 am   
     5   23    4 1    
     6    9    5 1    
     7   21    5 1    
     8   22    5 1    
     9    7    6 ar   
    10   11    6 ar   
    11   12    6 1    
    12    8    7 ar   
    13   24    7 1    
    14    9    8 ar   
    15   25    8 1    
    16   10    9 ar   
    17   11   10 ar   
    18   26   10 1    
    19   27   11 1    
    20   13   12 1    
    21   14   13 1    
    22   19   13 1    
    23   28   13 1    
    24   15   14 2    
    25   29   14 1    
    26   16   15 1    
    27   20   15 1    
    28   17   16 2    
    29   30   16 1    
    30   18   17 1    
    31   31   17 1    
    32   32   19 1    
    33   33   19 1    
    34   34   19 1    
    35   35   20 1    
    36   36   20 1    
    37   37   20 1    
    38   38   21 1    
    39   39   21 1    
    40   40   21 1    
    41   41   22 1    
    42   42   22 1    
    43   43   22 1    
@<TRIPOS>SUBSTRUCTURE
     1 TSN802      1 GROUP   
@<TRIPOS>SET

