#    Name: 4kqv_DOO_2_INTS_M
#    Modification time : Tue Mar 25 08:22:03 2014

@<TRIPOS>MOLECULE
4kqv_DOO_2_INTS_M
   68     0     6     0     0
SMALL
NO_CHARGES


@<TRIPOS>ATOM
      1 CA        -13.8010  -21.9905   -4.6615 C.3       2 GLC5        0.0000 
      2 CA        -14.4330  -23.8410   -4.2990 C.3       6 GLL5        0.0000 
      3 CA        -13.1690  -20.1400   -5.0240 C.3       4 GLP5        0.0000 
      4 CA        -11.5805  -23.3960   -4.1185 C.3       2 GLC5        0.0000 
      5 CA        -12.5340  -25.1840   -4.0670 C.3       6 GLL5        0.0000 
      6 CA        -10.6270  -21.6080   -4.1700 C.3       4 GLP5        0.0000 
      7 CA        -13.2920  -27.6765   -4.8300 C.3       2 GLC5        0.0000 
      8 CA        -14.1920  -27.1960   -2.9590 C.3       6 GLL5        0.0000 
      9 CA        -12.3920  -28.1570   -6.7010 C.3       4 GLP5        0.0000 
     10 CA        -15.8945  -28.9315   -3.8670 C.3       2 GLC5        0.0000 
     11 CA        -16.1060  -28.9190   -1.9480 C.3       6 GLL5        0.0000 
     12 CA        -15.6830  -28.9440   -5.7860 C.3       4 GLP5        0.0000 
     13 CA        -18.7390  -30.7330   -2.9955 C.3       2 GLC5        0.0000 
     14 CA        -18.6160  -28.9140   -1.9520 C.3       6 GLL5        0.0000 
     15 CA        -18.8620  -32.5520   -4.0390 C.3       4 GLP5        0.0000 
     16 CA        -15.7795  -25.5810   -1.0715 C.3       2 GLC5        0.0000 
     17 CA        -17.4450  -26.7960   -1.6910 C.3       6 GLL5        0.0000 
     18 CA        -14.1140  -24.3660   -0.4520 C.3       4 GLP5        0.0000 
     19 CA        -17.4035  -26.7875   -3.9245 C.3       2 GLC5        0.0000 
     20 CA        -17.3620  -26.7790   -6.1580 C.3       4 GLP5        0.0000 
     21 CA        -13.7350  -31.1365   -0.2070 C.3       2 GLC5        0.0000 
     22 CA        -15.0250  -30.9620   -1.2960 C.3       6 GLL5        0.0000 
     23 CA        -12.4450  -31.3110    0.8820 C.3       4 GLP5        0.0000 
     24 CA        -15.7675  -31.1840   -3.4015 C.3       2 GLC5        0.0000 
     25 CA        -16.5100  -31.4060   -5.5070 C.3       4 GLP5        0.0000 
     26 CA        -13.0200  -30.3160   -0.6620 C.3       2 GLC5        0.0000 
     27 CA        -13.5950  -29.3210   -2.2060 C.3       6 GLL5        0.0000 
     28 CA        -12.6395  -29.2960   -4.0565 C.3       2 GLC5        0.0000 
     29 CA        -11.6840  -29.2710   -5.9070 C.3       4 GLP5        0.0000 
     30 O         -11.1630  -28.6915   -2.3785 O.2       1 ALC1        0.0000 
     31 O         -12.4850  -28.6810   -2.6580 O.2       5 ALL1        0.0000 
     32 O          -9.8410  -28.7020   -2.0990 O.2       3 ALP1        0.0000 
     33 CA        -12.2120  -28.3530   -4.5115 C.3       2 GLC5        0.0000 
     34 CA        -12.7400  -27.4350   -3.1160 C.3       6 GLL5        0.0000 
     35 O         -10.2015  -27.6300   -2.9730 O.2       1 ALC1        0.0000 
     36 O         -10.5620  -26.5580   -3.8470 O.2       5 ALL1        0.0000 
     37 CA        -10.1350  -23.5405   -4.1505 C.3       2 GLC5        0.0000 
     38 CA         -9.6430  -25.4730   -4.1310 C.3       6 GLL5        0.0000 
     39 CA         -9.2770  -25.7570   -1.9780 C.3       2 GLC5        0.0000 
     40 CA         -8.9110  -26.0410    0.1750 C.3       4 GLP5        0.0000 
     41 CA         -8.2405  -24.2565   -3.6890 C.3       2 GLC5        0.0000 
     42 CA         -6.8380  -23.0400   -3.2470 C.3       4 GLP5        0.0000 
     43 CA         -7.8010  -26.1560   -4.8425 C.3       2 GLC5        0.0000 
     44 CA         -5.9590  -26.8390   -5.5540 C.3       4 GLP5        0.0000 
     45 CA        -14.3645  -32.0830    0.1930 C.3       2 GLC5        0.0000 
     46 CA        -16.2840  -32.8550   -0.4960 C.3       6 GLL5        0.0000 
     47 CA        -14.1435  -24.3952   -2.2773 C.3       2 GLC5        0.0000 
     48 CA        -13.9130  -25.0080   -3.9060 C.3       6 GLL5        0.0000 
     49 CA        -15.2545  -23.0247   -3.8258 C.3       2 GLC5        0.0000 
     50 CA        -16.3360  -21.6250   -3.5490 C.3       4 GLP5        0.0000 
     51 CA        -15.0742  -26.4657   -5.2067 C.3       2 GLC5        0.0000 
     52 CA        -15.8140  -27.4330   -6.7810 C.3       4 GLP5        0.0000 
     53 CA        -12.6980  -25.1513   -5.5505 C.3       2 GLC5        0.0000 
     54 CA        -13.1820  -24.5300   -7.2210 C.3       4 GLP5        0.0000 
     55 CA        -14.2940  -25.4793   -1.8055 C.3       2 GLC5        0.0000 
     56 CA        -14.7560  -25.9890   -3.3590 C.3       6 GLL5        0.0000 
     57 CA        -13.8233  -24.8684   -5.4759 C.3       2 GLC5        0.0000 
     58 CA        -13.2955  -25.4849   -1.9750 C.3       2 GLC5        0.0000 
     59 CA        -14.5349  -28.4719   -4.2807 C.3       2 GLC5        0.0000 
     60 CA        -12.4754  -26.9428   -5.2704 C.3       2 GLC5        0.0000 
     61 CA        -11.8940  -26.3610   -3.6930 C.3       6 GLL5        0.0000 
     62 CA        -15.1662  -34.8427   -1.2857 C.3       2 GLC5        0.0000 
     63 CA        -13.8020  -36.3390   -1.6480 C.3       4 GLP5        0.0000 
     64 CA        -17.6962  -32.9492   -2.4813 C.3       2 GLC5        0.0000 
     65 CA        -16.7770  -33.8380   -1.3510 C.3       6 GLL5        0.0000 
     66 CA        -19.6133  -33.9980   -1.7560 C.3       2 GLC5        0.0000 
     67 CA        -18.6110  -34.1150    0.0840 C.3       6 GLL5        0.0000 
     68 CA        -19.9660  -33.5370   -3.7620 C.3       4 GLP5        0.0000 
@<TRIPOS>BOND
@<TRIPOS>SUBSTRUCTURE
     1 ALC1       30 GROUP        1 X    ALC  0     ROOT ALC X 1
     2 GLC5        1 GROUP        1 X    GLC  0     **** GLC X 6
     3 ALP1       32 GROUP        1 Y    ALP  0     ROOT ALP Y 8
     4 GLP5        3 GROUP        1 Y    GLP  0     **** GLP Y 13
     5 ALL1       31 GROUP        1 Z    ALL  0     ROOT ALL Z 15
     6 GLL5        2 GROUP        1 Z    GLL  0     **** GLL Z 20
@<TRIPOS>SET

