#    Name: 4kqv_DOO_2_ligand
#    Modification time : Tue Mar 25 08:22:03 2014

@<TRIPOS>MOLECULE
4kqv_DOO_2_ligand
   54    59     1     0     0
SMALL
NO_CHARGES


@<TRIPOS>ATOM
      1 F30       -14.4330  -23.8410   -4.2990 F         1 DOO403      0.0000 
      2 C6        -13.9130  -25.0080   -3.9060 C.ar      1 DOO403      0.0000 
      3 C1        -12.5340  -25.1840   -4.0670 C.ar      1 DOO403      0.0000 
      4 C5        -14.7560  -25.9890   -3.3590 C.ar      1 DOO403      0.0000 
      5 C4        -14.1920  -27.1960   -2.9590 C.ar      1 DOO403      0.0000 
      6 C7        -14.7520  -28.4210   -2.3690 C.ar      1 DOO403      0.0000 
      7 C13       -16.1060  -28.9190   -1.9480 C.ar      1 DOO403      0.0000 
      8 N22       -17.3340  -28.2250   -1.9460 N.3       1 DOO403      0.0000 
      9 C26       -18.6160  -28.9140   -1.9520 C.3       1 DOO403      0.0000 
     10 C25       -19.2190  -28.2130   -0.7410 C.3       1 DOO403      0.0000 
     11 C27       -18.9200  -28.9720    0.5550 C.3       1 DOO403      0.0000 
     12 C28       -18.2970  -27.9480    1.5070 C.3       1 DOO403      0.0000 
     13 N29       -18.0250  -26.7680    0.7180 N.4       1 DOO403      0.0000 
     14 C24       -18.5500  -26.8420   -0.6350 C.3       1 DOO403      0.0000 
     15 C23       -17.4450  -26.7960   -1.6910 C.3       1 DOO403      0.0000 
     16 N12       -16.1290  -30.1770   -1.4210 N.ar      1 DOO403      0.0000 
     17 C11       -15.0250  -30.9620   -1.2960 C.ar      1 DOO403      0.0000 
     18 N10       -13.7960  -30.5430   -1.6740 N.ar      1 DOO403      0.0000 
     19 C8        -13.5950  -29.3210   -2.2060 C.ar      1 DOO403      0.0000 
     20 N9        -12.4850  -28.6810   -2.6580 N.pl3     1 DOO403      0.0000 
     21 C3        -12.7400  -27.4350   -3.1160 C.ar      1 DOO403      0.0000 
     22 C2        -11.8940  -26.3610   -3.6930 C.ar      1 DOO403      0.0000 
     23 N31       -10.5620  -26.5580   -3.8470 N.pl3     1 DOO403      0.0000 
     24 C32        -9.6430  -25.4730   -4.1310 C.3       1 DOO403      0.0000 
     25 O14       -15.1020  -32.2240   -0.7730 O.3       1 DOO403      0.0000 
     26 C15       -16.2840  -32.8550   -0.4960 C.ar      1 DOO403      0.0000 
     27 C20       -16.9880  -32.5320    0.6560 C.ar      1 DOO403      0.0000 
     28 N19       -18.1320  -33.1650    0.9200 N.ar      1 DOO403      0.0000 
     29 C18       -18.6110  -34.1150    0.0840 C.ar      1 DOO403      0.0000 
     30 C21       -19.9100  -34.8030    0.4160 C.3       1 DOO403      0.0000 
     31 N17       -17.9330  -34.4430   -1.0450 N.ar      1 DOO403      0.0000 
     32 C16       -16.7770  -33.8380   -1.3510 C.ar      1 DOO403      0.0000 
     33 H         -11.9743  -24.4097   -4.4788 H         1 DOO403      0.0000 
     34 H         -15.7505  -25.8158   -3.2606 H         1 DOO403      0.0000 
     35 H         -18.5129  -29.9333   -1.7412 H         1 DOO403      0.0000 
     36 H         -19.1817  -28.6796   -2.7999 H         1 DOO403      0.0000 
     37 H         -20.2548  -28.0860   -0.8632 H         1 DOO403      0.0000 
     38 H         -18.2193  -29.7537    0.3595 H         1 DOO403      0.0000 
     39 H         -19.8305  -29.3427    0.9719 H         1 DOO403      0.0000 
     40 H         -17.3921  -28.3731    1.9163 H         1 DOO403      0.0000 
     41 H         -19.0050  -27.7463    2.2976 H         1 DOO403      0.0000 
     42 H         -19.2722  -26.1023   -0.8283 H         1 DOO403      0.0000 
     43 H         -17.7976  -26.2738   -2.5299 H         1 DOO403      0.0000 
     44 H         -16.5739  -26.4062   -1.2551 H         1 DOO403      0.0000 
     45 H         -11.5793  -29.0904   -2.6511 H         1 DOO403      0.0000 
     46 H         -10.1439  -27.5095   -3.7658 H         1 DOO403      0.0000 
     47 H         -16.6092  -31.8058    1.2860 H         1 DOO403      0.0000 
     48 H         -16.2440  -34.0783   -2.1980 H         1 DOO403      0.0000 
     49 H          -8.7009  -25.7972   -4.2172 H         1 DOO403      0.0000 
     50 H          -9.8718  -25.0065   -4.9854 H         1 DOO403      0.0000 
     51 H          -9.6501  -24.7816   -3.4086 H         1 DOO403      0.0000 
     52 H         -20.1598  -35.4793   -0.2770 H         1 DOO403      0.0000 
     53 H         -19.8623  -35.2842    1.2913 H         1 DOO403      0.0000 
     54 H         -20.6683  -34.1542    0.4792 H         1 DOO403      0.0000 
@<TRIPOS>BOND
     1    2    1 1    
     2    3    2 ar   
     3    4    2 ar   
     4   22    3 ar   
     5   33    3 1    
     6    5    4 ar   
     7   34    4 1    
     8    6    5 1    
     9   21    5 ar   
    10    7    6 ar   
    11   19    6 ar   
    12    8    7 1    
    13   16    7 ar   
    14    9    8 1    
    15   15    8 1    
    16   10    9 1    
    17   35    9 1    
    18   36    9 1    
    19   11   10 1    
    20   14   10 1    
    21   37   10 1    
    22   12   11 1    
    23   38   11 1    
    24   39   11 1    
    25   13   12 1    
    26   40   12 1    
    27   41   12 1    
    28   14   13 1    
    29   15   14 1    
    30   42   14 1    
    31   43   15 1    
    32   44   15 1    
    33   17   16 ar   
    34   18   17 ar   
    35   25   17 1    
    36   19   18 ar   
    37   20   19 1    
    38   21   20 1    
    39   45   20 1    
    40   22   21 ar   
    41   23   22 1    
    42   24   23 1    
    43   46   23 1    
    44   49   24 1    
    45   50   24 1    
    46   51   24 1    
    47   26   25 1    
    48   27   26 ar   
    49   32   26 ar   
    50   28   27 ar   
    51   47   27 1    
    52   29   28 ar   
    53   30   29 1    
    54   31   29 ar   
    55   52   30 1    
    56   53   30 1    
    57   54   30 1    
    58   32   31 ar   
    59   48   32 1    
@<TRIPOS>SUBSTRUCTURE
     1 DOO403      1 GROUP   
@<TRIPOS>SET

