#    Name: 3ehx_BDL_1_INTS_M
#    Modification time : Tue Mar 25 01:52:54 2014

@<TRIPOS>MOLECULE
3ehx_BDL_1_INTS_M
   61     0     9     0     0
SMALL
NO_CHARGES


@<TRIPOS>ATOM
      1 Zn         -3.2720   -1.3995   -5.1890 Zn        2 ZIC7        0.0000 
      2 Zn         -2.0470   -1.5510   -5.7620 Zn        8 ZIL7        0.0000 
      3 Zn         -4.4970   -1.2480   -4.6160 Zn        5 ZIP7        0.0000 
      4 Zn         -3.6840   -1.6580   -4.2165 Zn        2 ZIC7        0.0000 
      5 Zn         -2.8710   -2.0680   -3.8170 Zn        8 ZIL7        0.0000 
      6 CA          0.7200   -1.0985   -5.6830 C.3       3 GLC5        0.0000 
      7 CA         -0.4830   -2.3220   -4.2560 C.3       9 GLL5        0.0000 
      8 CA          1.9230    0.1250   -7.1100 C.3       6 GLP5        0.0000 
      9 CA          3.1625   -2.6205   -3.5230 C.3       3 GLC5        0.0000 
     10 CA          2.3790   -0.9590   -2.6380 C.3       9 GLL5        0.0000 
     11 CA          3.9460   -4.2820   -4.4080 C.3       6 GLP5        0.0000 
     12 Zn         -2.4005   -2.4860   -4.3370 Zn        2 ZIC7        0.0000 
     13 Zn         -0.3040   -3.7240   -4.0580 Zn        8 ZIL7        0.0000 
     14 N           1.6345   -6.0590   -6.0135 N.am      1 SEC2        0.0000 
     15 N           0.4830   -5.3780   -5.7600 N.am      7 SEL2        0.0000 
     16 N           2.7860   -6.7400   -6.2670 N.am      4 SEP2        0.0000 
     17 N           1.5890   -4.9840   -6.8280 N.am      1 SEC2        0.0000 
     18 N           2.6950   -4.5900   -7.8960 N.am      4 SEP2        0.0000 
     19 CA         -3.5340   -3.8150   -7.2425 C.3       3 GLC5        0.0000 
     20 CA         -2.0790   -5.3950   -7.0520 C.3       9 GLL5        0.0000 
     21 CA         -4.9890   -2.2350   -7.4330 C.3       6 GLP5        0.0000 
     22 CA         -3.4725   -7.7830   -7.3940 C.3       3 GLC5        0.0000 
     23 CA         -3.2650   -5.7050   -7.7020 C.3       9 GLL5        0.0000 
     24 CA         -3.6800   -9.8610   -7.0860 C.3       6 GLP5        0.0000 
     25 CA         -4.6725   -4.0655   -6.5035 C.3       3 GLC5        0.0000 
     26 CA         -4.3560   -5.8960   -5.5740 C.3       9 GLL5        0.0000 
     27 CA         -5.6070   -5.3700   -3.8035 C.3       3 GLC5        0.0000 
     28 CA         -6.8580   -4.8440   -2.0330 C.3       6 GLP5        0.0000 
     29 CA         -6.2720   -7.5060   -4.9150 C.3       3 GLC5        0.0000 
     30 CA         -6.8140   -6.6450   -6.8800 C.3       9 GLL5        0.0000 
     31 CA         -5.7300   -8.3670   -2.9500 C.3       6 GLP5        0.0000 
     32 CA         -9.6075   -5.9425   -8.3380 C.3       3 GLC5        0.0000 
     33 CA         -7.9830   -7.0450   -7.4940 C.3       9 GLL5        0.0000 
     34 CA        -11.2320   -4.8400   -9.1820 C.3       6 GLP5        0.0000 
     35 CA         -4.4705   -6.0670  -10.7750 C.3       3 GLC5        0.0000 
     36 CA         -5.7460   -6.4950   -9.0290 C.3       9 GLL5        0.0000 
     37 CA         -3.1950   -5.6390  -12.5210 C.3       6 GLP5        0.0000 
     38 CA         -5.4110   -8.1295   -7.7200 C.3       3 GLC5        0.0000 
     39 CA         -5.0760   -9.7640   -6.4110 C.3       6 GLP5        0.0000 
     40 CA          2.0747   -3.6980   -1.7395 C.3       3 GLC5        0.0000 
     41 CA          1.3030   -2.0450   -2.5650 C.3       9 GLL5        0.0000 
     42 CA          2.8610   -5.0620   -1.6230 C.3       6 GLP5        0.0000 
     43 CA          2.3210   -0.5240   -4.2428 C.3       3 GLC5        0.0000 
     44 CA          2.8010    0.4540   -5.8840 C.3       6 GLP5        0.0000 
     45 CA         -1.5180   -7.3365   -7.6165 C.3       3 GLC5        0.0000 
     46 CA         -0.3640   -9.1230   -7.8560 C.3       6 GLP5        0.0000 
     47 CA         -1.8290   -5.5270   -9.3175 C.3       3 GLC5        0.0000 
     48 CA         -0.9860   -5.5040  -11.2580 C.3       6 GLP5        0.0000 
     49 CA         -4.8610   -4.3615   -7.7722 C.3       3 GLC5        0.0000 
     50 CA         -5.8760   -2.9020   -8.2090 C.3       6 GLP5        0.0000 
     51 CA         -4.7438   -7.0620   -4.0983 C.3       3 GLC5        0.0000 
     52 CA         -4.7337   -7.8403   -6.3412 C.3       3 GLC5        0.0000 
     53 CA         -6.0643   -4.6913   -7.7363 C.3       3 GLC5        0.0000 
     54 CA         -5.6910   -6.3160   -7.6470 C.3       9 GLL5        0.0000 
     55 CA         -6.0969   -8.2634   -6.8949 C.3       3 GLC5        0.0000 
     56 CA         -8.6935   -5.9607  -10.3200 C.3       3 GLC5        0.0000 
     57 CA         -8.0280   -7.1810   -8.8820 C.3       9 GLL5        0.0000 
     58 CA         -9.9180   -4.8790  -11.3710 C.3       6 GLP5        0.0000 
     59 CA         -6.1090   -4.9437   -9.5103 C.3       3 GLC5        0.0000 
     60 CA         -6.9100   -6.9040   -9.6560 C.3       9 GLL5        0.0000 
     61 CA         -5.8900   -3.1880   -9.6780 C.3       6 GLP5        0.0000 
@<TRIPOS>BOND
@<TRIPOS>SUBSTRUCTURE
     1 SEC2       14 GROUP        1 X    SEC  0     ROOT SEC X 2
     2 ZIC7        1 GROUP        1 X    ZIC  0     **** ZIC X 5
     3 GLC5        6 GROUP        1 X    GLC  0     **** GLC X 6
     4 SEP2       16 GROUP        1 Y    SEP  0     ROOT SEP Y 9
     5 ZIP7        3 GROUP        1 Y    ZIP  0     **** ZIP Y 12
     6 GLP5        8 GROUP        1 Y    GLP  0     **** GLP Y 13
     7 SEL2       15 GROUP        1 Z    SEL  0     ROOT SEL Z 16
     8 ZIL7        2 GROUP        1 Z    ZIL  0     **** ZIL Z 19
     9 GLL5        7 GROUP        1 Z    GLL  0     **** GLL Z 20
@<TRIPOS>SET

