#    Name: 3ehx_BDL_1_ligand
#    Modification time : Tue Mar 25 01:52:54 2014

@<TRIPOS>MOLECULE
3ehx_BDL_1_ligand
   44    45     1     0     0
SMALL
NO_CHARGES


@<TRIPOS>ATOM
      1 O4         -2.0470   -1.5510   -5.7620 O.co2     1 BDL0        0.0000 
      2 C15        -1.8680   -1.9680   -4.6530 C.2       1 BDL0        0.0000 
      3 O3         -2.8710   -2.0680   -3.8170 O.co2     1 BDL0        0.0000 
      4 C17        -0.4830   -2.3220   -4.2560 C.3       1 BDL0        0.0000 
      5 C16        -0.0920   -1.5770   -2.9890 C.3       1 BDL0        0.0000 
      6 C14         1.3030   -2.0450   -2.5650 C.3       1 BDL0        0.0000 
      7 C18         2.3790   -0.9590   -2.6380 C.3       1 BDL0        0.0000 
      8 C13         1.2740   -2.6230   -1.1470 C.3       1 BDL0        0.0000 
      9 N1         -0.3040   -3.7240   -4.0580 N.pl3     1 BDL0        0.0000 
     10 S1         -0.6340   -5.0940   -4.8830 S.o2      1 BDL0        0.0000 
     11 O1          0.4830   -5.3780   -5.7600 O.2       1 BDL0        0.0000 
     12 O2         -0.7140   -5.9230   -3.7080 O.2       1 BDL0        0.0000 
     13 C7         -2.0190   -5.3460   -5.6640 C.ar      1 BDL0        0.0000 
     14 C5         -2.0790   -5.3950   -7.0520 C.ar      1 BDL0        0.0000 
     15 C3         -3.2650   -5.7050   -7.7020 C.ar      1 BDL0        0.0000 
     16 C6         -3.1590   -5.6180   -4.9190 C.ar      1 BDL0        0.0000 
     17 C4         -4.3560   -5.8960   -5.5740 C.ar      1 BDL0        0.0000 
     18 C1         -4.4270   -5.9370   -6.9690 C.ar      1 BDL0        0.0000 
     19 C2         -5.6910   -6.3160   -7.6470 C.ar      1 BDL0        0.0000 
     20 C9         -6.8140   -6.6450   -6.8800 C.ar      1 BDL0        0.0000 
     21 C12        -7.9830   -7.0450   -7.4940 C.ar      1 BDL0        0.0000 
     22 C11        -8.0280   -7.1810   -8.8820 C.ar      1 BDL0        0.0000 
     23 C10        -6.9100   -6.9040   -9.6560 C.ar      1 BDL0        0.0000 
     24 C8         -5.7460   -6.4950   -9.0290 C.ar      1 BDL0        0.0000 
     25 H           0.2023   -1.9672   -5.0456 H         1 BDL0        0.0000 
     26 H          -0.7969   -1.8001   -2.2034 H         1 BDL0        0.0000 
     27 H          -0.0683   -0.5160   -3.1833 H         1 BDL0        0.0000 
     28 H           1.6082   -2.8635   -3.2344 H         1 BDL0        0.0000 
     29 H           0.1888   -4.0223   -3.0986 H         1 BDL0        0.0000 
     30 H          -1.2279   -5.1976   -7.6063 H         1 BDL0        0.0000 
     31 H          -3.2892   -5.7645   -8.7300 H         1 BDL0        0.0000 
     32 H          -3.1214   -5.6146   -3.8950 H         1 BDL0        0.0000 
     33 H          -5.2114   -6.0762   -5.0184 H         1 BDL0        0.0000 
     34 H          -6.7590   -6.5855   -5.8525 H         1 BDL0        0.0000 
     35 H          -8.8236   -7.2443   -6.9359 H         1 BDL0        0.0000 
     36 H          -8.9028   -7.4908   -9.3342 H         1 BDL0        0.0000 
     37 H          -6.9474   -7.0010  -10.6732 H         1 BDL0        0.0000 
     38 H          -4.8941   -6.3166   -9.5948 H         1 BDL0        0.0000 
     39 H           3.2745   -1.3040   -2.3569 H         1 BDL0        0.0000 
     40 H           2.4813   -0.5993   -3.5655 H         1 BDL0        0.0000 
     41 H           2.1644   -0.1831   -2.0448 H         1 BDL0        0.0000 
     42 H           2.1784   -2.9327   -0.8536 H         1 BDL0        0.0000 
     43 H           0.9637   -1.9484   -0.4772 H         1 BDL0        0.0000 
     44 H           0.6588   -3.4084   -1.0786 H         1 BDL0        0.0000 
@<TRIPOS>BOND
     1    2    1 ar   
     2    3    2 ar   
     3    4    2 1    
     4    5    4 1    
     5    9    4 1    
     6   25    4 1    
     7    6    5 1    
     8   26    5 1    
     9   27    5 1    
    10    7    6 1    
    11    8    6 1    
    12   28    6 1    
    13   39    7 1    
    14   40    7 1    
    15   41    7 1    
    16   42    8 1    
    17   43    8 1    
    18   44    8 1    
    19   10    9 1    
    20   29    9 1    
    21   11   10 2    
    22   12   10 2    
    23   13   10 1    
    24   14   13 ar   
    25   16   13 ar   
    26   15   14 ar   
    27   30   14 1    
    28   18   15 ar   
    29   31   15 1    
    30   17   16 ar   
    31   32   16 1    
    32   18   17 ar   
    33   33   17 1    
    34   19   18 1    
    35   20   19 ar   
    36   24   19 ar   
    37   21   20 ar   
    38   34   20 1    
    39   22   21 ar   
    40   35   21 1    
    41   23   22 ar   
    42   36   22 1    
    43   24   23 ar   
    44   37   23 1    
    45   38   24 1    
@<TRIPOS>SUBSTRUCTURE
     1 BDL0        1 GROUP   
@<TRIPOS>SET

