#    Name: 1xmm_M7G_2_INTS_M
#    Modification time : Tue Mar 25 10:19:45 2014

@<TRIPOS>MOLECULE
1xmm_M7G_2_INTS_M
   95     0    12     0     0
SMALL
NO_CHARGES


@<TRIPOS>ATOM
      1 N          89.9795   15.3830   49.1950 N.am      2 SEC2        0.0000 
      2 N          88.5690   15.7730   49.4970 N.am     10 SEL2        0.0000 
      3 N          91.3900   14.9930   48.8930 N.am      6 SEP2        0.0000 
      4 N          89.2730   14.4930   49.9700 N.am      2 SEC2        0.0000 
      5 N          89.9770   13.2130   50.4430 N.am      6 SEP2        0.0000 
      6 N          87.1430   15.7060   49.2345 N.am      2 SEC2        0.0000 
      7 N          85.7170   15.6390   48.9720 N.am      6 SEP2        0.0000 
      8 N          86.9360   16.4585   48.2710 N.am      2 SEC2        0.0000 
      9 N          88.1550   17.2780   47.5700 N.am     10 SEL2        0.0000 
     10 N          87.2290   18.4200   47.3460 N.am      2 SEC2        0.0000 
     11 N          86.3030   19.5620   47.1220 N.am      6 SEP2        0.0000 
     12 N          87.3025   16.9600   46.5645 N.am      2 SEC2        0.0000 
     13 N          86.4500   16.6420   45.5590 N.am      6 SEP2        0.0000 
     14 N          90.7325   16.5435   49.1305 N.am      2 SEC2        0.0000 
     15 N          90.0750   18.0940   49.3680 N.am     10 SEL2        0.0000 
     16 N          91.3925   17.4805   49.9875 N.am      2 SEC2        0.0000 
     17 N          92.7100   16.8670   50.6070 N.am      6 SEP2        0.0000 
     18 N          86.6095   16.8755   49.4215 N.am      2 SEC2        0.0000 
     19 N          87.5020   18.1120   49.8710 N.am     10 SEL2        0.0000 
     20 NZ         89.3850   21.7995   50.8330 N.4       3 LYC4        0.0000 
     21 NZ         89.8210   20.6240   50.3410 N.4      11 LYL4        0.0000 
     22 NZ         88.9490   22.9750   51.3250 N.4       7 LYP4        0.0000 
     23 N          89.3850   21.7995   50.8330 N.am      2 SEC2        0.0000 
     24 N          89.8210   20.6240   50.3410 N.am     10 SEL2        0.0000 
     25 N          88.9490   22.9750   51.3250 N.am      6 SEP2        0.0000 
     26 NZ         92.7060   18.7615   51.9915 N.4       3 LYC4        0.0000 
     27 NZ         92.1130   19.6240   50.5210 N.4      11 LYL4        0.0000 
     28 NZ         93.2990   17.8990   53.4620 N.4       7 LYP4        0.0000 
     29 NZ         92.3825   18.8515   49.0785 N.4       3 LYC4        0.0000 
     30 NZ         93.0830   19.1160   46.9320 N.4       7 LYP4        0.0000 
     31 N          92.4115   18.2455   50.5640 N.am      2 SEC2        0.0000 
     32 N          92.1130   19.6240   50.5210 N.am     10 SEL2        0.0000 
     33 N          92.7035   19.9490   49.0325 N.am      2 SEC2        0.0000 
     34 N          93.2940   20.2740   47.5440 N.am      6 SEP2        0.0000 
     35 N          92.3825   18.8515   49.0785 N.am      2 SEC2        0.0000 
     36 N          92.6520   18.0790   47.6360 N.am      6 SEP2        0.0000 
     37 NZ         91.8355   18.2990   52.7315 N.4       3 LYC4        0.0000 
     38 NZ         90.3720   18.6990   52.0010 N.4      11 LYL4        0.0000 
     39 N          91.5410   17.7830   51.3040 N.am      2 SEC2        0.0000 
     40 N          90.3720   18.6990   52.0010 N.am     10 SEL2        0.0000 
     41 CA         87.8880   16.3355   52.0870 C.3       4 GLC5        0.0000 
     42 CA         87.0390   17.8180   51.1830 C.3      12 GLL5        0.0000 
     43 CA         88.7370   14.8530   52.9910 C.3       8 GLP5        0.0000 
     44 CA         84.6835   19.3605   50.2340 C.3       4 GLC5        0.0000 
     45 CA         86.2580   19.0430   51.6470 C.3      12 GLL5        0.0000 
     46 CA         83.1090   19.6780   48.8210 C.3       8 GLP5        0.0000 
     47 N          87.9035   22.1565   51.4140 N.am      2 SEC2        0.0000 
     48 N          86.8580   21.3380   51.5030 N.am     10 SEL2        0.0000 
     49 O          85.8635   22.1770   52.5650 O.2       1 ALC1        0.0000 
     50 O          86.8580   21.3380   51.5030 O.2       9 ALL1        0.0000 
     51 O          84.8690   23.0160   53.6270 O.2       5 ALP1        0.0000 
     52 O          85.4530   21.5235   51.8090 O.2       1 ALC1        0.0000 
     53 O          84.0480   21.7090   52.1150 O.2       5 ALP1        0.0000 
     54 O          85.7450   22.3450   53.8285 O.2       1 ALC1        0.0000 
     55 O          86.6210   21.6740   54.0300 O.2       9 ALL1        0.0000 
     56 CA         84.7645   17.5565   53.8775 C.3       4 GLC5        0.0000 
     57 CA         85.5770   19.4580   53.8470 C.3      12 GLL5        0.0000 
     58 CA         83.9520   15.6550   53.9080 C.3       8 GLP5        0.0000 
     59 CA         85.2450   20.5550   55.6815 C.3       4 GLC5        0.0000 
     60 CA         84.9130   21.6520   57.5160 C.3       8 GLP5        0.0000 
     61 CA         85.8995   16.4050   54.8475 C.3       4 GLC5        0.0000 
     62 CA         86.6880   17.8540   55.5550 C.3      12 GLL5        0.0000 
     63 CA         85.1110   14.9560   54.1400 C.3       8 GLP5        0.0000 
     64 CA         86.5060   19.1000   57.3280 C.3       4 GLC5        0.0000 
     65 CA         86.3240   20.3460   59.1010 C.3       8 GLP5        0.0000 
     66 CA         87.9835   16.7130   54.8035 C.3       4 GLC5        0.0000 
     67 CA         89.2790   15.5720   54.0520 C.3       8 GLP5        0.0000 
     68 CA         87.4850   15.4500   58.8600 C.3       4 GLC5        0.0000 
     69 CA         86.8450   16.3950   57.6590 C.3      12 GLL5        0.0000 
     70 CA         88.1250   14.5050   60.0610 C.3       8 GLP5        0.0000 
     71 CA         86.3880   14.7445   57.3860 C.3       4 GLC5        0.0000 
     72 CA         85.9310   13.0940   57.1130 C.3       8 GLP5        0.0000 
     73 CA         86.5845   18.3705   58.3800 C.3       4 GLC5        0.0000 
     74 CA         88.2935   15.6505   56.4120 C.3       4 GLC5        0.0000 
     75 CA         89.7420   14.9060   55.1650 C.3       8 GLP5        0.0000 
     76 CA         85.5700   19.0455   58.0375 C.3       4 GLC5        0.0000 
     77 CA         84.8160   17.7450   56.9740 C.3      12 GLL5        0.0000 
     78 O          81.4800   17.7655   58.5290 O.2       1 ALC1        0.0000 
     79 O          82.6130   18.1660   57.7860 O.2       9 ALL1        0.0000 
     80 O          80.3470   17.3650   59.2720 O.2       5 ALP1        0.0000 
     81 O          80.1565   19.3580   57.7225 O.2       1 ALC1        0.0000 
     82 O          81.1990   19.5900   56.5680 O.2       9 ALL1        0.0000 
     83 O          79.1140   19.1260   58.8770 O.2       5 ALP1        0.0000 
     84 O          80.3885   20.8455   56.0665 O.2       1 ALC1        0.0000 
     85 O          79.5780   22.1010   55.5650 O.2       5 ALP1        0.0000 
     86 N          83.2735   20.8770   55.8850 N.am      2 SEC2        0.0000 
     87 N          83.2970   19.2030   55.7640 N.am     10 SEL2        0.0000 
     88 N          83.2500   22.5510   56.0060 N.am      6 SEP2        0.0000 
     89 CA         84.6990   20.1295   56.6990 C.3       4 GLC5        0.0000 
     90 CA         84.4850   18.6070   55.8820 C.3      12 GLL5        0.0000 
     91 CA         85.5907   17.3312   50.0140 C.3       4 GLC5        0.0000 
     92 CA         84.5330   16.2320   48.6130 C.3       8 GLP5        0.0000 
     93 CA         88.0330   21.8552   52.8285 C.3       4 GLC5        0.0000 
     94 CA         87.1630   20.1340   52.2000 C.3      12 GLL5        0.0000 
     95 CA         89.0760   23.4820   52.7300 C.3       8 GLP5        0.0000 
@<TRIPOS>BOND
@<TRIPOS>SUBSTRUCTURE
     1 ALC1       49 GROUP        1 X    ALC  0     ROOT ALC X 1
     2 SEC2        1 GROUP        1 X    SEC  0     **** SEC X 2
     3 LYC4       20 GROUP        1 X    LYC  0     **** LYC X 4
     4 GLC5       41 GROUP        1 X    GLC  0     **** GLC X 6
     5 ALP1       51 GROUP        1 Y    ALP  0     ROOT ALP Y 8
     6 SEP2        3 GROUP        1 Y    SEP  0     **** SEP Y 9
     7 LYP4       22 GROUP        1 Y    LYP  0     **** LYP Y 11
     8 GLP5       43 GROUP        1 Y    GLP  0     **** GLP Y 13
     9 ALL1       50 GROUP        1 Z    ALL  0     ROOT ALL Z 15
    10 SEL2        2 GROUP        1 Z    SEL  0     **** SEL Z 16
    11 LYL4       21 GROUP        1 Z    LYL  0     **** LYL Z 18
    12 GLL5       42 GROUP        1 Z    GLL  0     **** GLL Z 20
@<TRIPOS>SET

