#    Name: 1xmm_M7G_2_ligand
#    Modification time : Tue Mar 25 10:19:46 2014

@<TRIPOS>MOLECULE
1xmm_M7G_2_ligand
   45    47     1     0     0
SMALL
NO_CHARGES


@<TRIPOS>ATOM
      1 PA         88.6330   17.2940   49.0740 P.3       1 M7G404      0.0000 
      2 O1A        88.5690   15.7730   49.4970 O.co2     1 M7G404      0.0000 
      3 O2A        88.1550   17.2780   47.5700 O.co2     1 M7G404      0.0000 
      4 O3A        90.0750   18.0940   49.3680 O.3       1 M7G404      0.0000 
      5 O5'        87.5020   18.1120   49.8710 O.3       1 M7G404      0.0000 
      6 PB         90.5670   19.2340   50.5180 P.3       1 M7G404      0.0000 
      7 O1B        89.8210   20.6240   50.3410 O.co2     1 M7G404      0.0000 
      8 O2B        92.1130   19.6240   50.5210 O.co2     1 M7G404      0.0000 
      9 O3B        90.3720   18.6990   52.0010 O.co2     1 M7G404      0.0000 
     10 C5'        87.0390   17.8180   51.1830 C.3       1 M7G404      0.0000 
     11 C4'        86.2580   19.0430   51.6470 C.3       1 M7G404      0.0000 
     12 O4'        85.3500   18.6750   52.6740 O.3       1 M7G404      0.0000 
     13 C3'        87.1630   20.1340   52.2000 C.3       1 M7G404      0.0000 
     14 O3'        86.8580   21.3380   51.5030 O.3       1 M7G404      0.0000 
     15 C2'        86.8170   20.3230   53.6540 C.3       1 M7G404      0.0000 
     16 O2'        86.6210   21.6740   54.0300 O.3       1 M7G404      0.0000 
     17 C1'        85.5770   19.4580   53.8470 C.3       1 M7G404      0.0000 
     18 N9         85.5810   18.6660   55.0610 N.3       1 M7G404      0.0000 
     19 C8         86.6880   17.8540   55.5550 C.3       1 M7G404      0.0000 
     20 N7         86.1180   17.2950   56.7850 N.3       1 M7G404      0.0000 
     21 CM7        86.8450   16.3950   57.6590 C.3       1 M7G404      0.0000 
     22 C5         84.8160   17.7450   56.9740 C.2       1 M7G404      0.0000 
     23 C6         83.7790   17.5280   57.9920 C.2       1 M7G404      0.0000 
     24 O6         83.9640   16.7920   58.9790 O.2       1 M7G404      0.0000 
     25 N1         82.6130   18.1660   57.7860 N.am      1 M7G404      0.0000 
     26 C2         82.3820   18.9700   56.7200 C.2       1 M7G404      0.0000 
     27 N2         81.1990   19.5900   56.5680 N.pl3     1 M7G404      0.0000 
     28 N3         83.2970   19.2030   55.7640 N.2       1 M7G404      0.0000 
     29 C4         84.4850   18.6070   55.8820 C.2       1 M7G404      0.0000 
     30 H          87.8536   17.6562   51.8788 H         1 M7G404      0.0000 
     31 H          86.3690   16.9667   51.2003 H         1 M7G404      0.0000 
     32 H          85.7235   19.4510   50.7964 H         1 M7G404      0.0000 
     33 H          88.1648   19.8425   52.0995 H         1 M7G404      0.0000 
     34 H          87.6141   19.8420   54.2326 H         1 M7G404      0.0000 
     35 H          84.7188   20.1979   53.9227 H         1 M7G404      0.0000 
     36 H          87.5341   18.4641   55.7795 H         1 M7G404      0.0000 
     37 H          86.9232   17.0748   54.8650 H         1 M7G404      0.0000 
     38 H          81.8288   18.0353   58.4943 H         1 M7G404      0.0000 
     39 H          81.1127   20.1830   55.7674 H         1 M7G404      0.0000 
     40 H          80.5108   19.4029   57.2691 H         1 M7G404      0.0000 
     41 H          87.1194   15.5582   57.1852 H         1 M7G404      0.0000 
     42 H          87.6786   16.8166   58.0158 H         1 M7G404      0.0000 
     43 H          86.2956   16.1186   58.4475 H         1 M7G404      0.0000 
     44 H          85.8978   21.5223   51.7129 H         1 M7G404      0.0000 
     45 H          85.6344   21.7640   54.1664 H         1 M7G404      0.0000 
@<TRIPOS>BOND
     1    2    1 ar   
     2    3    1 ar   
     3    4    1 1    
     4    5    1 1    
     5    6    4 1    
     6   10    5 1    
     7    7    6 ar   
     8    8    6 ar   
     9    9    6 ar   
    10   11   10 1    
    11   30   10 1    
    12   31   10 1    
    13   12   11 1    
    14   13   11 1    
    15   32   11 1    
    16   17   12 1    
    17   14   13 1    
    18   15   13 1    
    19   33   13 1    
    20   44   14 1    
    21   16   15 1    
    22   17   15 1    
    23   34   15 1    
    24   45   16 1    
    25   18   17 1    
    26   35   17 1    
    27   19   18 1    
    28   29   18 1    
    29   20   19 1    
    30   36   19 1    
    31   37   19 1    
    32   21   20 1    
    33   22   20 1    
    34   41   21 1    
    35   42   21 1    
    36   43   21 1    
    37   23   22 1    
    38   29   22 2    
    39   24   23 2    
    40   25   23 am   
    41   26   25 1    
    42   38   25 1    
    43   27   26 1    
    44   28   26 2    
    45   39   27 1    
    46   40   27 1    
    47   29   28 1    
@<TRIPOS>SUBSTRUCTURE
     1 M7G404      1 GROUP   
@<TRIPOS>SET

