#    Name: 3ind_593_1_INTS_M
#    Modification time : Tue Mar 25 16:47:43 2014

@<TRIPOS>MOLECULE
3ind_593_1_INTS_M
   48     0     9     0     0
SMALL
NO_CHARGES


@<TRIPOS>ATOM
      1 O          15.2870   -7.3915   14.2570 O.2       1 ALC1        0.0000 
      2 O          15.0090   -6.8570   15.4540 O.2       7 ALL1        0.0000 
      3 O          15.5650   -7.9260   13.0600 O.2       4 ALP1        0.0000 
      4 O          16.1420   -5.4865   13.4895 O.2       1 ALC1        0.0000 
      5 O          16.3190   -5.0360   14.7640 O.2       7 ALL1        0.0000 
      6 O          15.9650   -5.9370   12.2150 O.2       4 ALP1        0.0000 
      7 O          15.9420   -6.4810   13.9120 O.2       1 ALC1        0.0000 
      8 O          16.9625   -3.9070   14.7950 O.2       1 ALC1        0.0000 
      9 O          17.6060   -2.7780   14.8260 O.2       4 ALP1        0.0000 
     10 OD1        16.1420   -5.4865   13.4895 O.co2     2 ASC3        0.0000 
     11 OD1        15.5610   -5.7040   15.6830 O.co2     8 ASL3        0.0000 
     12 OD1        15.9650   -5.9370   12.2150 O.co2     5 ASP3        0.0000 
     13 OD1        15.5630   -6.8150   14.3715 O.co2     2 ASC3        0.0000 
     14 OD1        15.5650   -7.9260   13.0600 O.co2     5 ASP3        0.0000 
     15 OD1        16.9625   -3.9070   14.7950 O.co2     2 ASC3        0.0000 
     16 OD1        17.6060   -2.7780   14.8260 O.co2     5 ASP3        0.0000 
     17 CA         16.6510  -13.0270   18.5490 C.3       3 GLC5        0.0000 
     18 CA         15.9450  -11.3890   17.5410 C.3       9 GLL5        0.0000 
     19 CA         17.3570  -14.6650   19.5570 C.3       6 GLP5        0.0000 
     20 CA         15.9790  -10.3430   20.6245 C.3       3 GLC5        0.0000 
     21 CA         15.6010  -10.5490   18.5930 C.3       9 GLL5        0.0000 
     22 CA         16.3570  -10.1370   22.6560 C.3       6 GLP5        0.0000 
     23 CA         12.2115   -9.0010   19.5875 C.3       3 GLC5        0.0000 
     24 CA         12.1320   -7.9440   17.8470 C.3       9 GLL5        0.0000 
     25 CA         12.2910  -10.0580   21.3280 C.3       6 GLP5        0.0000 
     26 CA         11.7365   -9.9865   17.3215 C.3       3 GLC5        0.0000 
     27 CA         11.3410  -12.0290   16.7960 C.3       6 GLP5        0.0000 
     28 CA         10.6050   -9.9265   17.8550 C.3       3 GLC5        0.0000 
     29 CA         10.5990   -7.8510   17.7390 C.3       9 GLL5        0.0000 
     30 CA         10.6110  -12.0020   17.9710 C.3       6 GLP5        0.0000 
     31 CA          8.6530   -7.3450   14.4345 C.3       3 GLC5        0.0000 
     32 CA         10.3670   -6.4330   15.1620 C.3       9 GLL5        0.0000 
     33 CA          6.9390   -8.2570   13.7070 C.3       6 GLP5        0.0000 
     34 CA         16.8985  -10.0475   14.9270 C.3       3 GLC5        0.0000 
     35 CA         15.3160   -9.6540   15.9770 C.3       9 GLL5        0.0000 
     36 CA         18.2380   -9.7980   13.7500 C.3       6 GLP5        0.0000 
     37 CA         14.7585  -10.9110   14.6735 C.3       3 GLC5        0.0000 
     38 CA         15.8020  -10.9400   16.2310 C.3       9 GLL5        0.0000 
     39 CA         13.9580  -11.5250   13.2430 C.3       6 GLP5        0.0000 
     40 CA          8.9205   -8.8685   14.9600 C.3       3 GLC5        0.0000 
     41 CA         10.1360   -8.5670   16.4630 C.3       9 GLL5        0.0000 
     42 CA          7.3870   -9.4980   14.0740 C.3       6 GLP5        0.0000 
     43 CA         11.2647   -9.4480   13.8553 C.3       3 GLC5        0.0000 
     44 CA         10.7720   -7.9110   15.2290 C.3       9 GLL5        0.0000 
     45 CA         10.9910  -10.9340   12.4280 C.3       6 GLP5        0.0000 
     46 CA         11.1596   -7.2978   13.5029 C.3       3 GLC5        0.0000 
     47 CA         10.8820   -7.0030   11.7400 C.3       6 GLP5        0.0000 
     48 CA         11.3603  -10.0775   16.1935 C.3       3 GLC5        0.0000 
@<TRIPOS>BOND
@<TRIPOS>SUBSTRUCTURE
     1 ALC1        1 GROUP        1 X    ALC  0     ROOT ALC X 1
     2 ASC3       10 GROUP        1 X    ASC  0     **** ASC X 3
     3 GLC5       17 GROUP        1 X    GLC  0     **** GLC X 6
     4 ALP1        3 GROUP        1 Y    ALP  0     ROOT ALP Y 8
     5 ASP3       12 GROUP        1 Y    ASP  0     **** ASP Y 10
     6 GLP5       19 GROUP        1 Y    GLP  0     **** GLP Y 13
     7 ALL1        2 GROUP        1 Z    ALL  0     ROOT ALL Z 15
     8 ASL3       11 GROUP        1 Z    ASL  0     **** ASL Z 17
     9 GLL5       18 GROUP        1 Z    GLL  0     **** GLL Z 20
@<TRIPOS>SET

