#    Name: 3ind_593_1_ligand
#    Modification time : Tue Mar 25 16:47:43 2014

@<TRIPOS>MOLECULE
3ind_593_1_ligand
   50    54     1     0     0
SMALL
NO_CHARGES


@<TRIPOS>ATOM
      1 C1         16.2590   -4.1920   17.5680 C.3       1 5931        0.0000 
      2 N1         15.6120   -5.3650   16.9990 N.am      1 5931        0.0000 
      3 O1         14.8100   -6.3140   18.9480 O.2       1 5931        0.0000 
      4 C2         14.9550   -6.3110   17.7370 C.2       1 5931        0.0000 
      5 N2         15.0090   -6.8570   15.4540 N.pl3     1 5931        0.0000 
      6 C3         14.4230   -7.3640   16.7410 C.3       1 5931        0.0000 
      7 N3         16.3190   -5.0360   14.7640 N.pl3     1 5931        0.0000 
      8 C4         15.5610   -5.7040   15.6830 C.cat     1 5931        0.0000 
      9 C5         14.9610   -8.7820   17.0190 C.ar      1 5931        0.0000 
     10 C6         15.3160   -9.6540   15.9770 C.ar      1 5931        0.0000 
     11 C7         15.8020  -10.9400   16.2310 C.ar      1 5931        0.0000 
     12 C8         15.9450  -11.3890   17.5410 C.ar      1 5931        0.0000 
     13 C9         15.6010  -10.5490   18.5930 C.ar      1 5931        0.0000 
     14 C10        15.1140   -9.2630   18.3350 C.ar      1 5931        0.0000 
     15 C11        12.8390   -7.2930   16.6110 C.3       1 5931        0.0000 
     16 C12        12.1320   -7.9440   17.8470 C.3       1 5931        0.0000 
     17 C13        10.5990   -7.8510   17.7390 C.3       1 5931        0.0000 
     18 C14        10.1800   -6.3760   17.6670 C.3       1 5931        0.0000 
     19 C15        10.8200   -5.7120   16.4390 C.3       1 5931        0.0000 
     20 C16        12.3510   -5.8080   16.5460 C.3       1 5931        0.0000 
     21 C17        10.3670   -6.4330   15.1620 C.3       1 5931        0.0000 
     22 C18        10.7720   -7.9110   15.2290 C.3       1 5931        0.0000 
     23 C19        10.1360   -8.5670   16.4630 C.3       1 5931        0.0000 
     24 C20        12.3050   -8.0130   15.3360 C.3       1 5931        0.0000 
     25 H          14.9278   -7.3804   14.6652 H         1 5931        0.0000 
     26 H          16.9213   -4.3238   15.1245 H         1 5931        0.0000 
     27 H          16.2051   -5.3178   13.8113 H         1 5931        0.0000 
     28 H          15.2142   -9.3339   14.9968 H         1 5931        0.0000 
     29 H          16.0540  -11.5544   15.4458 H         1 5931        0.0000 
     30 H          16.3012  -12.3315   17.7266 H         1 5931        0.0000 
     31 H          15.7030  -10.8691   19.5646 H         1 5931        0.0000 
     32 H          14.8588   -8.6468   19.1263 H         1 5931        0.0000 
     33 H          12.4644   -7.4289   18.7446 H         1 5931        0.0000 
     34 H          12.4291   -8.9880   17.9032 H         1 5931        0.0000 
     35 H          10.1548   -8.3073   18.5848 H         1 5931        0.0000 
     36 H          10.5111   -5.8655   18.5628 H         1 5931        0.0000 
     37 H           9.1020   -6.3135   17.5862 H         1 5931        0.0000 
     38 H          10.5335   -4.6925   16.3927 H         1 5931        0.0000 
     39 H          12.8063   -5.3336   15.6789 H         1 5931        0.0000 
     40 H          12.6851   -5.2961   17.4463 H         1 5931        0.0000 
     41 H          10.8385   -5.9708   14.3038 H         1 5931        0.0000 
     42 H           9.2903   -6.3601   15.0728 H         1 5931        0.0000 
     43 H          10.4469   -8.4110   14.3522 H         1 5931        0.0000 
     44 H           9.0566   -8.5008   16.3868 H         1 5931        0.0000 
     45 H          10.4345   -9.6082   16.5082 H         1 5931        0.0000 
     46 H          12.5948   -9.0599   15.3807 H         1 5931        0.0000 
     47 H          12.7592   -7.5539   14.4614 H         1 5931        0.0000 
     48 H          16.9787   -4.4423   18.2156 H         1 5931        0.0000 
     49 H          16.6835   -3.6235   16.8633 H         1 5931        0.0000 
     50 H          15.6101   -3.6122   18.0607 H         1 5931        0.0000 
@<TRIPOS>BOND
     1    2    1 1    
     2   48    1 1    
     3   49    1 1    
     4   50    1 1    
     5    4    2 am   
     6    8    2 ar   
     7    4    3 2    
     8    6    4 1    
     9    6    5 1    
    10    8    5 ar   
    11   25    5 1    
    12    9    6 1    
    13   15    6 1    
    14    8    7 ar   
    15   26    7 1    
    16   27    7 1    
    17   10    9 ar   
    18   14    9 ar   
    19   11   10 ar   
    20   28   10 1    
    21   12   11 ar   
    22   29   11 1    
    23   13   12 ar   
    24   30   12 1    
    25   14   13 ar   
    26   31   13 1    
    27   32   14 1    
    28   16   15 1    
    29   20   15 1    
    30   24   15 1    
    31   17   16 1    
    32   33   16 1    
    33   34   16 1    
    34   18   17 1    
    35   23   17 1    
    36   35   17 1    
    37   19   18 1    
    38   36   18 1    
    39   37   18 1    
    40   20   19 1    
    41   21   19 1    
    42   38   19 1    
    43   39   20 1    
    44   40   20 1    
    45   22   21 1    
    46   41   21 1    
    47   42   21 1    
    48   23   22 1    
    49   24   22 1    
    50   43   22 1    
    51   44   23 1    
    52   45   23 1    
    53   46   24 1    
    54   47   24 1    
@<TRIPOS>SUBSTRUCTURE
     1 5931        1 GROUP   
@<TRIPOS>SET

