#    Name: 3pze_CFK_1_INTS_M
#    Modification time : Tue Mar 25 08:45:18 2014

@<TRIPOS>MOLECULE
3pze_CFK_1_INTS_M
   44     0     9     0     0
SMALL
NO_CHARGES


@<TRIPOS>ATOM
      1 CA         24.5865   16.1890   31.5975 C.3       3 GLC5        0.0000 
      2 CA         23.5360   14.2810   31.5220 C.3       9 GLL5        0.0000 
      3 CA         25.6370   18.0970   31.6730 C.3       6 GLP5        0.0000 
      4 CA         18.9625   11.0735   34.2590 C.3       3 GLC5        0.0000 
      5 CA         20.0240   10.2850   32.7310 C.3       9 GLL5        0.0000 
      6 CA         17.9010   11.8620   35.7870 C.3       6 GLP5        0.0000 
      7 N          18.6675    5.1700   32.7515 N.am      2 SEC2        0.0000 
      8 N          19.1190    6.4500   32.6920 N.am      8 SEL2        0.0000 
      9 N          18.2160    3.8900   32.8110 N.am      5 SEP2        0.0000 
     10 O          17.0095    7.1085   34.1705 O.2       1 ALC1        0.0000 
     11 O          17.8990    8.0870   33.5020 O.2       7 ALL1        0.0000 
     12 O          16.1200    6.1300   34.8390 O.2       4 ALP1        0.0000 
     13 O          21.6710    4.1760   31.1950 O.2       1 ALC1        0.0000 
     14 O          22.7730    5.1010   30.6280 O.2       7 ALL1        0.0000 
     15 O          20.5690    3.2510   31.7620 O.2       4 ALP1        0.0000 
     16 CA         25.7188   14.4235   32.3070 C.3       3 GLC5        0.0000 
     17 CA         24.2810   13.1050   31.4380 C.3       9 GLL5        0.0000 
     18 CA         27.5290   15.1540   33.1340 C.3       6 GLP5        0.0000 
     19 CA         22.8463   13.7387   33.3860 C.3       3 GLC5        0.0000 
     20 CA         22.8470   13.2180   35.1420 C.3       6 GLP5        0.0000 
     21 CA         20.7267   14.7997   33.1285 C.3       3 GLC5        0.0000 
     22 CA         22.1550   14.2380   31.7380 C.3       9 GLL5        0.0000 
     23 CA         19.6210   15.9760   34.4600 C.3       6 GLP5        0.0000 
     24 CA         22.3645   12.8137   33.4745 C.3       3 GLC5        0.0000 
     25 CA         21.5100   13.0090   31.8560 C.3       9 GLL5        0.0000 
     26 CA         20.4180   11.9683   30.6260 C.3       3 GLC5        0.0000 
     27 CA         18.9540   11.5270   29.4450 C.3       6 GLP5        0.0000 
     28 CA         25.6822   11.9333   32.2075 C.3       3 GLC5        0.0000 
     29 CA         23.6520   11.8720   31.5680 C.3       9 GLL5        0.0000 
     30 CA         27.3980   11.3780   32.9120 C.3       6 GLP5        0.0000 
     31 CA         23.4068   12.8532   33.3225 C.3       3 GLC5        0.0000 
     32 CA         21.5980   10.6343   34.1118 C.3       3 GLC5        0.0000 
     33 CA         21.5680   10.5020   31.9220 C.3       9 GLL5        0.0000 
     34 CA         22.4000   10.8750   35.8970 C.3       6 GLP5        0.0000 
     35 CA         20.3808   10.7102   30.5903 C.3       3 GLC5        0.0000 
     36 CA         19.7602    8.7075   34.5808 C.3       3 GLC5        0.0000 
     37 CA         20.0570    8.5370   32.4900 C.3       9 GLL5        0.0000 
     38 CA         19.4800    8.0040   36.5510 C.3       6 GLP5        0.0000 
     39 CA         20.0594    8.2767   30.1890 C.3       3 GLC5        0.0000 
     40 CA         19.2720    7.9130   28.2900 C.3       6 GLP5        0.0000 
     41 CA         18.5132   10.0930   31.6788 C.3       3 GLC5        0.0000 
     42 CA         16.9860   10.7750   30.7470 C.3       6 GLP5        0.0000 
     43 CA         22.3652    8.2139   33.1385 C.3       3 GLC5        0.0000 
     44 CA         23.5060    7.2960   34.3310 C.3       6 GLP5        0.0000 
@<TRIPOS>BOND
@<TRIPOS>SUBSTRUCTURE
     1 ALC1       10 GROUP        1 X    ALC  0     ROOT ALC X 1
     2 SEC2        7 GROUP        1 X    SEC  0     **** SEC X 2
     3 GLC5        1 GROUP        1 X    GLC  0     **** GLC X 6
     4 ALP1       12 GROUP        1 Y    ALP  0     ROOT ALP Y 8
     5 SEP2        9 GROUP        1 Y    SEP  0     **** SEP Y 9
     6 GLP5        3 GROUP        1 Y    GLP  0     **** GLP Y 13
     7 ALL1       11 GROUP        1 Z    ALL  0     ROOT ALL Z 15
     8 SEL2        8 GROUP        1 Z    SEL  0     **** SEL Z 16
     9 GLL5        2 GROUP        1 Z    GLL  0     **** GLL Z 20
@<TRIPOS>SET

