#    Name: 3pze_CFK_1_ligand
#    Modification time : Tue Mar 25 08:45:18 2014

@<TRIPOS>MOLECULE
3pze_CFK_1_ligand
   29    30     1     0     0
SMALL
NO_CHARGES


@<TRIPOS>ATOM
      1 C1         23.5360   14.2810   31.5220 C.ar      1 CFK1        0.0000 
      2 C2         22.1550   14.2380   31.7380 C.ar      1 CFK1        0.0000 
      3 C3         21.5100   13.0090   31.8560 C.ar      1 CFK1        0.0000 
      4 C4         22.2540   11.8100   31.7580 C.ar      1 CFK1        0.0000 
      5 C5         23.6520   11.8720   31.5680 C.ar      1 CFK1        0.0000 
      6 C6         24.2810   13.1050   31.4380 C.ar      1 CFK1        0.0000 
      7 C7         21.5680   10.5020   31.9220 C.2       1 CFK1        0.0000 
      8 C8         22.0470    9.2850   31.5490 C.2       1 CFK1        0.0000 
      9 C9         21.2260    8.2030   31.8230 C.2       1 CFK1        0.0000 
     10 C10        20.0570    8.5370   32.4900 C.2       1 CFK1        0.0000 
     11 S11        20.0240   10.2850   32.7310 S.3       1 CFK1        0.0000 
     12 C12        19.0250    7.6410   32.9030 C.2       1 CFK1        0.0000 
     13 O13        19.1190    6.4500   32.6920 O.2       1 CFK1        0.0000 
     14 N14        17.8990    8.0870   33.5020 N.am      1 CFK1        0.0000 
     15 N15        21.5960    6.8660   31.5700 N.am      1 CFK1        0.0000 
     16 C16        22.5250    6.4240   30.6860 C.2       1 CFK1        0.0000 
     17 O17        23.1370    7.1730   29.9430 O.2       1 CFK1        0.0000 
     18 N18        22.7730    5.1010   30.6280 N.am      1 CFK1        0.0000 
     19 H          24.0072   15.1932   31.4240 H         1 CFK1        0.0000 
     20 H          21.6207   15.1103   31.8090 H         1 CFK1        0.0000 
     21 H          20.5000   12.9634   32.0134 H         1 CFK1        0.0000 
     22 H          24.1937   11.0034   31.5274 H         1 CFK1        0.0000 
     23 H          25.2956   13.1520   31.2799 H         1 CFK1        0.0000 
     24 H          22.9397    9.1646   31.1015 H         1 CFK1        0.0000 
     25 H          17.8293    9.0768   33.6267 H         1 CFK1        0.0000 
     26 H          17.2353    7.3877   33.7675 H         1 CFK1        0.0000 
     27 H          21.0684    6.1248   32.1567 H         1 CFK1        0.0000 
     28 H          23.4556    4.8103   29.9576 H         1 CFK1        0.0000 
     29 H          22.2523    4.5276   31.2605 H         1 CFK1        0.0000 
@<TRIPOS>BOND
     1    2    1 ar   
     2    6    1 ar   
     3   19    1 1    
     4    3    2 ar   
     5   20    2 1    
     6    4    3 ar   
     7   21    3 1    
     8    5    4 ar   
     9    7    4 1    
    10    6    5 ar   
    11   22    5 1    
    12   23    6 1    
    13    8    7 2    
    14   11    7 1    
    15    9    8 1    
    16   24    8 1    
    17   10    9 2    
    18   15    9 1    
    19   11   10 1    
    20   12   10 1    
    21   13   12 2    
    22   14   12 am   
    23   25   14 1    
    24   26   14 1    
    25   16   15 am   
    26   27   15 1    
    27   17   16 2    
    28   18   16 am   
    29   28   18 1    
    30   29   18 1    
@<TRIPOS>SUBSTRUCTURE
     1 CFK1        1 GROUP   
@<TRIPOS>SET

