#    Name: 4nal_H70_1_INTS_M
#    Modification time : Tue Mar 25 12:52:59 2014

@<TRIPOS>MOLECULE
4nal_H70_1_INTS_M
   70     0     6     0     0
SMALL
NO_CHARGES


@<TRIPOS>ATOM
      1 CA          6.1245   25.1015  -22.2005 C.3       2 GLC5        0.0000 
      2 CA          4.0360   24.5720  -22.6360 C.3       6 GLL5        0.0000 
      3 CA          8.2130   25.6310  -21.7650 C.3       4 GLP5        0.0000 
      4 CA          3.3755   21.4590  -21.7820 C.3       2 GLC5        0.0000 
      5 CA          4.2500   23.4010  -21.8900 C.3       6 GLL5        0.0000 
      6 CA          2.5010   19.5170  -21.6740 C.3       4 GLP5        0.0000 
      7 N           3.2130   21.4715  -22.3720 N.am      1 SEC2        0.0000 
      8 N           4.4020   22.1890  -22.5730 N.am      5 SEL2        0.0000 
      9 N           2.0240   20.7540  -22.1710 N.am      3 SEP2        0.0000 
     10 CA          2.1930   24.7320  -21.7995 C.3       2 GLC5        0.0000 
     11 CA          3.8630   25.8100  -22.0250 C.3       6 GLL5        0.0000 
     12 CA          0.5230   23.6540  -21.5740 C.3       4 GLP5        0.0000 
     13 CA          2.5270   27.1010  -22.7630 C.3       2 GLC5        0.0000 
     14 CA          1.1910   28.3920  -23.5010 C.3       4 GLP5        0.0000 
     15 CA          4.0895   20.0355  -20.2930 C.3       2 GLC5        0.0000 
     16 CA          5.6780   20.5540  -18.9120 C.3       6 GLL5        0.0000 
     17 CA          1.9755   24.6710  -16.7215 C.3       2 GLC5        0.0000 
     18 CA          2.8060   22.9610  -17.3960 C.3       6 GLL5        0.0000 
     19 CA          1.1450   26.3810  -16.0470 C.3       4 GLP5        0.0000 
     20 CA          2.9015   22.9830  -15.7220 C.3       2 GLC5        0.0000 
     21 CA          2.9970   23.0050  -14.0480 C.3       4 GLP5        0.0000 
     22 CA          1.5260   23.8475  -18.3605 C.3       2 GLC5        0.0000 
     23 CA          0.2460   24.7340  -19.3250 C.3       4 GLP5        0.0000 
     24 CA          4.8780   17.8900  -16.3425 C.3       2 GLC5        0.0000 
     25 CA          4.6290   19.9390  -16.2840 C.3       6 GLL5        0.0000 
     26 CA          5.1270   15.8410  -16.4010 C.3       4 GLP5        0.0000 
     27 CA          5.8510   20.5025  -14.9500 C.3       2 GLC5        0.0000 
     28 CA          7.0730   21.0660  -13.6160 C.3       4 GLP5        0.0000 
     29 CA          3.8130   21.4720  -15.1660 C.3       2 GLC5        0.0000 
     30 CA          4.2395   19.3755  -14.5615 C.3       2 GLC5        0.0000 
     31 CA          3.8500   18.8120  -12.8390 C.3       4 GLP5        0.0000 
     32 CA          2.1540   28.4945  -19.5470 C.3       2 GLC5        0.0000 
     33 CA          3.7580   27.4240  -19.8730 C.3       6 GLL5        0.0000 
     34 CA          0.5500   29.5650  -19.2210 C.3       4 GLP5        0.0000 
     35 CA          5.6635   26.8085  -20.1840 C.3       2 GLC5        0.0000 
     36 CA          7.5690   26.1930  -20.4950 C.3       4 GLP5        0.0000 
     37 CA          5.1980   28.7610  -18.7910 C.3       2 GLC5        0.0000 
     38 CA          6.6380   30.0980  -17.7090 C.3       4 GLP5        0.0000 
     39 CA          3.4660   27.6720  -17.8305 C.3       2 GLC5        0.0000 
     40 CA          3.1740   27.9200  -15.7880 C.3       4 GLP5        0.0000 
     41 CA          2.0020   26.0790  -19.5990 C.3       2 GLC5        0.0000 
     42 CA          8.5020   18.2160  -18.9595 C.3       2 GLC5        0.0000 
     43 CA          6.8610   19.0760  -18.9010 C.3       6 GLL5        0.0000 
     44 CA         10.1430   17.3560  -19.0180 C.3       4 GLP5        0.0000 
     45 CA          6.7045   17.6075  -17.3970 C.3       2 GLC5        0.0000 
     46 CA          6.5480   16.1390  -15.8930 C.3       4 GLP5        0.0000 
     47 CA          7.7515   19.5810  -17.0975 C.3       2 GLC5        0.0000 
     48 CA          8.6420   20.0860  -15.2940 C.3       4 GLP5        0.0000 
     49 CA          4.4140   26.4740  -24.7775 C.3       2 GLC5        0.0000 
     50 CA          3.9660   24.5130  -24.3830 C.3       6 GLL5        0.0000 
     51 CA          4.8620   28.4350  -25.1720 C.3       4 GLP5        0.0000 
     52 CA          4.5800   25.4445  -26.2860 C.3       2 GLC5        0.0000 
     53 CA          5.1940   26.3760  -28.1890 C.3       4 GLP5        0.0000 
     54 CA          4.9642   26.7670  -23.2302 C.3       2 GLC5        0.0000 
     55 CA          5.9790   28.3430  -24.1300 C.3       4 GLP5        0.0000 
     56 CA          5.9032   25.1508  -20.3375 C.3       2 GLC5        0.0000 
     57 CA          4.3070   23.4780  -20.4820 C.3       6 GLL5        0.0000 
     58 CA          2.3740   23.6931  -21.4733 C.3       2 GLC5        0.0000 
     59 CA          3.4390   20.8450  -20.3215 C.3       2 GLC5        0.0000 
     60 CA          4.6160   22.3060  -19.5770 C.3       6 GLL5        0.0000 
     61 CA          2.1498   25.0225  -19.7922 C.3       2 GLC5        0.0000 
     62 CA          4.1680   24.7390  -19.8780 C.3       6 GLL5        0.0000 
     63 CA          5.7350   26.0198  -20.9140 C.3       2 GLC5        0.0000 
     64 CA          3.9390   25.8830  -20.6410 C.3       6 GLL5        0.0000 
     65 CA          3.0035   19.7000  -16.8163 C.3       2 GLC5        0.0000 
     66 CA          4.8470   20.8510  -17.9210 C.3       6 GLL5        0.0000 
     67 CA          1.2690   19.0050  -16.5300 C.3       4 GLP5        0.0000 
     68 CA          1.9935   21.3323  -17.5453 C.3       2 GLC5        0.0000 
     69 CA          4.1380   22.0400  -18.3610 C.3       6 GLL5        0.0000 
     70 CA          0.5150   20.1640  -17.2120 C.3       4 GLP5        0.0000 
@<TRIPOS>BOND
@<TRIPOS>SUBSTRUCTURE
     1 SEC2        7 GROUP        1 X    SEC  0     ROOT SEC X 2
     2 GLC5        1 GROUP        1 X    GLC  0     **** GLC X 6
     3 SEP2        9 GROUP        1 Y    SEP  0     ROOT SEP Y 9
     4 GLP5        3 GROUP        1 Y    GLP  0     **** GLP Y 13
     5 SEL2        8 GROUP        1 Z    SEL  0     ROOT SEL Z 16
     6 GLL5        2 GROUP        1 Z    GLL  0     **** GLL Z 20
@<TRIPOS>SET

