#    Name: 4nal_H70_1_ligand
#    Modification time : Tue Mar 25 12:52:59 2014

@<TRIPOS>MOLECULE
4nal_H70_1_ligand
   21    22     1     0     0
SMALL
NO_CHARGES


@<TRIPOS>ATOM
      1 CH          4.0360   24.5720  -22.6360 C.ar      1 H70401      0.0000 
      2 CG          4.3070   23.4780  -20.4820 C.ar      1 H70401      0.0000 
      3 CD1         4.6160   22.3060  -19.5770 C.2       1 H70401      0.0000 
      4 CD2         4.1680   24.7390  -19.8780 C.ar      1 H70401      0.0000 
      5 CE2         3.9390   25.8830  -20.6410 C.ar      1 H70401      0.0000 
      6 CR          4.2500   23.4010  -21.8900 C.ar      1 H70401      0.0000 
      7 O           4.4020   22.1890  -22.5730 O.3       1 H70401      0.0000 
      8 C3          3.8630   25.8100  -22.0250 C.ar      1 H70401      0.0000 
      9 C7          5.6780   20.5540  -18.9120 C.2       1 H70401      0.0000 
     10 C8          4.8470   20.8510  -17.9210 C.2       1 H70401      0.0000 
     11 C9          4.1380   22.0400  -18.3610 C.2       1 H70401      0.0000 
     12 N11         5.5690   21.4260  -19.9140 N.pl3     1 H70401      0.0000 
     13 BR1         2.8060   22.9610  -17.3960 Br        1 H70401      0.0000 
     14 BR2         4.6290   19.9390  -16.2840 Br        1 H70401      0.0000 
     15 CL1         3.7580   27.4240  -19.8730 Cl        1 H70401      0.0000 
     16 BR3         6.8610   19.0760  -18.9010 Br        1 H70401      0.0000 
     17 CL2         3.9660   24.5130  -24.3830 Cl        1 H70401      0.0000 
     18 H           4.2375   24.8147  -18.8496 H         1 H70401      0.0000 
     19 H           3.6846   26.6435  -22.5824 H         1 H70401      0.0000 
     20 H           6.0794   21.4273  -20.7320 H         1 H70401      0.0000 
     21 H           5.2033   21.7574  -22.1587 H         1 H70401      0.0000 
@<TRIPOS>BOND
     1    6    1 ar   
     2    8    1 ar   
     3   17    1 1    
     4    3    2 1    
     5    4    2 ar   
     6    6    2 ar   
     7   11    3 2    
     8   12    3 1    
     9    5    4 ar   
    10   18    4 1    
    11    8    5 ar   
    12   15    5 1    
    13    7    6 1    
    14   21    7 1    
    15   19    8 1    
    16   10    9 2    
    17   12    9 1    
    18   16    9 1    
    19   11   10 1    
    20   14   10 1    
    21   13   11 1    
    22   20   12 1    
@<TRIPOS>SUBSTRUCTURE
     1 H70401      1 GROUP   
@<TRIPOS>SET

