#    Name: 2yiw_I46_2_INTS_M
#    Modification time : Tue Mar 25 09:23:07 2014

@<TRIPOS>MOLECULE
2yiw_I46_2_INTS_M
   59     0     6     0     0
SMALL
NO_CHARGES


@<TRIPOS>ATOM
      1 CA         22.3240   14.2080   13.3510 C.3       2 GLC5        0.0000 
      2 CA         24.2000   14.1610   13.8370 C.3       6 GLL5        0.0000 
      3 CA         20.4480   14.2550   12.8650 C.3       4 GLP5        0.0000 
      4 CA         26.4955   12.3825   11.6590 C.3       2 GLC5        0.0000 
      5 CA         24.4590   12.0570   11.5680 C.3       6 GLL5        0.0000 
      6 CA         28.5320   12.7080   11.7500 C.3       4 GLP5        0.0000 
      7 CA         25.7710   10.7360   11.0310 C.3       2 GLC5        0.0000 
      8 CA         27.0830    9.4150   10.4940 C.3       4 GLP5        0.0000 
      9 CA         26.4185   17.6955   15.4880 C.3       2 GLC5        0.0000 
     10 CA         25.7620   15.8140   14.7280 C.3       6 GLL5        0.0000 
     11 CA         27.0750   19.5770   16.2480 C.3       4 GLP5        0.0000 
     12 CA         26.0235   13.7765   15.3120 C.3       2 GLC5        0.0000 
     13 CA         26.2850   11.7390   15.8960 C.3       4 GLP5        0.0000 
     14 CA         21.5555   16.8990    8.6895 C.3       2 GLC5        0.0000 
     15 CA         23.6070   16.7580    8.0150 C.3       6 GLL5        0.0000 
     16 CA         19.5040   17.0400    9.3640 C.3       4 GLP5        0.0000 
     17 CA         26.1135   13.2900   10.4410 C.3       2 GLC5        0.0000 
     18 CA         24.4140   13.4010   11.4860 C.3       6 GLL5        0.0000 
     19 CA         27.8130   13.1790    9.3960 C.3       4 GLP5        0.0000 
     20 O          23.2460   10.5595    9.2650 O.2       1 ALC1        0.0000 
     21 O          24.0930   11.5040   10.3890 O.2       5 ALL1        0.0000 
     22 O          22.3990    9.6150    8.1410 O.2       3 ALP1        0.0000 
     23 CA         26.9770   15.3135   17.2735 C.3       2 GLC5        0.0000 
     24 CA         26.1740   16.5560   15.7660 C.3       6 GLL5        0.0000 
     25 CA         27.7800   14.0710   18.7810 C.3       4 GLP5        0.0000 
     26 CA         26.4215   17.7695   16.6915 C.3       2 GLC5        0.0000 
     27 CA         26.6690   18.9830   17.6170 C.3       4 GLP5        0.0000 
     28 CA         22.3455   16.4895    6.4445 C.3       2 GLC5        0.0000 
     29 CA         23.7410   17.1220    6.7810 C.3       6 GLL5        0.0000 
     30 CA         20.9500   15.8570    6.1080 C.3       4 GLP5        0.0000 
     31 CA         25.1465   18.3240    7.1290 C.3       2 GLC5        0.0000 
     32 CA         26.5520   19.5260    7.4770 C.3       4 GLP5        0.0000 
     33 CA         23.5093   13.6210   15.5018 C.3       2 GLC5        0.0000 
     34 CA         22.5810   12.6880   16.6380 C.3       4 GLP5        0.0000 
     35 CA         26.9548   16.8020   12.0087 C.3       2 GLC5        0.0000 
     36 CA         25.9180   15.1220   12.4330 C.3       6 GLL5        0.0000 
     37 CA         27.7540   18.0810   11.0580 C.3       4 GLP5        0.0000 
     38 CA         22.1055   14.5535   10.8397 C.3       2 GLC5        0.0000 
     39 CA         23.2640   16.1160   10.5840 C.3       6 GLL5        0.0000 
     40 CA         20.7130   13.5000   11.5480 C.3       4 GLP5        0.0000 
     41 CA         23.4417   17.4862   11.8800 C.3       2 GLC5        0.0000 
     42 CA         23.7540   18.2140   13.3920 C.3       4 GLP5        0.0000 
     43 CA         21.3167   16.8993    9.8660 C.3       2 GLC5        0.0000 
     44 CA         22.9950   17.4010   10.1520 C.3       6 GLL5        0.0000 
     45 CA         25.0733   17.4597    9.9995 C.3       2 GLC5        0.0000 
     46 CA         27.0170   18.1610    9.6310 C.3       4 GLP5        0.0000 
     47 CA         22.6714   13.4945   11.8072 C.3       2 GLC5        0.0000 
     48 CA         27.0106   13.7970   12.2664 C.3       2 GLC5        0.0000 
     49 CA         26.3930   15.9240   13.4860 C.3       6 GLL5        0.0000 
     50 CA         25.4576   13.0702   14.6909 C.3       2 GLC5        0.0000 
     51 CA         24.8230   14.2490   12.6060 C.3       6 GLL5        0.0000 
     52 CA         24.8610   17.1995   14.3195 C.3       2 GLC5        0.0000 
     53 CA         25.3652   17.0850    9.0694 C.3       2 GLC5        0.0000 
     54 CA         23.7320   15.0980    9.6790 C.3       6 GLL5        0.0000 
     55 CA         24.7691   15.9926   17.0258 C.3       2 GLC5        0.0000 
     56 CA         23.8420   16.0170   18.7630 C.3       4 GLP5        0.0000 
     57 CA         28.0674   15.9388   14.6817 C.3       2 GLC5        0.0000 
     58 CA         30.0090   15.6650   14.4270 C.3       4 GLP5        0.0000 
     59 CA         24.5734   16.5881   13.3073 C.3       2 GLC5        0.0000 
@<TRIPOS>BOND
@<TRIPOS>SUBSTRUCTURE
     1 ALC1       20 GROUP        1 X    ALC  0     ROOT ALC X 1
     2 GLC5        1 GROUP        1 X    GLC  0     **** GLC X 6
     3 ALP1       22 GROUP        1 Y    ALP  0     ROOT ALP Y 8
     4 GLP5        3 GROUP        1 Y    GLP  0     **** GLP Y 13
     5 ALL1       21 GROUP        1 Z    ALL  0     ROOT ALL Z 15
     6 GLL5        2 GROUP        1 Z    GLL  0     **** GLL Z 20
@<TRIPOS>SET

