#    Name: 2yiw_I46_2_ligand
#    Modification time : Tue Mar 25 09:23:07 2014

@<TRIPOS>MOLECULE
2yiw_I46_2_ligand
   28    30     1     0     0
SMALL
NO_CHARGES


@<TRIPOS>ATOM
      1 C1         24.2000   14.1610   13.8370 C.ar      1 I461354     0.0000 
      2 C2         25.9180   15.1220   12.4330 C.ar      1 I461354     0.0000 
      3 C3         24.6750   14.9470   14.8940 C.ar      1 I461354     0.0000 
      4 C4         26.3930   15.9240   13.4860 C.ar      1 I461354     0.0000 
      5 C5         23.2640   16.1160   10.5840 C.ar      1 I461354     0.0000 
      6 C6         22.9950   17.4010   10.1520 C.ar      1 I461354     0.0000 
      7 C7         23.9080   15.4220    8.3220 C.ar      1 I461354     0.0000 
      8 C8         24.4590   12.0570   11.5680 C.2       1 I461354     0.0000 
      9 C9         24.8230   14.2490   12.6060 C.ar      1 I461354     0.0000 
     10 C10        25.7620   15.8140   14.7280 C.ar      1 I461354     0.0000 
     11 C11        23.7320   15.0980    9.6790 C.ar      1 I461354     0.0000 
     12 C12        23.6070   16.7580    8.0150 C.ar      1 I461354     0.0000 
     13 C13        24.4140   13.4010   11.4860 C.2       1 I461354     0.0000 
     14 C14        23.9680   13.7180   10.1790 C.2       1 I461354     0.0000 
     15 N15        24.0930   11.5040   10.3890 N.pl3     1 I461354     0.0000 
     16 N16        23.1880   17.6940    8.8930 N.ar      1 I461354     0.0000 
     17 N17        23.7760   12.5510    9.5060 N.2       1 I461354     0.0000 
     18 F18        26.1740   16.5560   15.7660 F         1 I461354     0.0000 
     19 F19        23.7410   17.1220    6.7810 F         1 I461354     0.0000 
     20 H          23.4064   13.5359   13.9812 H         1 I461354     0.0000 
     21 H          26.3802   15.1717   11.5103 H         1 I461354     0.0000 
     22 H          24.2126   14.8859   15.8181 H         1 I461354     0.0000 
     23 H          27.1661   16.5582   13.3449 H         1 I461354     0.0000 
     24 H          23.1341   15.8546   11.5751 H         1 I461354     0.0000 
     25 H          22.6483   18.0932   10.8400 H         1 I461354     0.0000 
     26 H          24.2129   14.7734    7.6531 H         1 I461354     0.0000 
     27 H          24.7182   11.5517   12.3630 H         1 I461354     0.0000 
     28 H          24.0482   10.5816   10.1672 H         1 I461354     0.0000 
@<TRIPOS>BOND
     1    3    1 ar   
     2    9    1 ar   
     3   20    1 1    
     4    4    2 ar   
     5    9    2 ar   
     6   21    2 1    
     7   10    3 ar   
     8   22    3 1    
     9   10    4 ar   
    10   23    4 1    
    11    6    5 ar   
    12   11    5 ar   
    13   24    5 1    
    14   16    6 ar   
    15   25    6 1    
    16   11    7 ar   
    17   12    7 ar   
    18   26    7 1    
    19   13    8 2    
    20   15    8 1    
    21   27    8 1    
    22   13    9 1    
    23   18   10 1    
    24   14   11 1    
    25   16   12 ar   
    26   19   12 1    
    27   14   13 1    
    28   17   14 2    
    29   17   15 1    
    30   28   15 1    
@<TRIPOS>SUBSTRUCTURE
     1 I461354     1 GROUP   
@<TRIPOS>SET

