#    Name: 2vtn_LZ7_1_INTS_M
#    Modification time : Tue Mar 25 02:54:25 2014

@<TRIPOS>MOLECULE
2vtn_LZ7_1_INTS_M
   44     0     9     0     0
SMALL
NO_CHARGES


@<TRIPOS>ATOM
      1 CA         23.5830    7.6790   62.2075 C.3       3 GLC5        0.0000 
      2 CA         24.2750    6.0400   61.0510 C.3       9 GLL5        0.0000 
      3 CA         22.8910    9.3180   63.3640 C.3       6 GLP5        0.0000 
      4 CA         25.4195    4.6025   59.8640 C.3       3 GLC5        0.0000 
      5 CA         26.5640    3.1650   58.6770 C.3       6 GLP5        0.0000 
      6 CA         23.9150    6.0395   59.0155 C.3       3 GLC5        0.0000 
      7 CA         23.5550    6.0390   56.9800 C.3       6 GLP5        0.0000 
      8 CA         26.5355    1.5215   62.9960 C.3       3 GLC5        0.0000 
      9 CA         26.3900    3.1130   63.7670 C.3       9 GLL5        0.0000 
     10 CA         26.6810   -0.0700   62.2250 C.3       6 GLP5        0.0000 
     11 CA         25.0010    2.0850   64.2350 C.3       3 GLC5        0.0000 
     12 CA         23.6120    1.0570   64.7030 C.3       6 GLP5        0.0000 
     13 O          27.2735    1.6650   65.1475 O.2       1 ALC1        0.0000 
     14 O          27.3230    2.7500   64.6350 O.2       7 ALL1        0.0000 
     15 O          27.2240    0.5800   65.6600 O.2       4 ALP1        0.0000 
     16 N          29.3110    2.9550   65.5675 N.am      2 SEC2        0.0000 
     17 N          28.1660    3.7680   64.9080 N.am      8 SEL2        0.0000 
     18 N          30.4560    2.1420   66.2270 N.am      5 SEP2        0.0000 
     19 O          30.6155    5.3335   65.5215 O.2       1 ALC1        0.0000 
     20 O          29.6540    6.0800   64.8810 O.2       7 ALL1        0.0000 
     21 O          31.5770    4.5870   66.1620 O.2       4 ALP1        0.0000 
     22 CA         33.3870   11.5895   63.7855 C.3       3 GLC5        0.0000 
     23 CA         33.0790   10.3340   65.4190 C.3       9 GLL5        0.0000 
     24 CA         33.6950   12.8450   62.1520 C.3       6 GLP5        0.0000 
     25 CA         25.8465    3.8825   65.1502 C.3       3 GLC5        0.0000 
     26 CA         26.6360    4.4170   63.4520 C.3       9 GLL5        0.0000 
     27 CA         25.1800    4.0000   66.6910 C.3       6 GLP5        0.0000 
     28 CA         27.7965    3.5225   62.5643 C.3       3 GLC5        0.0000 
     29 CA         29.0800    3.2800   61.5190 C.3       6 GLP5        0.0000 
     30 CA         29.1150    7.7157   66.5188 C.3       3 GLC5        0.0000 
     31 CA         30.5230    7.1520   65.0130 C.3       9 GLL5        0.0000 
     32 CA         27.3960    8.1530   67.4140 C.3       6 GLP5        0.0000 
     33 CA         30.5185    6.4920   62.8125 C.3       3 GLC5        0.0000 
     34 CA         30.3850    5.4140   61.1570 C.3       6 GLP5        0.0000 
     35 CA         32.8965    6.4450   66.6347 C.3       3 GLC5        0.0000 
     36 CA         31.1450    7.4050   66.2340 C.3       9 GLL5        0.0000 
     37 CA         34.2190    4.9480   66.9680 C.3       6 GLP5        0.0000 
     38 CA         33.8079    8.2553   64.7267 C.3       3 GLC5        0.0000 
     39 CA         32.0030    8.4790   66.3690 C.3       9 GLL5        0.0000 
     40 CA         35.0150    6.9010   63.8310 C.3       6 GLP5        0.0000 
     41 CA         33.1135    7.7122   63.9108 C.3       3 GLC5        0.0000 
     42 CA         31.6430    9.0590   64.0580 C.3       9 GLL5        0.0000 
     43 CA         31.8795    8.4953   61.9798 C.3       3 GLC5        0.0000 
     44 CA         32.5470    8.4670   59.9690 C.3       6 GLP5        0.0000 
@<TRIPOS>BOND
@<TRIPOS>SUBSTRUCTURE
     1 ALC1       13 GROUP        1 X    ALC  0     ROOT ALC X 1
     2 SEC2       16 GROUP        1 X    SEC  0     **** SEC X 2
     3 GLC5        1 GROUP        1 X    GLC  0     **** GLC X 6
     4 ALP1       15 GROUP        1 Y    ALP  0     ROOT ALP Y 8
     5 SEP2       18 GROUP        1 Y    SEP  0     **** SEP Y 9
     6 GLP5        3 GROUP        1 Y    GLP  0     **** GLP Y 13
     7 ALL1       14 GROUP        1 Z    ALL  0     ROOT ALL Z 15
     8 SEL2       17 GROUP        1 Z    SEL  0     **** SEL Z 16
     9 GLL5        2 GROUP        1 Z    GLL  0     **** GLL Z 20
@<TRIPOS>SET

