#    Name: 2vtn_LZ7_1_ligand
#    Modification time : Tue Mar 25 02:54:25 2014

@<TRIPOS>MOLECULE
2vtn_LZ7_1_ligand
   30    31     1     0     0
SMALL
NO_CHARGES


@<TRIPOS>ATOM
      1 C1         24.2750    6.0400   61.0510 C.3       1 LZ71299     0.0000 
      2 C2         24.8560    4.9370   61.8700 C.2       1 LZ71299     0.0000 
      3 O3         24.3790    3.8160   61.8750 O.2       1 LZ71299     0.0000 
      4 N4         25.9500    5.2560   62.5890 N.am      1 LZ71299     0.0000 
      5 C5         26.6360    4.4170   63.4520 C.2       1 LZ71299     0.0000 
      6 C6         26.3900    3.1130   63.7670 C.2       1 LZ71299     0.0000 
      7 N7         27.3230    2.7500   64.6350 N.pl3     1 LZ71299     0.0000 
      8 N9         28.1660    3.7680   64.9080 N.2       1 LZ71299     0.0000 
      9 C10        27.7600    4.7770   64.1830 C.2       1 LZ71299     0.0000 
     10 C11        28.4830    6.0710   64.2200 C.2       1 LZ71299     0.0000 
     11 O12        28.0460    7.0580   63.6490 O.2       1 LZ71299     0.0000 
     12 N13        29.6540    6.0800   64.8810 N.am      1 LZ71299     0.0000 
     13 C14        30.5230    7.1520   65.0130 C.ar      1 LZ71299     0.0000 
     14 C15        31.1450    7.4050   66.2340 C.ar      1 LZ71299     0.0000 
     15 C16        32.0030    8.4790   66.3690 C.ar      1 LZ71299     0.0000 
     16 C17        32.2420    9.2910   65.2830 C.ar      1 LZ71299     0.0000 
     17 F18        33.0790   10.3340   65.4190 F         1 LZ71299     0.0000 
     18 C19        31.6430    9.0590   64.0580 C.ar      1 LZ71299     0.0000 
     19 C20        30.7810    7.9880   63.9230 C.ar      1 LZ71299     0.0000 
     20 H          26.3409    6.2583   62.4935 H         1 LZ71299     0.0000 
     21 H          25.6753    2.5830   63.4161 H         1 LZ71299     0.0000 
     22 H          27.4031    1.8502   65.0395 H         1 LZ71299     0.0000 
     23 H          29.9645    5.1620   65.3661 H         1 LZ71299     0.0000 
     24 H          30.9604    6.7847   67.0369 H         1 LZ71299     0.0000 
     25 H          32.4570    8.6683   67.2708 H         1 LZ71299     0.0000 
     26 H          31.8367    9.6741   63.2613 H         1 LZ71299     0.0000 
     27 H          30.3237    7.7990   63.0198 H         1 LZ71299     0.0000 
     28 H          24.7840    6.8935   61.1630 H         1 LZ71299     0.0000 
     29 H          24.2811    5.8210   60.0753 H         1 LZ71299     0.0000 
     30 H          23.3260    6.2294   61.3030 H         1 LZ71299     0.0000 
@<TRIPOS>BOND
     1    2    1 1    
     2   28    1 1    
     3   29    1 1    
     4   30    1 1    
     5    3    2 2    
     6    4    2 am   
     7    5    4 1    
     8   20    4 1    
     9    6    5 2    
    10    9    5 1    
    11    7    6 1    
    12   21    6 1    
    13    8    7 1    
    14   22    7 1    
    15    9    8 2    
    16   10    9 1    
    17   11   10 2    
    18   12   10 am   
    19   13   12 1    
    20   23   12 1    
    21   14   13 ar   
    22   19   13 ar   
    23   15   14 ar   
    24   24   14 1    
    25   16   15 ar   
    26   25   15 1    
    27   17   16 1    
    28   18   16 ar   
    29   19   18 ar   
    30   26   18 1    
    31   27   19 1    
@<TRIPOS>SUBSTRUCTURE
     1 LZ71299     1 GROUP   
@<TRIPOS>SET

