#    Name: 3gz4_NAP_2_INTS_M
#    Modification time : Tue Mar 25 13:18:07 2014

@<TRIPOS>MOLECULE
3gz4_NAP_2_INTS_M
  103     0    12     0     0
SMALL
NO_CHARGES


@<TRIPOS>ATOM
      1 CA          3.4495  -24.0050   -6.6635 C.3       4 GLC5        0.0000 
      2 CA          3.7630  -24.1690   -8.7780 C.3      12 GLL5        0.0000 
      3 CA          3.1360  -23.8410   -4.5490 C.3       8 GLP5        0.0000 
      4 CA          3.4795  -25.3785  -11.7195 C.3       4 GLC5        0.0000 
      5 CA          2.9040  -24.2760  -10.0230 C.3      12 GLL5        0.0000 
      6 CA          4.0550  -26.4810  -13.4160 C.3       8 GLP5        0.0000 
      7 O           1.0995  -25.8090  -10.7375 O.2       1 ALC1        0.0000 
      8 O           2.0450  -25.3780   -9.9870 O.2       9 ALL1        0.0000 
      9 O           0.1540  -26.2400  -11.4880 O.2       5 ALP1        0.0000 
     10 CA          1.7605  -23.2660   -6.4635 C.3       4 GLC5        0.0000 
     11 CA          1.8470  -22.9630   -8.4360 C.3      12 GLL5        0.0000 
     12 CA          1.6740  -23.5690   -4.4910 C.3       8 GLP5        0.0000 
     13 CA         -1.8770  -19.5580   -5.3200 C.3       4 GLC5        0.0000 
     14 CA         -1.2870  -19.5230   -7.2130 C.3      12 GLL5        0.0000 
     15 CA         -2.4670  -19.5930   -3.4270 C.3       8 GLP5        0.0000 
     16 O          -2.9770  -17.9835   -7.2125 O.2       1 ALC1        0.0000 
     17 O          -1.4820  -18.2200   -7.0520 O.2       9 ALL1        0.0000 
     18 O          -4.4720  -17.7470   -7.3730 O.2       5 ALP1        0.0000 
     19 N          -3.3135  -19.8290   -5.9595 N.am      2 SEC2        0.0000 
     20 N          -2.3070  -20.4210   -6.9400 N.am     10 SEL2        0.0000 
     21 N          -4.3200  -19.2370   -4.9790 N.am      6 SEP2        0.0000 
     22 CA         -2.8140  -23.8160   -7.7445 C.3       4 GLC5        0.0000 
     23 CA         -2.1320  -21.7810   -7.0900 C.3      12 GLL5        0.0000 
     24 CA         -3.4960  -25.8510   -8.3990 C.3       8 GLP5        0.0000 
     25 CA         -3.3535  -21.6590   -8.4640 C.3       4 GLC5        0.0000 
     26 CA         -4.5750  -21.5370   -9.8380 C.3       8 GLP5        0.0000 
     27 CA         -4.0920  -20.8160   -6.8180 C.3       4 GLC5        0.0000 
     28 CA         -6.0520  -19.8510   -6.5460 C.3       8 GLP5        0.0000 
     29 CA         -2.3190  -21.4245   -5.0760 C.3       4 GLC5        0.0000 
     30 CA         -2.5060  -21.0680   -3.0620 C.3       8 GLP5        0.0000 
     31 CA          0.8840  -22.4735   -6.1285 C.3       4 GLC5        0.0000 
     32 CA          0.0940  -21.3780   -7.7660 C.3      12 GLL5        0.0000 
     33 N           8.4065  -27.6840   -9.3730 N.am      2 SEC2        0.0000 
     34 N           8.4020  -26.2290   -9.1590 N.am     10 SEL2        0.0000 
     35 N           8.4110  -29.1390   -9.5870 N.am      6 SEP2        0.0000 
     36 N          11.2145  -24.6420  -10.2310 N.am      2 SEC2        0.0000 
     37 N          10.4470  -24.6770   -9.1400 N.am     10 SEL2        0.0000 
     38 N          11.9820  -24.6070  -11.3220 N.am      6 SEP2        0.0000 
     39 CA          6.6040  -22.0325   -4.6670 C.3       4 GLC5        0.0000 
     40 CA          8.2230  -23.5160   -4.7910 C.3      12 GLL5        0.0000 
     41 CA          4.9850  -20.5490   -4.5430 C.3       8 GLP5        0.0000 
     42 CA          8.3355  -21.8985   -6.3010 C.3       4 GLC5        0.0000 
     43 CA          8.4480  -20.2810   -7.8110 C.3       8 GLP5        0.0000 
     44 N           8.4655  -22.2885   -2.3020 N.am      2 SEC2        0.0000 
     45 N           7.9450  -23.4210   -3.4010 N.am     10 SEL2        0.0000 
     46 N           8.9860  -21.1560   -1.2030 N.am      6 SEP2        0.0000 
     47 O           6.8270  -24.0720   -3.7080 O.2       1 ALC1        0.0000 
     48 O           7.9450  -23.4210   -3.4010 O.2       9 ALL1        0.0000 
     49 O           5.7090  -24.7230   -4.0150 O.2       5 ALP1        0.0000 
     50 CA         10.6670  -20.9670   -4.6150 C.3       4 GLC5        0.0000 
     51 CA          9.5190  -22.8300   -5.1110 C.3      12 GLL5        0.0000 
     52 CA         11.8150  -19.1040   -4.1190 C.3       8 GLP5        0.0000 
     53 CA          9.8650  -21.5475   -6.3925 C.3       4 GLC5        0.0000 
     54 CA         10.2110  -20.2650   -7.6740 C.3       8 GLP5        0.0000 
     55 N          10.6425  -21.0400   -4.4080 N.am      2 SEC2        0.0000 
     56 N           9.4830  -21.5850   -4.5100 N.am     10 SEL2        0.0000 
     57 N          11.8020  -20.4950   -4.3060 N.am      6 SEP2        0.0000 
     58 N           9.2345  -21.3705   -2.8565 N.am      2 SEC2        0.0000 
     59 CA         10.1815  -24.9425   -3.0595 C.3       4 GLC5        0.0000 
     60 CA         10.4880  -23.8100   -4.4790 C.3      12 GLL5        0.0000 
     61 CA          9.8750  -26.0750   -1.6400 C.3       8 GLP5        0.0000 
     62 CA         11.8855  -25.3110   -3.9345 C.3       4 GLC5        0.0000 
     63 CA         13.2830  -26.8120   -3.3900 C.3       8 GLP5        0.0000 
     64 N          16.0825  -25.4325   -8.8420 N.am      2 SEC2        0.0000 
     65 N          15.3000  -24.3750   -8.4050 N.am     10 SEL2        0.0000 
     66 N          16.8650  -26.4900   -9.2790 N.am      6 SEP2        0.0000 
     67 NZ          1.0120  -24.4835  -14.2780 N.4       3 LYC4        0.0000 
     68 NZ          0.2310  -24.3130  -12.8990 N.4      11 LYL4        0.0000 
     69 NZ          1.7930  -24.6540  -15.6570 N.4       7 LYP4        0.0000 
     70 N           0.1925  -25.2765  -12.1935 N.am      2 SEC2        0.0000 
     71 N           0.2310  -24.3130  -12.8990 N.am     10 SEL2        0.0000 
     72 N           0.1540  -26.2400  -11.4880 N.am      6 SEP2        0.0000 
     73 N           1.0120  -24.4835  -14.2780 N.am      2 SEC2        0.0000 
     74 N           1.7930  -24.6540  -15.6570 N.am      6 SEP2        0.0000 
     75 NZ         -0.8420  -21.0385  -11.9205 N.4       3 LYC4        0.0000 
     76 NZ         -0.1810  -21.9570  -12.4890 N.4      11 LYL4        0.0000 
     77 NZ         -0.5270  -19.2310  -11.2680 N.4       7 LYP4        0.0000 
     78 N          -0.8420  -21.0385  -11.9205 N.am      2 SEC2        0.0000 
     79 N          -0.1810  -21.9570  -12.4890 N.am     10 SEL2        0.0000 
     80 N          -1.5030  -20.1200  -11.3520 N.am      6 SEP2        0.0000 
     81 N           0.2195  -20.7185  -12.1855 N.am      2 SEC2        0.0000 
     82 N           0.6200  -19.4800  -11.8820 N.am      6 SEP2        0.0000 
     83 NZ          1.9690  -23.7415  -14.1510 N.4       3 LYC4        0.0000 
     84 NZ          2.1450  -22.8290  -12.6450 N.4      11 LYL4        0.0000 
     85 CA          0.2560  -18.9768   -5.7685 C.3       4 GLC5        0.0000 
     86 CA          1.1830  -18.1900   -4.1120 C.3       8 GLP5        0.0000 
     87 CA         -1.5448  -20.2889   -9.1472 C.3       4 GLC5        0.0000 
     88 CA         -0.0550  -20.0040   -7.6370 C.3      12 GLL5        0.0000 
     89 CA         -2.8010  -20.0070  -10.6990 C.3       8 GLP5        0.0000 
     90 CA          9.8880  -26.4307   -6.3980 C.3       4 GLC5        0.0000 
     91 CA          8.1110  -25.2910   -6.5040 C.3      12 GLL5        0.0000 
     92 CA         11.4330  -27.7410   -7.0010 C.3       8 GLP5        0.0000 
     93 CA          9.1370  -25.1540   -3.2893 C.3       4 GLC5        0.0000 
     94 CA          8.5750  -24.9500   -5.0860 C.3      12 GLL5        0.0000 
     95 CA         12.1645  -25.8937   -6.7175 C.3       4 GLC5        0.0000 
     96 CA         12.2310  -24.0350   -6.2320 C.3      12 GLL5        0.0000 
     97 CA         13.0895  -25.4293   -4.9120 C.3       4 GLC5        0.0000 
     98 CA         14.0628  -22.2587   -2.7817 C.3       4 GLC5        0.0000 
     99 CA         14.2060  -23.5540   -4.3490 C.3      12 GLL5        0.0000 
    100 CA         14.5890  -20.9570   -1.4080 C.3       8 GLP5        0.0000 
    101 CA         13.4530  -25.2184   -3.9406 C.3       4 GLC5        0.0000 
    102 CA          2.0890  -25.1520   -8.2922 C.3       4 GLC5        0.0000 
    103 CA          1.5520  -26.6800   -7.2940 C.3       8 GLP5        0.0000 
@<TRIPOS>BOND
@<TRIPOS>SUBSTRUCTURE
     1 ALC1        7 GROUP        1 X    ALC  0     ROOT ALC X 1
     2 SEC2       19 GROUP        1 X    SEC  0     **** SEC X 2
     3 LYC4       67 GROUP        1 X    LYC  0     **** LYC X 4
     4 GLC5        1 GROUP        1 X    GLC  0     **** GLC X 6
     5 ALP1        9 GROUP        1 Y    ALP  0     ROOT ALP Y 8
     6 SEP2       21 GROUP        1 Y    SEP  0     **** SEP Y 9
     7 LYP4       69 GROUP        1 Y    LYP  0     **** LYP Y 11
     8 GLP5        3 GROUP        1 Y    GLP  0     **** GLP Y 13
     9 ALL1        8 GROUP        1 Z    ALL  0     ROOT ALL Z 15
    10 SEL2       20 GROUP        1 Z    SEL  0     **** SEL Z 16
    11 LYL4       68 GROUP        1 Z    LYL  0     **** LYL Z 18
    12 GLL5        2 GROUP        1 Z    GLL  0     **** GLL Z 20
@<TRIPOS>SET

