#    Name: 3gz4_NAP_2_ligand
#    Modification time : Tue Mar 25 13:18:07 2014

@<TRIPOS>MOLECULE
3gz4_NAP_2_ligand
   73    77     1     0     0
SMALL
NO_CHARGES


@<TRIPOS>ATOM
      1 PA          7.0700  -23.6550  -10.8450 P.3       1 NAP500      0.0000 
      2 O1A         7.4110  -24.4270  -12.0400 O.co2     1 NAP500      0.0000 
      3 O2A         6.9190  -22.2160  -11.0430 O.co2     1 NAP500      0.0000 
      4 O5B         5.6740  -24.2260  -10.2720 O.3       1 NAP500      0.0000 
      5 C5B         5.1640  -23.6520   -9.0870 C.3       1 NAP500      0.0000 
      6 C4B         3.7630  -24.1690   -8.7780 C.3       1 NAP500      0.0000 
      7 O4B         3.1340  -23.2370   -7.9220 O.3       1 NAP500      0.0000 
      8 C3B         2.9040  -24.2760  -10.0230 C.3       1 NAP500      0.0000 
      9 O3B         2.0450  -25.3780   -9.9870 O.3       1 NAP500      0.0000 
     10 C2B         1.9900  -23.0880   -9.9250 C.3       1 NAP500      0.0000 
     11 O2B         0.7660  -23.3170  -10.5710 O.3       1 NAP500      0.0000 
     12 C1B         1.8470  -22.9630   -8.4360 C.3       1 NAP500      0.0000 
     13 N9A         1.3830  -21.5930   -8.1860 N.pl3     1 NAP500      0.0000 
     14 C8A         2.0320  -20.3830   -8.3170 C.2       1 NAP500      0.0000 
     15 N7A         1.1330  -19.4250   -7.9670 N.2       1 NAP500      0.0000 
     16 C5A        -0.0550  -20.0040   -7.6370 C.ar      1 NAP500      0.0000 
     17 C6A        -1.2870  -19.5230   -7.2130 C.ar      1 NAP500      0.0000 
     18 N6A        -1.4820  -18.2200   -7.0520 N.pl3     1 NAP500      0.0000 
     19 N1A        -2.3070  -20.4210   -6.9400 N.ar      1 NAP500      0.0000 
     20 C2A        -2.1320  -21.7810   -7.0900 C.ar      1 NAP500      0.0000 
     21 N3A        -0.9140  -22.2590   -7.5160 N.ar      1 NAP500      0.0000 
     22 C4A         0.0940  -21.3780   -7.7660 C.ar      1 NAP500      0.0000 
     23 O3          8.2440  -23.7660   -9.7690 O.3       1 NAP500      0.0000 
     24 PN          9.0020  -24.8940   -8.9370 P.3       1 NAP500      0.0000 
     25 O1N         8.4020  -26.2290   -9.1590 O.co2     1 NAP500      0.0000 
     26 O2N        10.4470  -24.6770   -9.1400 O.co2     1 NAP500      0.0000 
     27 O5D         8.6930  -24.3970   -7.4280 O.3       1 NAP500      0.0000 
     28 C5D         8.1110  -25.2910   -6.5040 C.3       1 NAP500      0.0000 
     29 C4D         8.5750  -24.9500   -5.0860 C.3       1 NAP500      0.0000 
     30 O4D         9.9890  -25.0330   -4.9480 O.3       1 NAP500      0.0000 
     31 C3D         8.2230  -23.5160   -4.7910 C.3       1 NAP500      0.0000 
     32 O3D         7.9450  -23.4210   -3.4010 O.3       1 NAP500      0.0000 
     33 C2D         9.5190  -22.8300   -5.1110 C.3       1 NAP500      0.0000 
     34 O2D         9.4830  -21.5850   -4.5100 O.3       1 NAP500      0.0000 
     35 C1D        10.4880  -23.8100   -4.4790 C.3       1 NAP500      0.0000 
     36 N1N        11.8970  -23.7840   -4.9130 N.pl3     1 NAP500      0.0000 
     37 C2N        12.2310  -24.0350   -6.2320 C.ar      1 NAP500      0.0000 
     38 C3N        13.5610  -24.0580   -6.6360 C.ar      1 NAP500      0.0000 
     39 C7N        13.9550  -24.4910   -8.0280 C.2       1 NAP500      0.0000 
     40 O7N        15.3000  -24.3750   -8.4050 O.2       1 NAP500      0.0000 
     41 N7N        13.0610  -24.9370   -8.8930 N.am      1 NAP500      0.0000 
     42 C4N        14.5520  -23.8110   -5.6920 C.ar      1 NAP500      0.0000 
     43 C5N        14.2060  -23.5540   -4.3490 C.ar      1 NAP500      0.0000 
     44 C6N        12.8670  -23.5670   -3.9620 C.ar      1 NAP500      0.0000 
     45 P2B         0.7480  -23.0930  -12.1700 P.3       1 NAP500      0.0000 
     46 O1X         0.2310  -24.3130  -12.8990 O.co2     1 NAP500      0.0000 
     47 O2X        -0.1810  -21.9570  -12.4890 O.co2     1 NAP500      0.0000 
     48 O3X         2.1450  -22.8290  -12.6450 O.co2     1 NAP500      0.0000 
     49 H           5.1020  -22.5507   -9.1555 H         1 NAP500      0.0000 
     50 H           5.8001  -23.8783   -8.2120 H         1 NAP500      0.0000 
     51 H           3.8374  -25.1304   -8.3193 H         1 NAP500      0.0000 
     52 H           3.4827  -24.1895  -10.8779 H         1 NAP500      0.0000 
     53 H           2.5256  -22.2359  -10.2775 H         1 NAP500      0.0000 
     54 H           1.1209  -23.6746   -8.1223 H         1 NAP500      0.0000 
     55 H           2.9261  -20.2571   -8.5961 H         1 NAP500      0.0000 
     56 H          -2.4103  -17.8896   -7.2227 H         1 NAP500      0.0000 
     57 H          -0.6830  -17.6865   -6.7745 H         1 NAP500      0.0000 
     58 H          -2.9031  -22.4283   -6.8856 H         1 NAP500      0.0000 
     59 H           8.3945  -26.3342   -6.7005 H         1 NAP500      0.0000 
     60 H           7.0135  -25.2400   -6.5118 H         1 NAP500      0.0000 
     61 H           8.0663  -25.5729   -4.3875 H         1 NAP500      0.0000 
     62 H           7.4768  -23.2013   -5.4208 H         1 NAP500      0.0000 
     63 H           9.6423  -22.8443   -6.1503 H         1 NAP500      0.0000 
     64 H          10.3966  -23.7683   -3.4216 H         1 NAP500      0.0000 
     65 H          11.4848  -24.2078   -6.9276 H         1 NAP500      0.0000 
     66 H          12.1169  -24.9816   -8.5665 H         1 NAP500      0.0000 
     67 H          13.4098  -25.1894   -9.7956 H         1 NAP500      0.0000 
     68 H          15.5418  -23.8138   -5.9650 H         1 NAP500      0.0000 
     69 H          14.9425  -23.3591   -3.6653 H         1 NAP500      0.0000 
     70 H          12.6171  -23.4161   -2.9802 H         1 NAP500      0.0000 
     71 H           1.4664  -25.2815  -10.7969 H         1 NAP500      0.0000 
     72 H           7.0575  -23.8666   -3.2836 H         1 NAP500      0.0000 
     73 H           8.8074  -21.6707   -3.7778 H         1 NAP500      0.0000 
@<TRIPOS>BOND
     1    2    1 ar   
     2    3    1 ar   
     3    4    1 1    
     4   23    1 1    
     5    5    4 1    
     6    6    5 1    
     7   49    5 1    
     8   50    5 1    
     9    7    6 1    
    10    8    6 1    
    11   51    6 1    
    12   12    7 1    
    13    9    8 1    
    14   10    8 1    
    15   52    8 1    
    16   71    9 1    
    17   11   10 1    
    18   12   10 1    
    19   53   10 1    
    20   45   11 1    
    21   13   12 1    
    22   54   12 1    
    23   14   13 1    
    24   22   13 1    
    25   15   14 2    
    26   55   14 1    
    27   16   15 1    
    28   17   16 ar   
    29   22   16 ar   
    30   18   17 1    
    31   19   17 ar   
    32   56   18 1    
    33   57   18 1    
    34   20   19 ar   
    35   21   20 ar   
    36   58   20 1    
    37   22   21 ar   
    38   24   23 1    
    39   25   24 ar   
    40   26   24 ar   
    41   27   24 1    
    42   28   27 1    
    43   29   28 1    
    44   59   28 1    
    45   60   28 1    
    46   30   29 1    
    47   31   29 1    
    48   61   29 1    
    49   35   30 1    
    50   32   31 1    
    51   33   31 1    
    52   62   31 1    
    53   72   32 1    
    54   34   33 1    
    55   35   33 1    
    56   63   33 1    
    57   73   34 1    
    58   36   35 1    
    59   64   35 1    
    60   37   36 ar   
    61   44   36 ar   
    62   38   37 ar   
    63   65   37 1    
    64   39   38 1    
    65   42   38 ar   
    66   40   39 2    
    67   41   39 am   
    68   66   41 1    
    69   67   41 1    
    70   43   42 ar   
    71   68   42 1    
    72   44   43 ar   
    73   69   43 1    
    74   70   44 1    
    75   46   45 ar   
    76   47   45 ar   
    77   48   45 ar   
@<TRIPOS>SUBSTRUCTURE
     1 NAP500      1 GROUP   
@<TRIPOS>SET

