#    Name: 2i5b_ADP_3_INTS_M
#    Modification time : Tue Mar 25 17:28:56 2014

@<TRIPOS>MOLECULE
2i5b_ADP_3_INTS_M
   77     0    12     0     0
SMALL
NO_CHARGES


@<TRIPOS>ATOM
      1 NZ         20.9445  -38.4105   -4.5445 N.4       3 LYC4        0.0000 
      2 NZ         20.1250  -38.2240   -5.5310 N.4      11 LYL4        0.0000 
      3 NZ         21.7640  -38.5970   -3.5580 N.4       7 LYP4        0.0000 
      4 N          19.0765  -37.2980   -5.0525 N.am      2 SEC2        0.0000 
      5 N          20.1250  -38.2240   -5.5310 N.am     10 SEL2        0.0000 
      6 N          18.0280  -36.3720   -4.5740 N.am      6 SEP2        0.0000 
      7 N          20.9445  -38.4105   -4.5445 N.am      2 SEC2        0.0000 
      8 N          21.7640  -38.5970   -3.5580 N.am      6 SEP2        0.0000 
      9 N          20.1750  -39.7540   -8.8715 N.am      2 SEC2        0.0000 
     10 N          21.0670  -39.0410   -7.7650 N.am     10 SEL2        0.0000 
     11 N          19.2830  -40.4670   -9.9780 N.am      6 SEP2        0.0000 
     12 N          18.3980  -37.1485   -6.0980 N.am      2 SEC2        0.0000 
     13 N          18.7680  -37.9250   -7.6220 N.am     10 SEL2        0.0000 
     14 NZ         21.2270  -40.0550   -4.4225 N.4       3 LYC4        0.0000 
     15 NZ         20.6900  -41.5130   -5.2870 N.4      11 LYL4        0.0000 
     16 NZ         20.0945  -39.6155   -3.9505 N.4       3 LYC4        0.0000 
     17 NZ         18.4250  -40.6340   -4.3430 N.4      11 LYL4        0.0000 
     18 N          17.1720  -40.8415   -4.3360 N.am      2 SEC2        0.0000 
     19 N          18.4250  -40.6340   -4.3430 N.am     10 SEL2        0.0000 
     20 N          15.9190  -41.0490   -4.3290 N.am      6 SEP2        0.0000 
     21 CA         18.4330  -41.5645   -8.5380 C.3       4 GLC5        0.0000 
     22 CA         18.9790  -43.0290   -7.3160 C.3      12 GLL5        0.0000 
     23 CA         17.8870  -40.1000   -9.7600 C.3       8 GLP5        0.0000 
     24 CA         17.2090  -44.2620   -8.8165 C.3       4 GLC5        0.0000 
     25 CA         18.6390  -44.5200   -7.3070 C.3      12 GLL5        0.0000 
     26 CA         15.7790  -44.0040  -10.3260 C.3       8 GLP5        0.0000 
     27 CA         16.7140  -43.7220   -5.1500 C.3       4 GLC5        0.0000 
     28 CA         17.8660  -45.0200   -6.1080 C.3      12 GLL5        0.0000 
     29 CA         15.5620  -42.4240   -4.1920 C.3       8 GLP5        0.0000 
     30 O          16.4535  -46.7370   -5.3965 O.2       1 ALC1        0.0000 
     31 O          17.1860  -46.1940   -6.5370 O.2       9 ALL1        0.0000 
     32 O          15.7210  -47.2800   -4.2560 O.2       5 ALP1        0.0000 
     33 CA         19.8145  -45.3455   -3.3260 C.3       4 GLC5        0.0000 
     34 CA         18.9600  -45.4390   -5.1690 C.3      12 GLL5        0.0000 
     35 CA         20.6690  -45.2520   -1.4830 C.3       8 GLP5        0.0000 
     36 O          17.3800  -45.9910   -3.5280 O.2       1 ALC1        0.0000 
     37 O          18.5160  -46.3410   -4.1520 O.2       9 ALL1        0.0000 
     38 O          16.2440  -45.6410   -2.9040 O.2       5 ALP1        0.0000 
     39 CA         19.0330  -47.0265   -7.6445 C.3       4 GLC5        0.0000 
     40 CA         20.0010  -46.0300   -6.1100 C.3      12 GLL5        0.0000 
     41 CA         18.0650  -48.0230   -9.1790 C.3       8 GLP5        0.0000 
     42 CA         21.4670  -46.1230   -7.2360 C.3       4 GLC5        0.0000 
     43 CA         22.9330  -46.2160   -8.3620 C.3       8 GLP5        0.0000 
     44 N          23.0430  -44.5625   -3.1110 N.am      2 SEC2        0.0000 
     45 N          23.1750  -44.7950   -4.6910 N.am     10 SEL2        0.0000 
     46 N          22.9110  -44.3300   -1.5310 N.am      6 SEP2        0.0000 
     47 CA         23.8305  -45.0230   -2.8620 C.3       4 GLC5        0.0000 
     48 CA         23.4360  -46.1150   -4.7090 C.3      12 GLL5        0.0000 
     49 CA         24.2250  -43.9310   -1.0150 C.3       8 GLP5        0.0000 
     50 CA         24.7000  -44.8180   -5.9045 C.3       4 GLC5        0.0000 
     51 CA         25.9640  -43.5210   -7.1000 C.3       8 GLP5        0.0000 
     52 CA         24.7135  -47.4080   -2.2445 C.3       4 GLC5        0.0000 
     53 CA         24.5650  -46.9890   -4.3210 C.3      12 GLL5        0.0000 
     54 CA         24.8620  -47.8270   -0.1680 C.3       8 GLP5        0.0000 
     55 CA         25.2710  -47.1375   -6.2135 C.3       4 GLC5        0.0000 
     56 CA         25.9770  -47.2860   -8.1060 C.3       8 GLP5        0.0000 
     57 O          26.9310  -47.1945   -3.7485 O.2       1 ALC1        0.0000 
     58 O          25.6860  -46.4750   -3.7990 O.2       9 ALL1        0.0000 
     59 O          28.1760  -47.9140   -3.6980 O.2       5 ALP1        0.0000 
     60 N          25.5220  -49.2415   -4.0510 N.am      2 SEC2        0.0000 
     61 N          24.4440  -48.3190   -4.5100 N.am     10 SEL2        0.0000 
     62 N          26.6000  -50.1640   -3.5920 N.am      6 SEP2        0.0000 
     63 CA         22.3175  -49.1225   -3.6470 C.3       4 GLC5        0.0000 
     64 CA         23.3250  -48.8580   -5.0290 C.3      12 GLL5        0.0000 
     65 CA         21.3100  -49.3870   -2.2650 C.3       8 GLP5        0.0000 
     66 CA         24.2485  -49.8790   -3.4180 C.3       4 GLC5        0.0000 
     67 CA         25.1720  -50.9000   -1.8070 C.3       8 GLP5        0.0000 
     68 CA         24.4980  -50.1885   -5.7290 C.3       4 GLC5        0.0000 
     69 CA         25.6710  -51.5190   -6.4290 C.3       8 GLP5        0.0000 
     70 CA         23.1290  -47.5370   -6.6955 C.3       4 GLC5        0.0000 
     71 CA         21.7795  -48.0835   -3.7670 C.3       4 GLC5        0.0000 
     72 CA         22.2490  -46.7800   -5.2690 C.3      12 GLL5        0.0000 
     73 CA         20.2560  -43.0037   -8.3498 C.3       4 GLC5        0.0000 
     74 CA         21.7030  -42.2330   -9.3880 C.3       8 GLP5        0.0000 
     75 CA         18.1587  -46.3965   -7.9432 C.3       4 GLC5        0.0000 
     76 CA         21.7557  -45.8498   -3.2360 C.3       4 GLC5        0.0000 
     77 CA         22.8878  -46.3317   -6.6755 C.3       4 GLC5        0.0000 
@<TRIPOS>BOND
@<TRIPOS>SUBSTRUCTURE
     1 ALC1       30 GROUP        1 X    ALC  0     ROOT ALC X 1
     2 SEC2        4 GROUP        1 X    SEC  0     **** SEC X 2
     3 LYC4        1 GROUP        1 X    LYC  0     **** LYC X 4
     4 GLC5       21 GROUP        1 X    GLC  0     **** GLC X 6
     5 ALP1       32 GROUP        1 Y    ALP  0     ROOT ALP Y 8
     6 SEP2        6 GROUP        1 Y    SEP  0     **** SEP Y 9
     7 LYP4        3 GROUP        1 Y    LYP  0     **** LYP Y 11
     8 GLP5       23 GROUP        1 Y    GLP  0     **** GLP Y 13
     9 ALL1       31 GROUP        1 Z    ALL  0     ROOT ALL Z 15
    10 SEL2        5 GROUP        1 Z    SEL  0     **** SEL Z 16
    11 LYL4        2 GROUP        1 Z    LYL  0     **** LYL Z 18
    12 GLL5       22 GROUP        1 Z    GLL  0     **** GLL Z 20
@<TRIPOS>SET

