#    Name: 2i5b_ADP_3_ligand
#    Modification time : Tue Mar 25 17:28:56 2014

@<TRIPOS>MOLECULE
2i5b_ADP_3_ligand
   39    41     1     0     0
SMALL
NO_CHARGES


@<TRIPOS>ATOM
      1 PB         19.8440  -38.7240   -6.9180 P.3       1 ADP401      0.0000 
      2 O1B        20.1250  -38.2240   -5.5310 O.co2     1 ADP401      0.0000 
      3 O2B        21.0670  -39.0410   -7.7650 O.co2     1 ADP401      0.0000 
      4 O3B        18.7680  -37.9250   -7.6220 O.co2     1 ADP401      0.0000 
      5 PA         19.2580  -41.1250   -5.4920 P.3       1 ADP401      0.0000 
      6 O1A        20.6900  -41.5130   -5.2870 O.co2     1 ADP401      0.0000 
      7 O2A        18.4250  -40.6340   -4.3430 O.co2     1 ADP401      0.0000 
      8 O3A        19.0890  -40.1230   -6.7270 O.3       1 ADP401      0.0000 
      9 O5'        18.5150  -42.4060   -6.1300 O.3       1 ADP401      0.0000 
     10 C5'        18.9790  -43.0290   -7.3160 C.3       1 ADP401      0.0000 
     11 C4'        18.6390  -44.5200   -7.3070 C.3       1 ADP401      0.0000 
     12 O4'        19.8490  -45.2830   -7.3090 O.3       1 ADP401      0.0000 
     13 C3'        17.8660  -45.0200   -6.1080 C.3       1 ADP401      0.0000 
     14 O3'        17.1860  -46.1940   -6.5370 O.3       1 ADP401      0.0000 
     15 C2'        18.9600  -45.4390   -5.1690 C.3       1 ADP401      0.0000 
     16 O2'        18.5160  -46.3410   -4.1520 O.3       1 ADP401      0.0000 
     17 C1'        20.0010  -46.0300   -6.1100 C.3       1 ADP401      0.0000 
     18 N9         21.3720  -45.8150   -5.5520 N.pl3     1 ADP401      0.0000 
     19 C8         21.9240  -44.6260   -5.2030 C.2       1 ADP401      0.0000 
     20 N7         23.1750  -44.7950   -4.6910 N.2       1 ADP401      0.0000 
     21 C5         23.4360  -46.1150   -4.7090 C.ar      1 ADP401      0.0000 
     22 C6         24.5650  -46.9890   -4.3210 C.ar      1 ADP401      0.0000 
     23 N6         25.6860  -46.4750   -3.7990 N.pl3     1 ADP401      0.0000 
     24 N1         24.4440  -48.3190   -4.5100 N.ar      1 ADP401      0.0000 
     25 C2         23.3250  -48.8580   -5.0290 C.ar      1 ADP401      0.0000 
     26 N3         22.2540  -48.1270   -5.3960 N.ar      1 ADP401      0.0000 
     27 C4         22.2490  -46.7800   -5.2690 C.ar      1 ADP401      0.0000 
     28 H          20.0702  -42.9396   -7.4279 H         1 ADP401      0.0000 
     29 H          18.5221  -42.5914   -8.2166 H         1 ADP401      0.0000 
     30 H          18.0701  -44.7574   -8.2029 H         1 ADP401      0.0000 
     31 H          17.2893  -44.2885   -5.7150 H         1 ADP401      0.0000 
     32 H          19.3934  -44.5288   -4.7588 H         1 ADP401      0.0000 
     33 H          19.7979  -47.0510   -6.2466 H         1 ADP401      0.0000 
     34 H          21.4829  -43.7570   -5.3047 H         1 ADP401      0.0000 
     35 H          26.3892  -47.1338   -3.5316 H         1 ADP401      0.0000 
     36 H          25.7195  -45.4784   -3.7234 H         1 ADP401      0.0000 
     37 H          23.2834  -49.9147   -5.1562 H         1 ADP401      0.0000 
     38 H          16.6869  -46.5129   -5.7313 H         1 ADP401      0.0000 
     39 H          17.6843  -45.9259   -3.7832 H         1 ADP401      0.0000 
@<TRIPOS>BOND
     1    2    1 ar   
     2    3    1 ar   
     3    4    1 ar   
     4    8    1 1    
     5    6    5 ar   
     6    7    5 ar   
     7    8    5 1    
     8    9    5 1    
     9   10    9 1    
    10   11   10 1    
    11   28   10 1    
    12   29   10 1    
    13   12   11 1    
    14   13   11 1    
    15   30   11 1    
    16   17   12 1    
    17   14   13 1    
    18   15   13 1    
    19   31   13 1    
    20   38   14 1    
    21   16   15 1    
    22   17   15 1    
    23   32   15 1    
    24   39   16 1    
    25   18   17 1    
    26   33   17 1    
    27   19   18 1    
    28   27   18 1    
    29   20   19 2    
    30   34   19 1    
    31   21   20 1    
    32   22   21 ar   
    33   27   21 ar   
    34   23   22 1    
    35   24   22 ar   
    36   35   23 1    
    37   36   23 1    
    38   25   24 ar   
    39   26   25 ar   
    40   37   25 1    
    41   27   26 ar   
@<TRIPOS>SUBSTRUCTURE
     1 ADP401      1 GROUP   
@<TRIPOS>SET

