#    Name: 1npw_LGZ_1_INTS_M
#    Modification time : Mon Mar 24 18:33:21 2014

@<TRIPOS>MOLECULE
1npw_LGZ_1_INTS_M
  108     0    12     0     0
SMALL
NO_CHARGES


@<TRIPOS>ATOM
      1 N          17.8915   20.3470    5.3070 N.am      2 SEC2        0.0000 
      2 N          16.3590   20.2300    4.8580 N.am     10 SEL2        0.0000 
      3 N          19.4240   20.4640    5.7560 N.am      6 SEP2        0.0000 
      4 O          17.0670   22.7780    5.4855 O.2       1 ALC1        0.0000 
      5 O          15.5800   22.1280    5.6740 O.2       9 ALL1        0.0000 
      6 O          18.5540   23.4280    5.2970 O.2       5 ALP1        0.0000 
      7 N          15.4325   25.1525    3.4925 N.am      2 SEC2        0.0000 
      8 N          14.9650   24.8220    4.6790 N.am     10 SEL2        0.0000 
      9 N          15.9000   25.4830    2.3060 N.am      6 SEP2        0.0000 
     10 O          15.0740   25.9325    5.3400 O.2       1 ALC1        0.0000 
     11 O          14.9650   24.8220    4.6790 O.2       9 ALL1        0.0000 
     12 O          15.1830   27.0430    6.0010 O.2       5 ALP1        0.0000 
     13 O          15.4075   26.3850    4.4060 O.2       1 ALC1        0.0000 
     14 O          15.8500   27.9480    4.1330 O.2       5 ALP1        0.0000 
     15 CA          7.4850   21.9260    2.3850 C.3       4 GLC5        0.0000 
     16 CA          8.7640   23.3480    2.8700 C.3      12 GLL5        0.0000 
     17 CA          6.2060   20.5040    1.9000 C.3       8 GLP5        0.0000 
     18 N           9.8155   21.3390    5.3880 N.am      2 SEC2        0.0000 
     19 N          10.5420   22.9290    5.4510 N.am     10 SEL2        0.0000 
     20 N           9.0890   19.7490    5.3250 N.am      6 SEP2        0.0000 
     21 CA          8.5665   23.5425    6.1660 C.3       4 GLC5        0.0000 
     22 CA          9.5250   25.5000    6.5350 C.3      12 GLL5        0.0000 
     23 CA          7.6080   21.5850    5.7970 C.3       8 GLP5        0.0000 
     24 OD1        13.6780   26.3035    4.9110 O.co2     3 ASC3        0.0000 
     25 OD1        12.1730   25.5640    3.8210 O.co2    11 ASL3        0.0000 
     26 OD1        15.1830   27.0430    6.0010 O.co2     7 ASP3        0.0000 
     27 CA         11.4950   27.9880    5.0410 C.3       4 GLC5        0.0000 
     28 CA         11.2700   26.1570    4.7970 C.3      12 GLL5        0.0000 
     29 CA         11.7200   29.8190    5.2850 C.3       8 GLP5        0.0000 
     30 CA         13.1185   22.4575    9.5895 C.3       4 GLC5        0.0000 
     31 CA         15.1370   21.8960    9.1690 C.3      12 GLL5        0.0000 
     32 CA         11.1000   23.0190   10.0100 C.3       8 GLP5        0.0000 
     33 CA         14.9660   20.1595   11.7310 C.3       4 GLC5        0.0000 
     34 CA         15.5790   20.7920    9.9160 C.3      12 GLL5        0.0000 
     35 CA         14.3530   19.5270   13.5460 C.3       8 GLP5        0.0000 
     36 CA         16.3455   20.0105   12.0425 C.3       4 GLC5        0.0000 
     37 CA         16.9330   20.4340    9.9640 C.3      12 GLL5        0.0000 
     38 CA         15.7580   19.5870   14.1210 C.3       8 GLP5        0.0000 
     39 CA         16.7870   16.1570    3.8120 C.3       4 GLC5        0.0000 
     40 CA         17.5580   18.2690    3.8740 C.3      12 GLL5        0.0000 
     41 CA         16.0160   14.0450    3.7500 C.3       8 GLP5        0.0000 
     42 N          19.0480   18.8865    1.5610 N.am      2 SEC2        0.0000 
     43 N          17.8440   18.4280    2.5150 N.am     10 SEL2        0.0000 
     44 N          20.2520   19.3450    0.6070 N.am      6 SEP2        0.0000 
     45 CA         18.0880   17.8270    0.6680 C.3       4 GLC5        0.0000 
     46 CA         16.6140   18.4100    1.7530 C.3      12 GLL5        0.0000 
     47 CA         19.5620   17.2440   -0.4170 C.3       8 GLP5        0.0000 
     48 CA         13.3925   18.8975    3.1105 C.3       4 GLC5        0.0000 
     49 CA         15.5140   18.8350    2.7580 C.3      12 GLL5        0.0000 
     50 CA         11.2710   18.9600    3.4630 C.3       8 GLP5        0.0000 
     51 N           9.0155   30.0690    4.5165 N.am      2 SEC2        0.0000 
     52 N           8.2490   28.8630    3.7620 N.am     10 SEL2        0.0000 
     53 N           9.7820   31.2750    5.2710 N.am      6 SEP2        0.0000 
     54 CA         11.3433   22.6420    1.2312 C.3       4 GLC5        0.0000 
     55 CA          9.8450   24.0490    2.3930 C.3      12 GLL5        0.0000 
     56 CA         12.1290   21.4870   -0.0110 C.3       8 GLP5        0.0000 
     57 CA          9.2605   24.3758    0.1810 C.3       4 GLC5        0.0000 
     58 CA          8.7710   24.0930   -1.7130 C.3       8 GLP5        0.0000 
     59 CA         10.0047   26.6003    0.3855 C.3       4 GLC5        0.0000 
     60 CA          9.6550   25.2680    1.7570 C.3      12 GLL5        0.0000 
     61 CA         10.9750   27.6710   -0.8950 C.3       8 GLP5        0.0000 
     62 CA          8.3238   24.7728    0.0502 C.3       4 GLC5        0.0000 
     63 CA          8.4140   25.7910    1.5750 C.3      12 GLL5        0.0000 
     64 CA          6.5513   22.9755    1.6125 C.3       4 GLC5        0.0000 
     65 CA          7.3390   25.1140    2.0520 C.3      12 GLL5        0.0000 
     66 CA          5.6710   21.4500    0.8560 C.3       8 GLP5        0.0000 
     67 CA          7.8760   22.6015    4.2875 C.3       4 GLC5        0.0000 
     68 CA          7.5240   23.8880    2.6860 C.3      12 GLL5        0.0000 
     69 CA          6.6813   26.5183    9.2485 C.3       4 GLC5        0.0000 
     70 CA          7.4440   26.6540    7.2600 C.3      12 GLL5        0.0000 
     71 CA          5.3220   26.1290   10.8620 C.3       8 GLP5        0.0000 
     72 CA          8.7185   30.1807    9.6532 C.3       4 GLC5        0.0000 
     73 CA          8.6320   28.1110    9.0310 C.3      12 GLL5        0.0000 
     74 CA          8.2100   32.1210    9.9470 C.3       8 GLP5        0.0000 
     75 CA         10.3035   27.9928   10.8993 C.3       4 GLC5        0.0000 
     76 CA          9.8220   28.3700    9.6880 C.3      12 GLL5        0.0000 
     77 CA         11.3800   27.7450   12.4390 C.3       8 GLP5        0.0000 
     78 CA          8.3295   27.1988   10.7978 C.3       4 GLC5        0.0000 
     79 CA          7.4320   26.1570   12.2360 C.3       8 GLP5        0.0000 
     80 CA         11.4162   28.8015    8.0525 C.3       4 GLC5        0.0000 
     81 CA         12.4180   29.5630    6.6020 C.3       8 GLP5        0.0000 
     82 CA         11.1945   27.4937   10.6180 C.3       4 GLC5        0.0000 
     83 CA         11.0070   27.7100    9.3180 C.3      12 GLL5        0.0000 
     84 CA         12.9630   27.8727    9.1360 C.3       4 GLC5        0.0000 
     85 CA         14.9170   28.5030    9.4750 C.3       8 GLP5        0.0000 
     86 CA         11.4160   28.1020    7.2758 C.3       4 GLC5        0.0000 
     87 CA         11.0110   26.7750    8.2760 C.3      12 GLL5        0.0000 
     88 CA         10.7570   24.8300    8.9797 C.3       4 GLC5        0.0000 
     89 CA         16.6303   22.8900   10.4050 C.3       4 GLC5        0.0000 
     90 CA         16.0460   22.6460    8.4050 C.3      12 GLL5        0.0000 
     91 CA         17.6690   23.5090   12.0230 C.3       8 GLP5        0.0000 
     92 CA         15.0226   24.0280    9.6291 C.3       4 GLC5        0.0000 
     93 CA         14.5950   25.5090   10.7000 C.3       8 GLP5        0.0000 
     94 CA         14.1775   19.8585    8.7413 C.3       4 GLC5        0.0000 
     95 CA         12.9970   18.3730    7.9400 C.3       8 GLP5        0.0000 
     96 CA         16.9625   22.0610   10.9815 C.3       4 GLC5        0.0000 
     97 CA         17.6517   22.6355   10.4465 C.3       4 GLC5        0.0000 
     98 CA         17.8570   21.2140    9.2590 C.3      12 GLL5        0.0000 
     99 CA         17.9969   24.1115    8.3446 C.3       4 GLC5        0.0000 
    100 CA         17.4120   22.3100    8.4810 C.3      12 GLL5        0.0000 
    101 CA         19.4060   25.4690    8.4750 C.3       8 GLP5        0.0000 
    102 CA         16.7864   20.5714    2.0570 C.3       4 GLC5        0.0000 
    103 CA         16.3970   19.1880    3.9240 C.3      12 GLL5        0.0000 
    104 CA         17.2880   22.4320    1.5670 C.3       8 GLP5        0.0000 
    105 CA         15.4160   17.9973    0.6677 C.3       4 GLC5        0.0000 
    106 CA         14.7680   17.3720   -0.9200 C.3       8 GLP5        0.0000 
    107 CA         15.2770   16.7823    2.0998 C.3       4 GLC5        0.0000 
    108 CA         14.4900   14.9420    1.9440 C.3       8 GLP5        0.0000 
@<TRIPOS>BOND
@<TRIPOS>SUBSTRUCTURE
     1 ALC1        4 GROUP        1 X    ALC  0     ROOT ALC X 1
     2 SEC2        1 GROUP        1 X    SEC  0     **** SEC X 2
     3 ASC3       24 GROUP        1 X    ASC  0     **** ASC X 3
     4 GLC5       15 GROUP        1 X    GLC  0     **** GLC X 6
     5 ALP1        6 GROUP        1 Y    ALP  0     ROOT ALP Y 8
     6 SEP2        3 GROUP        1 Y    SEP  0     **** SEP Y 9
     7 ASP3       26 GROUP        1 Y    ASP  0     **** ASP Y 10
     8 GLP5       17 GROUP        1 Y    GLP  0     **** GLP Y 13
     9 ALL1        5 GROUP        1 Z    ALL  0     ROOT ALL Z 15
    10 SEL2        2 GROUP        1 Z    SEL  0     **** SEL Z 16
    11 ASL3       25 GROUP        1 Z    ASL  0     **** ASL Z 17
    12 GLL5       16 GROUP        1 Z    GLL  0     **** GLL Z 20
@<TRIPOS>SET

