#    Name: 2vou_FAD_2_INTS_M
#    Modification time : Tue Mar 25 02:18:19 2014

@<TRIPOS>MOLECULE
2vou_FAD_2_INTS_M
  106     0     9     0     0
SMALL
NO_CHARGES


@<TRIPOS>ATOM
      1 N          26.3870  147.2900   44.4805 N.am      2 SEC2        0.0000 
      2 N          26.5620  145.9760   44.2830 N.am      8 SEL2        0.0000 
      3 N          26.2120  148.6040   44.6780 N.am      5 SEP2        0.0000 
      4 CA         30.6630  145.1345   42.7310 C.3       3 GLC5        0.0000 
      5 CA         29.8910  146.8010   42.5280 C.3       9 GLL5        0.0000 
      6 CA         31.4350  143.4680   42.9340 C.3       6 GLP5        0.0000 
      7 CA         31.6265  149.3600   42.2660 C.3       3 GLC5        0.0000 
      8 CA         30.0590  148.1590   41.8360 C.3       9 GLL5        0.0000 
      9 CA         33.1940  150.5610   42.6960 C.3       6 GLP5        0.0000 
     10 O          29.2960  150.7910   40.8185 O.2       1 ALC1        0.0000 
     11 O          28.5240  149.7280   40.9150 O.2       7 ALL1        0.0000 
     12 O          30.0680  151.8540   40.7220 O.2       4 ALP1        0.0000 
     13 O          29.1160  150.7955   39.7225 O.2       1 ALC1        0.0000 
     14 O          29.7080  151.8630   38.5300 O.2       4 ALP1        0.0000 
     15 O          29.5195  150.5375   38.4825 O.2       1 ALC1        0.0000 
     16 O          29.3310  149.2120   38.4350 O.2       7 ALL1        0.0000 
     17 CA         32.2115  149.6690   41.3165 C.3       3 GLC5        0.0000 
     18 CA         31.2290  148.7770   39.9370 C.3       9 GLL5        0.0000 
     19 CA         32.4850  147.6020   41.1910 C.3       3 GLC5        0.0000 
     20 CA         33.7410  146.4270   42.4450 C.3       6 GLP5        0.0000 
     21 CA         36.4565  149.2820   39.3210 C.3       3 GLC5        0.0000 
     22 CA         35.4460  148.6540   37.5000 C.3       9 GLL5        0.0000 
     23 CA         37.4670  149.9100   41.1420 C.3       6 GLP5        0.0000 
     24 CA         35.4940  149.2375   35.6320 C.3       3 GLC5        0.0000 
     25 CA         35.5420  149.8210   33.7640 C.3       6 GLP5        0.0000 
     26 CA         37.4605  149.2715   37.7140 C.3       3 GLC5        0.0000 
     27 CA         39.4750  149.8890   37.9280 C.3       6 GLP5        0.0000 
     28 O          37.5660  148.1630   36.1385 O.2       1 ALC1        0.0000 
     29 O          36.3510  147.8210   37.0080 O.2       7 ALL1        0.0000 
     30 O          38.7810  148.5050   35.2690 O.2       4 ALP1        0.0000 
     31 N          36.9175  150.4820   37.0055 N.am      2 SEC2        0.0000 
     32 N          35.8100  149.9580   37.7710 N.am      8 SEL2        0.0000 
     33 N          38.0250  151.0060   36.2400 N.am      5 SEP2        0.0000 
     34 CA         36.2265  150.3370   39.8385 C.3       3 GLC5        0.0000 
     35 CA         34.9860  150.7640   38.5350 C.3       9 GLL5        0.0000 
     36 CA         33.8085  152.4230   39.0655 C.3       3 GLC5        0.0000 
     37 CA         32.6310  154.0820   39.5960 C.3       6 GLP5        0.0000 
     38 CA         33.8295  150.9675   37.1710 C.3       3 GLC5        0.0000 
     39 CA         32.6730  151.1710   35.8070 C.3       6 GLP5        0.0000 
     40 CA         35.6390  151.4470   36.7460 C.3       3 GLC5        0.0000 
     41 CA         36.2920  152.1300   34.9570 C.3       6 GLP5        0.0000 
     42 N          33.1370  151.5510   38.2845 N.am      2 SEC2        0.0000 
     43 N          33.7980  150.2560   39.0340 N.am      8 SEL2        0.0000 
     44 N          32.4760  152.8460   37.5350 N.am      5 SEP2        0.0000 
     45 CA         33.3135  149.7695   40.7325 C.3       3 GLC5        0.0000 
     46 CA         33.4330  148.9780   38.7690 C.3       9 GLL5        0.0000 
     47 N          23.0755  141.4090   50.1010 N.am      2 SEC2        0.0000 
     48 N          21.7480  141.0780   49.6930 N.am      8 SEL2        0.0000 
     49 N          24.4030  141.7400   50.5090 N.am      5 SEP2        0.0000 
     50 N          23.0795  142.1180   52.5485 N.am      2 SEC2        0.0000 
     51 N          21.7470  141.6150   51.9010 N.am      8 SEL2        0.0000 
     52 N          24.4120  142.6210   53.1960 N.am      5 SEP2        0.0000 
     53 O          18.8535  141.3385   52.2550 O.2       1 ALC1        0.0000 
     54 O          19.8560  140.6620   51.0810 O.2       7 ALL1        0.0000 
     55 O          17.8510  142.0150   53.4290 O.2       4 ALP1        0.0000 
     56 N          17.0730  140.6625   50.6820 N.am      2 SEC2        0.0000 
     57 N          18.0240  139.7420   50.1800 N.am      8 SEL2        0.0000 
     58 N          16.1220  141.5830   51.1840 N.am      5 SEP2        0.0000 
     59 CA         18.2375  138.3615   41.0490 C.3       3 GLC5        0.0000 
     60 CA         19.0300  137.9580   43.0880 C.3       9 GLL5        0.0000 
     61 CA         17.4450  138.7650   39.0100 C.3       6 GLP5        0.0000 
     62 CA         20.1235  136.4690   43.8395 C.3       3 GLC5        0.0000 
     63 CA         21.2170  134.9800   44.5910 C.3       6 GLP5        0.0000 
     64 CA         21.0880  137.1595   44.2775 C.3       3 GLC5        0.0000 
     65 CA         20.9590  139.3390   43.9640 C.3       9 GLL5        0.0000 
     66 CA         24.0915  140.0385   48.8865 C.3       3 GLC5        0.0000 
     67 CA         23.1920  140.6780   47.2380 C.3       9 GLL5        0.0000 
     68 CA         24.9910  139.3990   50.5350 C.3       6 GLP5        0.0000 
     69 O          27.1615  140.7390   47.4165 O.2       1 ALC1        0.0000 
     70 O          25.8430  141.4310   47.6930 O.2       7 ALL1        0.0000 
     71 O          28.4800  140.0470   47.1400 O.2       4 ALP1        0.0000 
     72 O          26.7325  140.9810   46.4280 O.2       1 ALC1        0.0000 
     73 O          27.6220  140.5310   45.1630 O.2       4 ALP1        0.0000 
     74 CA         24.6755  145.2975   47.6485 C.3       3 GLC5        0.0000 
     75 CA         25.6170  143.6800   46.8790 C.3       9 GLL5        0.0000 
     76 CA         23.7340  146.9150   48.4180 C.3       6 GLP5        0.0000 
     77 CA         28.5670  142.2950   46.1230 C.3       3 GLC5        0.0000 
     78 CA         27.1430  143.6960   46.8290 C.3       9 GLL5        0.0000 
     79 CA         29.9910  140.8940   45.4170 C.3       6 GLP5        0.0000 
     80 CA         27.8020  143.9725   48.7150 C.3       3 GLC5        0.0000 
     81 CA         28.4610  144.2490   50.6010 C.3       6 GLP5        0.0000 
     82 N          29.0455  147.6450   47.6015 N.am      2 SEC2        0.0000 
     83 N          29.0820  146.9100   46.2790 N.am      8 SEL2        0.0000 
     84 N          29.0090  148.3800   48.9240 N.am      5 SEP2        0.0000 
     85 N          29.9465  146.4495   47.6270 N.am      2 SEC2        0.0000 
     86 N          30.8110  145.9890   48.9750 N.am      5 SEP2        0.0000 
     87 N          30.4885  145.3205   47.8680 N.am      2 SEC2        0.0000 
     88 N          30.1660  144.6520   46.7610 N.am      8 SEL2        0.0000 
     89 N          30.6345  143.2145   47.1115 N.am      2 SEC2        0.0000 
     90 N          31.1030  141.7770   47.4620 N.am      5 SEP2        0.0000 
     91 CA         31.8580  146.9535   42.3135 C.3       3 GLC5        0.0000 
     92 CA         28.4575  148.6085   42.9002 C.3       3 GLC5        0.0000 
     93 CA         27.4120  149.2700   44.3450 C.3       6 GLP5        0.0000 
     94 CA         30.9503  149.5397   37.7780 C.3       3 GLC5        0.0000 
     95 CA         29.8400  148.3560   39.4450 C.3       9 GLL5        0.0000 
     96 CA         31.3660  150.5130   35.8650 C.3       6 GLP5        0.0000 
     97 CA         33.4060  149.9309   37.0328 C.3       3 GLC5        0.0000 
     98 CA         34.2440  148.1530   37.9960 C.3       9 GLL5        0.0000 
     99 CA         34.4925  147.7034   39.8397 C.3       3 GLC5        0.0000 
    100 CA         34.8460  146.7160   41.4210 C.3       6 GLP5        0.0000 
    101 CA         19.9542  137.1509   45.4322 C.3       3 GLC5        0.0000 
    102 CA         19.7050  139.4820   46.4710 C.3       9 GLL5        0.0000 
    103 CA         20.4080  135.2600   45.8350 C.3       6 GLP5        0.0000 
    104 CA         24.7896  143.0416   48.8669 C.3       3 GLC5        0.0000 
    105 CA         23.6320  142.1290   47.1630 C.3       9 GLL5        0.0000 
    106 CA         24.5870  143.1510   50.8050 C.3       6 GLP5        0.0000 
@<TRIPOS>BOND
@<TRIPOS>SUBSTRUCTURE
     1 ALC1       10 GROUP        1 X    ALC  0     ROOT ALC X 1
     2 SEC2        1 GROUP        1 X    SEC  0     **** SEC X 2
     3 GLC5        4 GROUP        1 X    GLC  0     **** GLC X 6
     4 ALP1       12 GROUP        1 Y    ALP  0     ROOT ALP Y 8
     5 SEP2        3 GROUP        1 Y    SEP  0     **** SEP Y 9
     6 GLP5        6 GROUP        1 Y    GLP  0     **** GLP Y 13
     7 ALL1       11 GROUP        1 Z    ALL  0     ROOT ALL Z 15
     8 SEL2        2 GROUP        1 Z    SEL  0     **** SEL Z 16
     9 GLL5        5 GROUP        1 Z    GLL  0     **** GLL Z 20
@<TRIPOS>SET

