#    Name: 2vou_FAD_2_ligand
#    Modification time : Tue Mar 25 02:18:19 2014

@<TRIPOS>MOLECULE
2vou_FAD_2_ligand
   84    89     1     0     0
SMALL
NO_CHARGES


@<TRIPOS>ATOM
      1 PA         27.8500  145.4880   43.6500 P.3       1 FAD1389     0.0000 
      2 O1A        27.7100  144.4530   42.5740 O.co2     1 FAD1389     0.0000 
      3 O2A        26.5620  145.9760   44.2830 O.co2     1 FAD1389     0.0000 
      4 O5B        28.6110  146.7880   43.1080 O.3       1 FAD1389     0.0000 
      5 C5B        29.8910  146.8010   42.5280 C.3       1 FAD1389     0.0000 
      6 C4B        30.0590  148.1590   41.8360 C.3       1 FAD1389     0.0000 
      7 O4B        31.3530  148.3000   41.2600 O.3       1 FAD1389     0.0000 
      8 C3B        29.0310  148.4140   40.7290 C.3       1 FAD1389     0.0000 
      9 O3B        28.5240  149.7280   40.9150 O.3       1 FAD1389     0.0000 
     10 C2B        29.8400  148.3560   39.4450 C.3       1 FAD1389     0.0000 
     11 O2B        29.3310  149.2120   38.4350 O.3       1 FAD1389     0.0000 
     12 C1B        31.2290  148.7770   39.9370 C.3       1 FAD1389     0.0000 
     13 N9A        32.3290  148.2540   39.1200 N.pl3     1 FAD1389     0.0000 
     14 C8A        32.4630  147.0030   38.5780 C.2       1 FAD1389     0.0000 
     15 N7A        33.6330  146.9430   37.8910 N.2       1 FAD1389     0.0000 
     16 C5A        34.2440  148.1530   37.9960 C.ar      1 FAD1389     0.0000 
     17 C6A        35.4460  148.6540   37.5000 C.ar      1 FAD1389     0.0000 
     18 N6A        36.3510  147.8210   37.0080 N.pl3     1 FAD1389     0.0000 
     19 N1A        35.8100  149.9580   37.7710 N.ar      1 FAD1389     0.0000 
     20 C2A        34.9860  150.7640   38.5350 C.ar      1 FAD1389     0.0000 
     21 N3A        33.7980  150.2560   39.0340 N.ar      1 FAD1389     0.0000 
     22 C4A        33.4330  148.9780   38.7690 C.ar      1 FAD1389     0.0000 
     23 N1         21.7480  141.0780   49.6930 N.2       1 FAD1389     0.0000 
     24 C2         21.1430  141.1330   50.9300 C.2       1 FAD1389     0.0000 
     25 O2         21.7470  141.6150   51.9010 O.2       1 FAD1389     0.0000 
     26 N3         19.8560  140.6620   51.0810 N.am      1 FAD1389     0.0000 
     27 C4         19.1740  140.1430   50.0160 C.2       1 FAD1389     0.0000 
     28 O4         18.0240  139.7420   50.1800 O.2       1 FAD1389     0.0000 
     29 C4X        19.7760  140.0890   48.7700 C.2       1 FAD1389     0.0000 
     30 N5         19.0840  139.5570   47.6960 N.2       1 FAD1389     0.0000 
     31 C5X        19.7050  139.4820   46.4710 C.ar      1 FAD1389     0.0000 
     32 C6         19.0250  138.9430   45.3910 C.ar      1 FAD1389     0.0000 
     33 C7         19.6360  138.8710   44.1280 C.ar      1 FAD1389     0.0000 
     34 C7M        19.0300  137.9580   43.0880 C.3       1 FAD1389     0.0000 
     35 C8         20.9590  139.3390   43.9640 C.ar      1 FAD1389     0.0000 
     36 C8M        21.7550  139.0670   42.6910 C.3       1 FAD1389     0.0000 
     37 C9         21.6250  139.8810   45.0700 C.ar      1 FAD1389     0.0000 
     38 C9A        21.0100  139.9530   46.3060 C.ar      1 FAD1389     0.0000 
     39 N10        21.7050  140.4980   47.3740 N.pl3     1 FAD1389     0.0000 
     40 C10        21.0790  140.5610   48.6130 C.2       1 FAD1389     0.0000 
     41 C1'        23.1920  140.6780   47.2380 C.3       1 FAD1389     0.0000 
     42 C2'        23.6320  142.1290   47.1630 C.3       1 FAD1389     0.0000 
     43 O2'        22.8640  142.7690   46.1930 O.3       1 FAD1389     0.0000 
     44 C3'        25.1030  142.2400   46.7940 C.3       1 FAD1389     0.0000 
     45 O3'        25.8430  141.4310   47.6930 O.3       1 FAD1389     0.0000 
     46 C4'        25.6170  143.6800   46.8790 C.3       1 FAD1389     0.0000 
     47 O4'        25.1060  144.5060   45.8500 O.3       1 FAD1389     0.0000 
     48 C5'        27.1430  143.6960   46.8290 C.3       1 FAD1389     0.0000 
     49 O5'        27.5950  145.0180   46.9400 O.3       1 FAD1389     0.0000 
     50 P          28.9670  145.4030   46.2340 P.3       1 FAD1389     0.0000 
     51 O1P        29.0820  146.9100   46.2790 O.co2     1 FAD1389     0.0000 
     52 O2P        30.1660  144.6520   46.7610 O.co2     1 FAD1389     0.0000 
     53 O3P        28.7960  144.8370   44.7470 O.3       1 FAD1389     0.0000 
     54 H          30.0168  146.0302   41.7705 H         1 FAD1389     0.0000 
     55 H          30.6867  146.7085   43.2642 H         1 FAD1389     0.0000 
     56 H          29.9079  148.9426   42.5945 H         1 FAD1389     0.0000 
     57 H          28.3186  147.6642   40.7420 H         1 FAD1389     0.0000 
     58 H          29.9083  147.3270   39.1543 H         1 FAD1389     0.0000 
     59 H          31.2518  149.8667   39.9357 H         1 FAD1389     0.0000 
     60 H          31.8263  146.2862   38.6728 H         1 FAD1389     0.0000 
     61 H          36.3509  146.8963   37.3886 H         1 FAD1389     0.0000 
     62 H          36.9524  148.1923   36.3006 H         1 FAD1389     0.0000 
     63 H          35.2535  151.7376   38.7326 H         1 FAD1389     0.0000 
     64 H          19.4046  140.7042   52.0156 H         1 FAD1389     0.0000 
     65 H          18.0640  138.5901   45.5061 H         1 FAD1389     0.0000 
     66 H          22.5919  140.2308   44.9525 H         1 FAD1389     0.0000 
     67 H          23.5426  140.1526   46.3303 H         1 FAD1389     0.0000 
     68 H          23.6987  140.1965   48.0949 H         1 FAD1389     0.0000 
     69 H          23.4926  142.5729   48.1381 H         1 FAD1389     0.0000 
     70 H          25.2265  141.8948   45.7777 H         1 FAD1389     0.0000 
     71 H          25.3328  144.0694   47.8663 H         1 FAD1389     0.0000 
     72 H          27.4453  143.2274   45.8835 H         1 FAD1389     0.0000 
     73 H          27.5048  143.0590   47.6465 H         1 FAD1389     0.0000 
     74 H          19.5419  137.9818   42.2293 H         1 FAD1389     0.0000 
     75 H          19.0142  137.0059   43.3935 H         1 FAD1389     0.0000 
     76 H          18.0870  138.2129   42.8742 H         1 FAD1389     0.0000 
     77 H          22.6718  139.4641   42.7343 H         1 FAD1389     0.0000 
     78 H          21.8675  138.0872   42.5255 H         1 FAD1389     0.0000 
     79 H          21.3070  139.4511   41.8837 H         1 FAD1389     0.0000 
     80 H          29.3104  150.3304   40.7786 H         1 FAD1389     0.0000 
     81 H          29.5893  150.1341   38.7231 H         1 FAD1389     0.0000 
     82 H          23.4396  143.5150   45.8580 H         1 FAD1389     0.0000 
     83 H          26.6714  141.1792   47.1926 H         1 FAD1389     0.0000 
     84 H          25.9111  144.9281   45.4333 H         1 FAD1389     0.0000 
@<TRIPOS>BOND
     1    2    1 ar   
     2    3    1 ar   
     3    4    1 1    
     4   53    1 1    
     5    5    4 1    
     6    6    5 1    
     7   54    5 1    
     8   55    5 1    
     9    7    6 1    
    10    8    6 1    
    11   56    6 1    
    12   12    7 1    
    13    9    8 1    
    14   10    8 1    
    15   57    8 1    
    16   80    9 1    
    17   11   10 1    
    18   12   10 1    
    19   58   10 1    
    20   81   11 1    
    21   13   12 1    
    22   59   12 1    
    23   14   13 1    
    24   22   13 1    
    25   15   14 2    
    26   60   14 1    
    27   16   15 1    
    28   17   16 ar   
    29   22   16 ar   
    30   18   17 1    
    31   19   17 ar   
    32   61   18 1    
    33   62   18 1    
    34   20   19 ar   
    35   21   20 ar   
    36   63   20 1    
    37   22   21 ar   
    38   24   23 1    
    39   40   23 2    
    40   25   24 2    
    41   26   24 am   
    42   27   26 am   
    43   64   26 1    
    44   28   27 2    
    45   29   27 1    
    46   30   29 2    
    47   40   29 1    
    48   31   30 1    
    49   32   31 ar   
    50   38   31 ar   
    51   33   32 ar   
    52   65   32 1    
    53   34   33 1    
    54   35   33 ar   
    55   74   34 1    
    56   75   34 1    
    57   76   34 1    
    58   36   35 1    
    59   37   35 ar   
    60   77   36 1    
    61   78   36 1    
    62   79   36 1    
    63   38   37 ar   
    64   66   37 1    
    65   39   38 1    
    66   40   39 1    
    67   41   39 1    
    68   42   41 1    
    69   67   41 1    
    70   68   41 1    
    71   43   42 1    
    72   44   42 1    
    73   69   42 1    
    74   82   43 1    
    75   45   44 1    
    76   46   44 1    
    77   70   44 1    
    78   83   45 1    
    79   47   46 1    
    80   48   46 1    
    81   71   46 1    
    82   84   47 1    
    83   49   48 1    
    84   72   48 1    
    85   73   48 1    
    86   50   49 1    
    87   51   50 ar   
    88   52   50 ar   
    89   53   50 1    
@<TRIPOS>SUBSTRUCTURE
     1 FAD1389     1 GROUP   
@<TRIPOS>SET

