#    Name: 3rm4_3RM_2_INTS_M
#    Modification time : Mon Apr  7 20:27:16 2014

@<TRIPOS>MOLECULE
3rm4_3RM_2_INTS_M
   49     0     9     0     0
SMALL
NO_CHARGES


@<TRIPOS>ATOM
      1 OD1        -2.9690    3.3410    7.2695 O.co2     2 ASC3        0.0000 
      2 OD1        -1.6710    3.6280    6.0030 O.co2     8 ASL3        0.0000 
      3 OD1        -4.2670    3.0540    8.5360 O.co2     5 ASP3        0.0000 
      4 CA         -2.4425   13.2945    3.1175 C.3       3 GLC5        0.0000 
      5 CA         -2.7590   11.9290    4.1980 C.3       9 GLL5        0.0000 
      6 CA         -2.1260   14.6600    2.0370 C.3       6 GLP5        0.0000 
      7 CA         -3.9100   11.4070    2.5455 C.3       3 GLC5        0.0000 
      8 CA         -5.0610   10.8850    0.8930 C.3       6 GLP5        0.0000 
      9 CA         -1.2360   12.6775    4.9500 C.3       3 GLC5        0.0000 
     10 CA          0.2870   13.4260    5.7020 C.3       6 GLP5        0.0000 
     11 CA         -3.1720   10.4620    7.2900 C.3       3 GLC5        0.0000 
     12 CA         -2.6060    9.5260    5.6700 C.3       9 GLL5        0.0000 
     13 CA         -3.7380   11.3980    8.9100 C.3       6 GLP5        0.0000 
     14 O           1.8275    2.8250   10.3265 O.2       1 ALC1        0.0000 
     15 O           2.1650    2.2850    9.1370 O.2       7 ALL1        0.0000 
     16 O           1.4900    3.3650   11.5160 O.2       4 ALP1        0.0000 
     17 O           2.7940    2.5495   10.9345 O.2       1 ALC1        0.0000 
     18 O           4.0980    1.7340   10.3530 O.2       7 ALL1        0.0000 
     19 CA         -3.4465    6.2120    7.4895 C.3       3 GLC5        0.0000 
     20 CA         -3.4750    5.3330    5.6050 C.3       9 GLL5        0.0000 
     21 CA         -3.4180    7.0910    9.3740 C.3       6 GLP5        0.0000 
     22 CA         -4.8720    6.4410    4.9540 C.3       3 GLC5        0.0000 
     23 CA         -6.2690    7.5490    4.3030 C.3       6 GLP5        0.0000 
     24 CA         -2.3395    5.5930    8.3810 C.3       3 GLC5        0.0000 
     25 CA         -1.2610    4.0950    7.3880 C.3       9 GLL5        0.0000 
     26 CA         -0.1700    5.8000    7.7140 C.3       3 GLC5        0.0000 
     27 CA          0.9210    7.5050    8.0400 C.3       6 GLP5        0.0000 
     28 CA          1.4685    5.0000    7.7985 C.3       3 GLC5        0.0000 
     29 CA          0.2240    3.8240    7.5700 C.3       9 GLL5        0.0000 
     30 CA          2.7130    6.1760    8.0270 C.3       6 GLP5        0.0000 
     31 CA         -4.2415    9.5835    5.6958 C.3       3 GLC5        0.0000 
     32 CA         -2.5380    8.1460    5.8490 C.3       9 GLL5        0.0000 
     33 CA         -5.9110   10.3310    5.6320 C.3       6 GLP5        0.0000 
     34 CA         -4.3063   10.6602    4.9600 C.3       3 GLC5        0.0000 
     35 CA         -2.6440   10.0500    4.3780 C.3       9 GLL5        0.0000 
     36 CA         -1.2045   10.6145    6.1210 C.3       3 GLC5        0.0000 
     37 CA          0.2160   11.4410    7.2180 C.3       6 GLP5        0.0000 
     38 CA         -3.9832    9.0684    2.3970 C.3       3 GLC5        0.0000 
     39 CA         -2.5580    7.8200    3.4370 C.3       9 GLL5        0.0000 
     40 CA         -5.3700    9.4120    1.1670 C.3       6 GLP5        0.0000 
     41 CA         -4.4090    7.7266    4.1726 C.3       3 GLC5        0.0000 
     42 CA         -2.6260    9.2090    3.2560 C.3       9 GLL5        0.0000 
     43 CA         -0.6847    3.5412    9.2495 C.3       3 GLC5        0.0000 
     44 CA         -0.8510    3.1230   11.0200 C.3       6 GLP5        0.0000 
     45 CA         -0.5477    1.0105    4.1383 C.3       3 GLC5        0.0000 
     46 CA          0.0950    1.8490    6.0620 C.3       9 GLL5        0.0000 
     47 CA         -0.4500    0.0240    2.3310 C.3       6 GLP5        0.0000 
     48 CA         -0.5112    0.5390    7.3653 C.3       3 GLC5        0.0000 
     49 CA         -0.3770   -0.9190    8.7850 C.3       6 GLP5        0.0000 
@<TRIPOS>BOND
@<TRIPOS>SUBSTRUCTURE
     1 ALC1       14 GROUP        1 X    ALC  0     ROOT ALC X 1
     2 ASC3        1 GROUP        1 X    ASC  0     **** ASC X 3
     3 GLC5        4 GROUP        1 X    GLC  0     **** GLC X 6
     4 ALP1       16 GROUP        1 Y    ALP  0     ROOT ALP Y 8
     5 ASP3        3 GROUP        1 Y    ASP  0     **** ASP Y 10
     6 GLP5        6 GROUP        1 Y    GLP  0     **** GLP Y 13
     7 ALL1       15 GROUP        1 Z    ALL  0     ROOT ALL Z 15
     8 ASL3        2 GROUP        1 Z    ASL  0     **** ASL Z 17
     9 GLL5        5 GROUP        1 Z    GLL  0     **** GLL Z 20
@<TRIPOS>SET

