#    Name: 3rm4_3RM_2_ligand
#    Modification time : Mon Apr  7 20:27:16 2014

@<TRIPOS>MOLECULE
3rm4_3RM_2_ligand
   41    43     1     0     0
SMALL
NO_CHARGES


@<TRIPOS>ATOM
      1 C1         -2.5380    8.1460    5.8490 C.ar      1 3RM1        0.0000 
      2 N1         -1.6710    3.6280    6.0030 N.4       1 3RM1        0.0000 
      3 O1         -2.4490    5.9370    4.8120 O.3       1 3RM1        0.0000 
      4 BR1        -2.7590   11.9290    4.1980 Br        1 3RM1        0.0000 
      5 C2         -2.6060    9.5260    5.6700 C.ar      1 3RM1        0.0000 
      6 N2          0.5360    2.4030    7.3510 N.3       1 3RM1        0.0000 
      7 C3         -2.6440   10.0500    4.3780 C.ar      1 3RM1        0.0000 
      8 N3          2.6000    1.1730    7.3250 N.2       1 3RM1        0.0000 
      9 C4         -2.6260    9.2090    3.2560 C.ar      1 3RM1        0.0000 
     10 N4          3.6530    0.9260    8.1230 N.2       1 3RM1        0.0000 
     11 C5         -2.5580    7.8200    3.4370 C.ar      1 3RM1        0.0000 
     12 N5          2.1650    2.2850    9.1370 N.pl3     1 3RM1        0.0000 
     13 C6         -2.5060    7.2940    4.7380 C.ar      1 3RM1        0.0000 
     14 N6          4.0980    1.7340   10.3530 N.pl3     1 3RM1        0.0000 
     15 C7         -3.4750    5.3330    5.6050 C.3       1 3RM1        0.0000 
     16 C8         -3.1400    3.8600    5.7140 C.3       1 3RM1        0.0000 
     17 C9         -1.2610    4.0950    7.3880 C.3       1 3RM1        0.0000 
     18 C10         0.2240    3.8240    7.5700 C.3       1 3RM1        0.0000 
     19 C11         0.0950    1.8490    6.0620 C.3       1 3RM1        0.0000 
     20 C12        -1.3860    2.1450    5.8290 C.3       1 3RM1        0.0000 
     21 C13         1.6910    1.9900    7.9400 C.2       1 3RM1        0.0000 
     22 C14         3.3640    1.6280    9.2200 C.2       1 3RM1        0.0000 
     23 H          -2.5112    7.7497    6.7961 H         1 3RM1        0.0000 
     24 H          -1.0862    4.1655    5.2597 H         1 3RM1        0.0000 
     25 H          -2.6279   10.1513    6.4802 H         1 3RM1        0.0000 
     26 H          -2.6621    9.6042    2.3160 H         1 3RM1        0.0000 
     27 H          -2.5463    7.1955    2.6300 H         1 3RM1        0.0000 
     28 H           1.7831    2.8286    9.8122 H         1 3RM1        0.0000 
     29 H          -4.4522    5.4285    5.1411 H         1 3RM1        0.0000 
     30 H          -3.5096    5.7513    6.6065 H         1 3RM1        0.0000 
     31 H          -3.7409    3.4110    6.5149 H         1 3RM1        0.0000 
     32 H          -3.4070    3.3582    4.7754 H         1 3RM1        0.0000 
     33 H          -1.8214    3.5503    8.1350 H         1 3RM1        0.0000 
     34 H          -1.4486    5.1554    7.4834 H         1 3RM1        0.0000 
     35 H           0.7816    4.4524    6.8638 H         1 3RM1        0.0000 
     36 H           0.5114    4.1279    8.5847 H         1 3RM1        0.0000 
     37 H           0.2375    0.7644    6.0388 H         1 3RM1        0.0000 
     38 H           0.6675    2.2855    5.2380 H         1 3RM1        0.0000 
     39 H          -1.6567    1.8394    4.8195 H         1 3RM1        0.0000 
     40 H          -1.9805    1.5752    6.5415 H         1 3RM1        0.0000 
     41 H           3.5307    2.2683   10.9797 H         1 3RM1        0.0000 
@<TRIPOS>BOND
     1    5    1 ar   
     2   13    1 ar   
     3   23    1 1    
     4   16    2 1    
     5   17    2 1    
     6   20    2 1    
     7   24    2 1    
     8   13    3 1    
     9   15    3 1    
    10    7    4 1    
    11    7    5 ar   
    12   25    5 1    
    13   18    6 1    
    14   19    6 1    
    15   21    6 1    
    16    9    7 ar   
    17   10    8 1    
    18   21    8 2    
    19   11    9 ar   
    20   26    9 1    
    21   22   10 2    
    22   13   11 ar   
    23   27   11 1    
    24   21   12 1    
    25   22   12 1    
    26   28   12 1    
    27   22   14 1    
    28   41   14 1    
    29   16   15 1    
    30   29   15 1    
    31   30   15 1    
    32   31   16 1    
    33   32   16 1    
    34   18   17 1    
    35   33   17 1    
    36   34   17 1    
    37   35   18 1    
    38   36   18 1    
    39   20   19 1    
    40   37   19 1    
    41   38   19 1    
    42   39   20 1    
    43   40   20 1    
@<TRIPOS>SUBSTRUCTURE
     1 3RM1        1 GROUP   
@<TRIPOS>SET

