#    Name: 3r8v_Z62_1_INTS_M
#    Modification time : Tue Mar 25 11:16:02 2014

@<TRIPOS>MOLECULE
3r8v_Z62_1_INTS_M
   53     0     9     0     0
SMALL
NO_CHARGES


@<TRIPOS>ATOM
      1 N         -64.1340  -82.5165  -88.0230 N.am      2 SEC2        0.0000 
      2 N         -65.0440  -81.9560  -86.8490 N.am      8 SEL2        0.0000 
      3 N         -63.2240  -83.0770  -89.1970 N.am      5 SEP2        0.0000 
      4 O         -66.5345  -81.5005  -89.4125 O.2       1 ALC1        0.0000 
      5 O         -66.5280  -80.7370  -88.1990 O.2       7 ALL1        0.0000 
      6 O         -66.5410  -82.2640  -90.6260 O.2       4 ALP1        0.0000 
      7 CA        -65.8575  -78.3660  -85.9500 C.3       3 GLC5        0.0000 
      8 CA        -67.3840  -78.5420  -84.3100 C.3       9 GLL5        0.0000 
      9 CA        -64.3310  -78.1900  -87.5900 C.3       6 GLP5        0.0000 
     10 CA        -68.8130  -80.7580  -83.0650 C.3       3 GLC5        0.0000 
     11 CA        -67.5480  -79.2730  -83.0820 C.3       9 GLL5        0.0000 
     12 CA        -70.0780  -82.2430  -83.0480 C.3       6 GLP5        0.0000 
     13 CA        -69.5605  -79.4975  -81.8605 C.3       3 GLC5        0.0000 
     14 CA        -67.8190  -78.6090  -81.8370 C.3       9 GLL5        0.0000 
     15 CA        -71.3020  -80.3860  -81.8840 C.3       6 GLP5        0.0000 
     16 CA        -67.1485  -74.8110  -83.9995 C.3       3 GLC5        0.0000 
     17 CA        -67.7670  -76.4380  -83.0710 C.3       9 GLL5        0.0000 
     18 CA        -66.5300  -73.1840  -84.9280 C.3       6 GLP5        0.0000 
     19 CA        -66.3190  -75.4620  -84.4885 C.3       3 GLC5        0.0000 
     20 CA        -67.4960  -77.1160  -84.2900 C.3       9 GLL5        0.0000 
     21 CA        -65.1420  -73.8080  -84.6870 C.3       6 GLP5        0.0000 
     22 CA        -67.3705  -76.3900  -86.3425 C.3       3 GLC5        0.0000 
     23 CA        -67.2450  -75.6640  -88.3950 C.3       6 GLP5        0.0000 
     24 N         -69.0595  -78.2190  -86.2955 N.am      2 SEC2        0.0000 
     25 N         -67.8070  -78.7490  -86.6610 N.am      8 SEL2        0.0000 
     26 N         -70.3120  -77.6890  -85.9300 N.am      5 SEP2        0.0000 
     27 CA        -65.5430  -81.9935  -82.6995 C.3       3 GLC5        0.0000 
     28 CA        -65.3170  -80.9250  -84.4780 C.3       9 GLL5        0.0000 
     29 CA        -65.7690  -83.0620  -80.9210 C.3       6 GLP5        0.0000 
     30 CA        -64.0390  -79.4425  -85.0700 C.3       3 GLC5        0.0000 
     31 CA        -62.7610  -77.9600  -85.6620 C.3       6 GLP5        0.0000 
     32 O         -62.6555  -83.2375  -86.1255 O.2       1 ALC1        0.0000 
     33 O         -63.6460  -82.9660  -85.2010 O.2       7 ALL1        0.0000 
     34 O         -61.6650  -83.5090  -87.0500 O.2       4 ALP1        0.0000 
     35 CA        -63.7860  -84.6290  -84.6800 C.3       3 GLC5        0.0000 
     36 CA        -63.2480  -83.1340  -83.7980 C.3       9 GLL5        0.0000 
     37 CA        -64.3240  -86.1240  -85.5620 C.3       6 GLP5        0.0000 
     38 CA        -60.3695  -81.5655  -83.9085 C.3       3 GLC5        0.0000 
     39 CA        -62.3290  -82.0260  -83.3370 C.3       9 GLL5        0.0000 
     40 CA        -58.4100  -81.1050  -84.4800 C.3       6 GLP5        0.0000 
     41 CA        -61.8670  -79.2225  -82.4740 C.3       3 GLC5        0.0000 
     42 CA        -62.7320  -81.0920  -82.2550 C.3       9 GLL5        0.0000 
     43 CA        -61.0020  -77.3530  -82.6930 C.3       6 GLP5        0.0000 
     44 CA        -61.6455  -80.9515  -80.3075 C.3       3 GLC5        0.0000 
     45 CA        -60.5590  -80.8110  -78.3600 C.3       6 GLP5        0.0000 
     46 CA        -67.3957  -81.9548  -86.7442 C.3       3 GLC5        0.0000 
     47 CA        -66.2450  -80.2900  -85.7800 C.3       9 GLL5        0.0000 
     48 CA        -68.6880  -83.2720  -87.1060 C.3       6 GLP5        0.0000 
     49 CA        -65.2173  -79.4138  -86.9862 C.3       3 GLC5        0.0000 
     50 CA        -65.9620  -80.9850  -86.9850 C.3       9 GLL5        0.0000 
     51 CA        -69.1850  -78.5409  -84.9655 C.3       3 GLC5        0.0000 
     52 CA        -70.8890  -79.0700  -85.9380 C.3       6 GLP5        0.0000 
     53 CA        -64.2646  -82.4490  -81.9161 C.3       3 GLC5        0.0000 
@<TRIPOS>BOND
@<TRIPOS>SUBSTRUCTURE
     1 ALC1        4 GROUP        1 X    ALC  0     ROOT ALC X 1
     2 SEC2        1 GROUP        1 X    SEC  0     **** SEC X 2
     3 GLC5        7 GROUP        1 X    GLC  0     **** GLC X 6
     4 ALP1        6 GROUP        1 Y    ALP  0     ROOT ALP Y 8
     5 SEP2        3 GROUP        1 Y    SEP  0     **** SEP Y 9
     6 GLP5        9 GROUP        1 Y    GLP  0     **** GLP Y 13
     7 ALL1        5 GROUP        1 Z    ALL  0     ROOT ALL Z 15
     8 SEL2        2 GROUP        1 Z    SEL  0     **** SEL Z 16
     9 GLL5        8 GROUP        1 Z    GLL  0     **** GLL Z 20
@<TRIPOS>SET

