#    Name: 3r8v_Z62_1_ligand
#    Modification time : Tue Mar 25 11:16:02 2014

@<TRIPOS>MOLECULE
3r8v_Z62_1_ligand
   31    32     1     0     0
SMALL
NO_CHARGES


@<TRIPOS>ATOM
      1 N1        -65.0440  -81.9560  -86.8490 N.2       1 Z62473      0.0000 
      2 C2        -65.9620  -80.9850  -86.9850 C.2       1 Z62473      0.0000 
      3 N3        -66.5280  -80.7370  -88.1990 N.pl3     1 Z62473      0.0000 
      4 C4        -66.2450  -80.2900  -85.7800 C.2       1 Z62473      0.0000 
      5 C5        -67.1230  -79.2380  -85.6110 C.2       1 Z62473      0.0000 
      6 C6        -67.3840  -78.5420  -84.3100 C.ar      1 Z62473      0.0000 
      7 C7        -67.5480  -79.2730  -83.0820 C.ar      1 Z62473      0.0000 
      8 C8        -67.8190  -78.6090  -81.8370 C.ar      1 Z62473      0.0000 
      9 C9        -67.9270  -77.1660  -81.8640 C.ar      1 Z62473      0.0000 
     10 C10       -67.7670  -76.4380  -83.0710 C.ar      1 Z62473      0.0000 
     11 C11       -67.4960  -77.1160  -84.2900 C.ar      1 Z62473      0.0000 
     12 O12       -67.8070  -78.7490  -86.6610 O.2       1 Z62473      0.0000 
     13 S13       -65.3170  -80.9250  -84.4780 S.3       1 Z62473      0.0000 
     14 C14       -64.6040  -82.0440  -85.5690 C.2       1 Z62473      0.0000 
     15 N15       -63.6460  -82.9660  -85.2010 N.pl3     1 Z62473      0.0000 
     16 C16       -63.2480  -83.1340  -83.7980 C.3       1 Z62473      0.0000 
     17 C17       -62.3290  -82.0260  -83.3370 C.2       1 Z62473      0.0000 
     18 C18       -62.7320  -81.0920  -82.2550 C.2       1 Z62473      0.0000 
     19 N19       -67.9640  -79.3090  -80.6970 N.pl3     1 Z62473      0.0000 
     20 O20       -67.8520  -80.6400  -80.6730 O.2       1 Z62473      0.0000 
     21 O21       -68.2000  -78.7660  -79.6410 O.2       1 Z62473      0.0000 
     22 H         -67.1996  -79.9967  -88.2284 H         1 Z62473      0.0000 
     23 H         -66.2220  -81.3171  -88.9540 H         1 Z62473      0.0000 
     24 H         -67.4693  -80.2953  -83.0963 H         1 Z62473      0.0000 
     25 H         -68.1229  -76.6726  -80.9890 H         1 Z62473      0.0000 
     26 H         -67.8470  -75.4195  -83.0649 H         1 Z62473      0.0000 
     27 H         -67.3806  -76.5895  -85.1534 H         1 Z62473      0.0000 
     28 H         -63.1798  -83.5645  -85.8937 H         1 Z62473      0.0000 
     29 H         -62.7326  -84.0978  -83.6595 H         1 Z62473      0.0000 
     30 H         -64.1369  -83.1462  -83.1472 H         1 Z62473      0.0000 
     31 H         -61.4341  -81.9292  -83.7764 H         1 Z62473      0.0000 
@<TRIPOS>BOND
     1    2    1 1    
     2   14    1 2    
     3    3    2 1    
     4    4    2 2    
     5   22    3 1    
     6   23    3 1    
     7    5    4 1    
     8   13    4 1    
     9    6    5 1    
    10   12    5 2    
    11    7    6 ar   
    12   11    6 ar   
    13    8    7 ar   
    14   24    7 1    
    15    9    8 ar   
    16   19    8 1    
    17   10    9 ar   
    18   25    9 1    
    19   11   10 ar   
    20   26   10 1    
    21   27   11 1    
    22   14   13 1    
    23   15   14 1    
    24   16   15 1    
    25   28   15 1    
    26   17   16 1    
    27   29   16 1    
    28   30   16 1    
    29   18   17 2    
    30   31   17 1    
    31   20   19 2    
    32   21   19 2    
@<TRIPOS>SUBSTRUCTURE
     1 Z62473      1 GROUP   
@<TRIPOS>SET

