#    Name: 3u2o_03U_2_INTS_M
#    Modification time : Mon Mar 24 21:20:46 2014

@<TRIPOS>MOLECULE
3u2o_03U_2_INTS_M
   78     0     9     0     0
SMALL
NO_CHARGES


@<TRIPOS>ATOM
      1 CA         -6.6900   31.0485   -4.1735 C.3       3 GLC5        0.0000 
      2 CA         -8.0360   31.1990   -2.7250 C.3       9 GLL5        0.0000 
      3 CA         -5.3440   30.8980   -5.6220 C.3       6 GLP5        0.0000 
      4 CA         -3.6135   33.5480   -0.0580 C.3       3 GLC5        0.0000 
      5 CA         -5.3440   34.7650   -0.7160 C.3       9 GLL5        0.0000 
      6 CA         -1.8830   32.3310    0.6000 C.3       6 GLP5        0.0000 
      7 CA         -9.6245   28.1620   -2.7280 C.3       3 GLC5        0.0000 
      8 CA        -10.8870   29.3830   -1.4280 C.3       9 GLL5        0.0000 
      9 CA         -8.3620   26.9410   -4.0280 C.3       6 GLP5        0.0000 
     10 CA        -12.4095   29.8750   -1.0440 C.3       3 GLC5        0.0000 
     11 CA        -13.9320   30.3670   -0.6600 C.3       6 GLP5        0.0000 
     12 CA         -6.7470   34.5335    3.1760 C.3       3 GLC5        0.0000 
     13 CA         -6.2970   32.8980    3.0650 C.3       9 GLL5        0.0000 
     14 CA         -7.1970   36.1690    3.2870 C.3       6 GLP5        0.0000 
     15 CA         -6.4505   32.8475    4.9545 C.3       3 GLC5        0.0000 
     16 CA         -6.6040   32.7970    6.8440 C.3       6 GLP5        0.0000 
     17 CA         -6.9575   31.3620    3.5985 C.3       3 GLC5        0.0000 
     18 CA         -7.6180   29.8260    4.1320 C.3       6 GLP5        0.0000 
     19 CA         -4.3250   32.7470    3.0870 C.3       3 GLC5        0.0000 
     20 CA         -2.3530   32.5960    3.1090 C.3       6 GLP5        0.0000 
     21 CA         -4.8860   39.3655   -2.0405 C.3       3 GLC5        0.0000 
     22 CA         -3.1090   38.4520   -2.8160 C.3       9 GLL5        0.0000 
     23 CA         -6.6630   40.2790   -1.2650 C.3       6 GLP5        0.0000 
     24 CA         -2.2710   38.2990    0.2375 C.3       3 GLC5        0.0000 
     25 CA         -2.9920   39.0780   -1.6220 C.3       9 GLL5        0.0000 
     26 CA         -1.5500   37.5200    2.0970 C.3       6 GLP5        0.0000 
     27 CA         -2.9940   40.5295   -5.1415 C.3       3 GLC5        0.0000 
     28 CA         -2.4850   38.9790   -3.9770 C.3       9 GLL5        0.0000 
     29 CA         -3.5030   42.0800   -6.3060 C.3       6 GLP5        0.0000 
     30 CA         -1.5250   37.2565   -3.6650 C.3       3 GLC5        0.0000 
     31 CA         -0.5650   35.5340   -3.3530 C.3       6 GLP5        0.0000 
     32 N          -1.9425   39.1330   -6.5400 N.am      2 SEC2        0.0000 
     33 N          -1.9270   39.4370   -4.8780 N.am      8 SEL2        0.0000 
     34 N          -1.9580   38.8290   -8.2020 N.am      5 SEP2        0.0000 
     35 O          -3.0290   39.1350    0.6420 O.2       1 ALC1        0.0000 
     36 O          -3.5870   38.6090   -0.5130 O.2       7 ALL1        0.0000 
     37 O          -2.4710   39.6610    1.7970 O.2       4 ALP1        0.0000 
     38 CA          1.1025   40.6055   -2.0095 C.3       3 GLC5        0.0000 
     39 CA         -0.6910   40.0120   -1.3930 C.3       9 GLL5        0.0000 
     40 CA          2.8960   41.1990   -2.6260 C.3       6 GLP5        0.0000 
     41 CA         -0.6550   38.0550   -1.6550 C.3       3 GLC5        0.0000 
     42 CA         -0.6190   36.0980   -1.9170 C.3       6 GLP5        0.0000 
     43 CA         -8.3687   34.1635   -0.7837 C.3       3 GLC5        0.0000 
     44 CA         -7.8800   32.1170   -1.7010 C.3       9 GLL5        0.0000 
     45 CA         -8.3950   36.1920   -0.3970 C.3       6 GLP5        0.0000 
     46 CA         -8.2905   30.0078   -0.2938 C.3       3 GLC5        0.0000 
     47 CA         -8.8050   32.1530   -0.6400 C.3       9 GLL5        0.0000 
     48 CA         -7.2730   28.3300   -0.0030 C.3       6 GLP5        0.0000 
     49 CA        -10.4417   28.3700   -0.2997 C.3       3 GLC5        0.0000 
     50 CA         -9.9260   30.2750   -1.5310 C.3       9 GLL5        0.0000 
     51 CA        -10.4770   26.9110    0.8800 C.3       6 GLP5        0.0000 
     52 CA         -8.8397   29.0795   -0.7412 C.3       3 GLC5        0.0000 
     53 CA         -7.3978   29.7830   -1.7850 C.3       3 GLC5        0.0000 
     54 CA         -9.0550   30.2600   -2.6190 C.3       9 GLL5        0.0000 
     55 CA         -6.2890   28.6070   -1.1540 C.3       6 GLP5        0.0000 
     56 CA         -7.4615   34.8115   -0.7795 C.3       3 GLC5        0.0000 
     57 CA         -6.9150   33.2340   -1.7070 C.3       9 GLL5        0.0000 
     58 CA         -7.1258   34.6553   -4.6195 C.3       3 GLC5        0.0000 
     59 CA         -6.9030   34.0110   -2.8670 C.3       9 GLL5        0.0000 
     60 CA         -7.7470   34.7290   -6.3260 C.3       6 GLP5        0.0000 
     61 CA         -7.4497   35.3867   -1.6550 C.3       3 GLC5        0.0000 
     62 CA         -6.8643   35.6690   -0.8470 C.3       3 GLC5        0.0000 
     63 CA         -5.3230   35.5270   -1.8780 C.3       9 GLL5        0.0000 
     64 CA         -5.5352   33.4226   -3.8725 C.3       3 GLC5        0.0000 
     65 CA         -6.1060   35.1520   -2.9590 C.3       9 GLL5        0.0000 
     66 CA         -4.5630   32.4580   -5.1220 C.3       6 GLP5        0.0000 
     67 CA         -4.6670   38.8907   -4.5132 C.3       3 GLC5        0.0000 
     68 CA         -6.5370   39.0660   -5.6300 C.3       6 GLP5        0.0000 
     69 CA         -1.8347   37.4315   -2.0680 C.3       3 GLC5        0.0000 
     70 CA         -4.1363   40.5555   -1.2113 C.3       3 GLC5        0.0000 
     71 CA         -5.6800   41.3920   -0.8820 C.3       6 GLP5        0.0000 
     72 CA         -0.8720   41.8325   -2.2560 C.3       3 GLC5        0.0000 
     73 CA         -2.1930   40.3600   -1.4590 C.3       9 GLL5        0.0000 
     74 CA         -0.3020   43.4790   -3.0860 C.3       6 GLP5        0.0000 
     75 CA         -1.4915   39.5185    0.4960 C.3       3 GLC5        0.0000 
     76 CA         -1.5410   38.8510    2.4180 C.3       6 GLP5        0.0000 
     77 CA         -0.6875   41.2680    0.0180 C.3       3 GLC5        0.0000 
     78 CA          0.0670   42.3500    1.4620 C.3       6 GLP5        0.0000 
@<TRIPOS>BOND
@<TRIPOS>SUBSTRUCTURE
     1 ALC1       35 GROUP        1 X    ALC  0     ROOT ALC X 1
     2 SEC2       32 GROUP        1 X    SEC  0     **** SEC X 2
     3 GLC5        1 GROUP        1 X    GLC  0     **** GLC X 6
     4 ALP1       37 GROUP        1 Y    ALP  0     ROOT ALP Y 8
     5 SEP2       34 GROUP        1 Y    SEP  0     **** SEP Y 9
     6 GLP5        3 GROUP        1 Y    GLP  0     **** GLP Y 13
     7 ALL1       36 GROUP        1 Z    ALL  0     ROOT ALL Z 15
     8 SEL2       33 GROUP        1 Z    SEL  0     **** SEL Z 16
     9 GLL5        2 GROUP        1 Z    GLL  0     **** GLL Z 20
@<TRIPOS>SET

