#    Name: 3u2o_03U_2_ligand
#    Modification time : Mon Mar 24 21:20:46 2014

@<TRIPOS>MOLECULE
3u2o_03U_2_ligand
   44    45     1     0     0
SMALL
NO_CHARGES


@<TRIPOS>ATOM
      1 C1         -8.8050   32.1530   -0.6400 C.ar      1 03U1        0.0000 
      2 C2         -7.8800   32.1170   -1.7010 C.ar      1 03U1        0.0000 
      3 C3         -9.8110   31.2180   -0.5290 C.ar      1 03U1        0.0000 
      4 C4         -8.0360   31.1990   -2.7250 C.ar      1 03U1        0.0000 
      5 C5         -9.9260   30.2750   -1.5310 C.ar      1 03U1        0.0000 
      6 C6         -9.0550   30.2600   -2.6190 C.ar      1 03U1        0.0000 
      7 C7         -6.9150   33.2340   -1.7070 C.ar      1 03U1        0.0000 
      8 C8         -6.1410   33.6280   -0.6170 C.ar      1 03U1        0.0000 
      9 C9         -6.9030   34.0110   -2.8670 C.ar      1 03U1        0.0000 
     10 C10        -5.3440   34.7650   -0.7160 C.ar      1 03U1        0.0000 
     11 C11        -6.1060   35.1520   -2.9590 C.ar      1 03U1        0.0000 
     12 C12        -5.3230   35.5270   -1.8780 C.ar      1 03U1        0.0000 
     13 F13       -10.8870   29.3830   -1.4280 F         1 03U1        0.0000 
     14 C14        -6.1210   32.8920    0.6550 C.2       1 03U1        0.0000 
     15 O15        -6.1890   33.5940    1.8140 O.3       1 03U1        0.0000 
     16 O16        -6.0400   31.6910    0.6870 O.2       1 03U1        0.0000 
     17 C17        -6.2970   32.8980    3.0650 C.3       1 03U1        0.0000 
     18 N18        -4.5380   36.6940   -1.9210 N.am      1 03U1        0.0000 
     19 C19        -3.8790   37.2190   -2.9940 C.2       1 03U1        0.0000 
     20 C20        -3.1090   38.4520   -2.8160 C.2       1 03U1        0.0000 
     21 O21        -3.9290   36.6680   -4.0730 O.2       1 03U1        0.0000 
     22 C22        -2.9920   39.0780   -1.6220 C.2       1 03U1        0.0000 
     23 C23        -2.4850   38.9790   -3.9770 C.1       1 03U1        0.0000 
     24 N24        -1.9270   39.4370   -4.8780 N.1       1 03U1        0.0000 
     25 O25        -3.5870   38.6090   -0.5130 O.3       1 03U1        0.0000 
     26 C26        -2.1930   40.3600   -1.4590 C.3       1 03U1        0.0000 
     27 C27        -0.6910   40.0120   -1.3930 C.3       1 03U1        0.0000 
     28 H          -8.7160   32.9068    0.0686 H         1 03U1        0.0000 
     29 H         -10.4478   31.2212    0.2634 H         1 03U1        0.0000 
     30 H          -7.4214   31.2092   -3.5362 H         1 03U1        0.0000 
     31 H          -9.1696   29.5428   -3.3532 H         1 03U1        0.0000 
     32 H          -7.4938   33.7361   -3.6693 H         1 03U1        0.0000 
     33 H          -4.7576   35.0468    0.0898 H         1 03U1        0.0000 
     34 H          -6.1018   35.7065   -3.8208 H         1 03U1        0.0000 
     35 H          -4.4568   37.2292   -0.9802 H         1 03U1        0.0000 
     36 H          -2.4782   40.8567   -0.5428 H         1 03U1        0.0000 
     37 H          -2.3652   41.0103   -2.3045 H         1 03U1        0.0000 
     38 H          -5.5173   32.2917    3.2212 H         1 03U1        0.0000 
     39 H          -6.3368   33.5297    3.8392 H         1 03U1        0.0000 
     40 H          -7.1208   32.3325    3.1055 H         1 03U1        0.0000 
     41 H          -0.1247   40.8294   -1.2876 H         1 03U1        0.0000 
     42 H          -0.4828   39.4098   -0.6223 H         1 03U1        0.0000 
     43 H          -0.3811   39.5455   -2.2215 H         1 03U1        0.0000 
     44 H          -3.1166   39.0621    0.2443 H         1 03U1        0.0000 
@<TRIPOS>BOND
     1    2    1 ar   
     2    3    1 ar   
     3   28    1 1    
     4    4    2 ar   
     5    7    2 1    
     6    5    3 ar   
     7   29    3 1    
     8    6    4 ar   
     9   30    4 1    
    10    6    5 ar   
    11   13    5 1    
    12   31    6 1    
    13    8    7 ar   
    14    9    7 ar   
    15   10    8 ar   
    16   14    8 1    
    17   11    9 ar   
    18   32    9 1    
    19   12   10 ar   
    20   33   10 1    
    21   12   11 ar   
    22   34   11 1    
    23   18   12 1    
    24   15   14 1    
    25   16   14 2    
    26   17   15 1    
    27   38   17 1    
    28   39   17 1    
    29   40   17 1    
    30   19   18 am   
    31   35   18 1    
    32   20   19 1    
    33   21   19 2    
    34   22   20 2    
    35   23   20 1    
    36   25   22 1    
    37   26   22 1    
    38   24   23 3    
    39   44   25 1    
    40   27   26 1    
    41   36   26 1    
    42   37   26 1    
    43   41   27 1    
    44   42   27 1    
    45   43   27 1    
@<TRIPOS>SUBSTRUCTURE
     1 03U1        1 GROUP   
@<TRIPOS>SET

