#    Name: 4a9s_RU9_1_INTS_M
#    Modification time : Tue Mar 25 05:20:06 2014

@<TRIPOS>MOLECULE
4a9s_RU9_1_INTS_M
   62     0     9     0     0
SMALL
NO_CHARGES


@<TRIPOS>ATOM
      1 O          33.7835  -31.8215   14.7200 O.2       1 ALC1        0.0000 
      2 O          34.8150  -32.4800   13.5500 O.2       7 ALL1        0.0000 
      3 O          32.7520  -31.1630   15.8900 O.2       4 ALP1        0.0000 
      4 CA         35.6165  -34.4610   13.1000 C.3       3 GLC5        0.0000 
      5 CA         34.9550  -33.5930   11.2290 C.3       9 GLL5        0.0000 
      6 CA         36.2780  -35.3290   14.9710 C.3       6 GLP5        0.0000 
      7 O          37.1975  -30.2835    9.0285 O.2       1 ALC1        0.0000 
      8 O          37.0970  -31.9200    8.5460 O.2       7 ALL1        0.0000 
      9 O          37.2980  -28.6470    9.5110 O.2       4 ALP1        0.0000 
     10 CA         38.1155  -34.4355    9.4070 C.3       3 GLC5        0.0000 
     11 CA         36.2080  -33.9140    8.7060 C.3       9 GLL5        0.0000 
     12 CA         40.0230  -34.9570   10.1080 C.3       6 GLP5        0.0000 
     13 CA         36.8970  -36.4570    8.4015 C.3       3 GLC5        0.0000 
     14 CA         35.4100  -35.0650    9.3190 C.3       9 GLL5        0.0000 
     15 CA         38.3840  -37.8490    7.4840 C.3       6 GLP5        0.0000 
     16 CA         33.8875  -36.1460    8.2845 C.3       3 GLC5        0.0000 
     17 CA         32.3650  -37.2270    7.2500 C.3       6 GLP5        0.0000 
     18 CA         32.8240  -34.4165   10.4085 C.3       3 GLC5        0.0000 
     19 CA         34.8300  -34.9160   10.4870 C.3       9 GLL5        0.0000 
     20 CA         30.8180  -33.9170   10.3300 C.3       6 GLP5        0.0000 
     21 CA         38.9325  -34.8120    4.2960 C.3       3 GLC5        0.0000 
     22 CA         38.1690  -32.7810    4.8390 C.3       9 GLL5        0.0000 
     23 CA         39.6960  -36.8430    3.7530 C.3       6 GLP5        0.0000 
     24 N          33.6420  -34.9610   14.1440 N.am      2 SEC2        0.0000 
     25 N          33.4430  -34.2030   12.9250 N.am      8 SEL2        0.0000 
     26 N          33.8410  -35.7190   15.3630 N.am      5 SEP2        0.0000 
     27 N          32.5575  -34.4680   12.0330 N.am      2 SEC2        0.0000 
     28 N          31.6720  -34.7330   11.1410 N.am      5 SEP2        0.0000 
     29 CA         33.3335  -32.7968   10.6290 C.3       3 GLC5        0.0000 
     30 CA         35.6430  -32.6000   10.7030 C.3       9 GLL5        0.0000 
     31 CA         31.3680  -32.4970   10.2920 C.3       6 GLP5        0.0000 
     32 CA         34.8520  -31.9278    8.4642 C.3       3 GLC5        0.0000 
     33 CA         33.7230  -31.1690    6.9060 C.3       6 GLP5        0.0000 
     34 CA         37.4790  -33.5334   11.2295 C.3       3 GLC5        0.0000 
     35 CA         36.3190  -32.7730    9.3420 C.3       9 GLL5        0.0000 
     36 CA         39.1490  -34.1320   12.3050 C.3       6 GLP5        0.0000 
     37 CA         34.7440  -36.7852   10.5955 C.3       3 GLC5        0.0000 
     38 CA         34.3680  -38.5800   11.2880 C.3       6 GLP5        0.0000 
     39 CA         34.2107  -34.1439    8.4049 C.3       3 GLC5        0.0000 
     40 CA         33.1020  -33.5850    7.0600 C.3       6 GLP5        0.0000 
     41 CA         37.5192  -31.0725    4.2963 C.3       3 GLC5        0.0000 
     42 CA         38.3140  -32.1010    6.1960 C.3       9 GLL5        0.0000 
     43 CA         36.7970  -29.7040    3.0750 C.3       6 GLP5        0.0000 
     44 CA         38.0837  -30.7455    3.4873 C.3       3 GLC5        0.0000 
     45 CA         38.8810  -32.3670    3.8170 C.3       9 GLL5        0.0000 
     46 CA         40.6728  -33.2338    5.0020 C.3       3 GLC5        0.0000 
     47 CA         39.8600  -31.2070    3.9820 C.3       9 GLL5        0.0000 
     48 CA         42.1530  -34.5770    5.8490 C.3       6 GLP5        0.0000 
     49 CA         40.9710  -31.8600    6.5300 C.3       3 GLC5        0.0000 
     50 CA         39.9890  -30.6190    5.1560 C.3       9 GLL5        0.0000 
     51 CA         42.5790  -32.6100    7.3460 C.3       6 GLP5        0.0000 
     52 CA         38.1857  -30.2820    4.4135 C.3       3 GLC5        0.0000 
     53 CA         39.1600  -31.1010    6.3480 C.3       9 GLL5        0.0000 
     54 CA         43.6075  -33.1098    4.0832 C.3       3 GLC5        0.0000 
     55 CA         42.5890  -32.3500    2.7330 C.3       9 GLL5        0.0000 
     56 CA         44.3360  -33.3540    5.7220 C.3       6 GLP5        0.0000 
     57 CA         40.7835  -35.6690    1.0577 C.3       3 GLC5        0.0000 
     58 CA         42.4710  -34.1010    1.0040 C.3       9 GLL5        0.0000 
     59 CA         39.6860  -37.4430    1.3180 C.3       6 GLP5        0.0000 
     60 CA         39.1985  -33.4513    0.1768 C.3       3 GLC5        0.0000 
     61 CA         41.2910  -33.6890    0.5910 C.3       9 GLL5        0.0000 
     62 CA         37.4420  -33.8120   -0.5720 C.3       6 GLP5        0.0000 
@<TRIPOS>BOND
@<TRIPOS>SUBSTRUCTURE
     1 ALC1        1 GROUP        1 X    ALC  0     ROOT ALC X 1
     2 SEC2       24 GROUP        1 X    SEC  0     **** SEC X 2
     3 GLC5        4 GROUP        1 X    GLC  0     **** GLC X 6
     4 ALP1        3 GROUP        1 Y    ALP  0     ROOT ALP Y 8
     5 SEP2       26 GROUP        1 Y    SEP  0     **** SEP Y 9
     6 GLP5        6 GROUP        1 Y    GLP  0     **** GLP Y 13
     7 ALL1        2 GROUP        1 Z    ALL  0     ROOT ALL Z 15
     8 SEL2       25 GROUP        1 Z    SEL  0     **** SEL Z 16
     9 GLL5        5 GROUP        1 Z    GLL  0     **** GLL Z 20
@<TRIPOS>SET

