#    Name: 4a9s_RU9_1_ligand
#    Modification time : Tue Mar 25 05:20:06 2014

@<TRIPOS>MOLECULE
4a9s_RU9_1_ligand
   41    44     1     0     0
SMALL
NO_CHARGES


@<TRIPOS>ATOM
      1 C1         34.2940  -33.4430   12.5970 C.2       1 RU91515     0.0000 
      2 N1         34.8150  -32.4800   13.5500 N.am      1 RU91515     0.0000 
      3 O1         40.6020  -30.7750    2.8740 O.3       1 RU91515     0.0000 
      4 C2         34.9550  -33.5930   11.2290 C.ar      1 RU91515     0.0000 
      5 C3         35.6430  -32.6000   10.7030 C.ar      1 RU91515     0.0000 
      6 N3         37.0970  -31.9200    8.5460 N.pl3     1 RU91515     0.0000 
      7 C4         36.3190  -32.7730    9.3420 C.ar      1 RU91515     0.0000 
      8 N4         36.9610  -33.7980    7.4190 N.2       1 RU91515     0.0000 
      9 C5         37.4750  -32.6220    7.3600 C.2       1 RU91515     0.0000 
     10 C6         36.2080  -33.9140    8.7060 C.ar      1 RU91515     0.0000 
     11 C7         35.4100  -35.0650    9.3190 C.ar      1 RU91515     0.0000 
     12 C8         34.8300  -34.9160   10.4870 C.ar      1 RU91515     0.0000 
     13 C9         38.3140  -32.1010    6.1960 C.ar      1 RU91515     0.0000 
     14 C10        38.1690  -32.7810    4.8390 C.ar      1 RU91515     0.0000 
     15 C11        38.8810  -32.3670    3.8170 C.ar      1 RU91515     0.0000 
     16 C12        39.8600  -31.2070    3.9820 C.ar      1 RU91515     0.0000 
     17 C13        39.9890  -30.6190    5.1560 C.ar      1 RU91515     0.0000 
     18 C14        39.1600  -31.1010    6.3480 C.ar      1 RU91515     0.0000 
     19 C15        41.2190  -31.8710    2.2550 C.ar      1 RU91515     0.0000 
     20 C16        42.5890  -32.3500    2.7330 C.ar      1 RU91515     0.0000 
     21 C17        43.1690  -33.3810    2.1560 C.ar      1 RU91515     0.0000 
     22 C18        42.4710  -34.1010    1.0040 C.ar      1 RU91515     0.0000 
     23 C19        41.2910  -33.6890    0.5910 C.ar      1 RU91515     0.0000 
     24 C20        40.6190  -32.4920    1.2600 C.ar      1 RU91515     0.0000 
     25 OAB        33.4430  -34.2030   12.9250 O.2       1 RU91515     0.0000 
     26 OAC        40.6500  -34.3550   -0.4590 O.3       1 RU91515     0.0000 
     27 H          35.6251  -31.9695   13.2615 H         1 RU91515     0.0000 
     28 H          34.3208  -32.4066   14.4162 H         1 RU91515     0.0000 
     29 H          35.7800  -31.6809   11.1284 H         1 RU91515     0.0000 
     30 H          37.3380  -31.0324    8.7456 H         1 RU91515     0.0000 
     31 H          35.3848  -35.9118    8.7443 H         1 RU91515     0.0000 
     32 H          34.2785  -35.6256   10.9733 H         1 RU91515     0.0000 
     33 H          37.4933  -33.5497    4.8216 H         1 RU91515     0.0000 
     34 H          38.8487  -32.7591    2.8710 H         1 RU91515     0.0000 
     35 H          40.6137  -29.8384    5.3638 H         1 RU91515     0.0000 
     36 H          39.3289  -30.5908    7.2148 H         1 RU91515     0.0000 
     37 H          42.9785  -31.8067    3.5084 H         1 RU91515     0.0000 
     38 H          44.0794  -33.7697    2.4082 H         1 RU91515     0.0000 
     39 H          42.9949  -34.8885    0.6179 H         1 RU91515     0.0000 
     40 H          39.7073  -32.2456    0.8695 H         1 RU91515     0.0000 
     41 H          39.9257  -33.7328   -0.7561 H         1 RU91515     0.0000 
@<TRIPOS>BOND
     1    2    1 am   
     2    4    1 1    
     3   25    1 2    
     4   27    2 1    
     5   28    2 1    
     6   16    3 1    
     7   19    3 1    
     8    5    4 ar   
     9   12    4 ar   
    10    7    5 ar   
    11   29    5 1    
    12    7    6 1    
    13    9    6 1    
    14   30    6 1    
    15   10    7 ar   
    16    9    8 2    
    17   10    8 1    
    18   13    9 1    
    19   11   10 ar   
    20   12   11 ar   
    21   31   11 1    
    22   32   12 1    
    23   14   13 ar   
    24   18   13 ar   
    25   15   14 ar   
    26   33   14 1    
    27   16   15 ar   
    28   34   15 1    
    29   17   16 ar   
    30   18   17 ar   
    31   35   17 1    
    32   36   18 1    
    33   20   19 ar   
    34   24   19 ar   
    35   21   20 ar   
    36   37   20 1    
    37   22   21 ar   
    38   38   21 1    
    39   23   22 ar   
    40   39   22 1    
    41   24   23 ar   
    42   26   23 1    
    43   40   24 1    
    44   41   26 1    
@<TRIPOS>SUBSTRUCTURE
     1 RU91515     1 GROUP   
@<TRIPOS>SET

