#    Name: 1i5a_ACP_1_INTS_M
#    Modification time : Tue Mar 25 06:40:37 2014

@<TRIPOS>MOLECULE
1i5a_ACP_1_INTS_M
   58     0    12     0     0
SMALL
NO_CHARGES


@<TRIPOS>ATOM
      1 Zn         22.3955   21.5765   71.1895 Zn        3 ZIC7        0.0000 
      2 Zn         22.4400   20.8800   70.1870 Zn       11 ZIL7        0.0000 
      3 Zn         22.3510   22.2730   72.1920 Zn        7 ZIP7        0.0000 
      4 Zn         23.3510   22.6265   71.9015 Zn        3 ZIC7        0.0000 
      5 Zn         24.3510   22.9800   71.6110 Zn       11 ZIL7        0.0000 
      6 N          25.1285   23.7635   72.4350 N.am      2 SEC2        0.0000 
      7 N          24.3510   22.9800   71.6110 N.am     10 SEL2        0.0000 
      8 N          25.9060   24.5470   73.2590 N.am      6 SEP2        0.0000 
      9 Zn         21.8730   23.1000   71.4300 Zn        3 ZIC7        0.0000 
     10 Zn         21.3950   23.9270   70.6680 Zn       11 ZIL7        0.0000 
     11 N          20.9595   24.5865   71.8685 N.am      2 SEC2        0.0000 
     12 N          21.3950   23.9270   70.6680 N.am     10 SEL2        0.0000 
     13 N          20.5240   25.2460   73.0690 N.am      6 SEP2        0.0000 
     14 N          20.1620   23.9595   68.2365 N.am      2 SEC2        0.0000 
     15 N          21.4580   24.3410   68.1700 N.am     10 SEL2        0.0000 
     16 N          18.8660   23.5780   68.3030 N.am      6 SEP2        0.0000 
     17 CA         22.8775   27.9235   67.9810 C.3       4 GLC5        0.0000 
     18 CA         23.8580   26.2140   69.0150 C.3      12 GLL5        0.0000 
     19 CA         21.8970   29.6330   66.9470 C.3       8 GLP5        0.0000 
     20 CA         24.1245   25.3565   67.0870 C.3       4 GLC5        0.0000 
     21 CA         24.3910   24.4990   65.1590 C.3       8 GLP5        0.0000 
     22 CA         23.9375   28.6130   67.5955 C.3       4 GLC5        0.0000 
     23 CA         24.7600   27.4820   69.1520 C.3      12 GLL5        0.0000 
     24 CA         23.1150   29.7440   66.0390 C.3       8 GLP5        0.0000 
     25 CA         25.4810   26.2730   72.0800 C.3       4 GLC5        0.0000 
     26 CA         25.6010   26.9150   70.2570 C.3      12 GLL5        0.0000 
     27 CA         25.3610   25.6310   73.9030 C.3       8 GLP5        0.0000 
     28 CA         26.2320   27.2890   72.6545 C.3       4 GLC5        0.0000 
     29 CA         26.0760   28.1690   70.9940 C.3      12 GLL5        0.0000 
     30 CA         26.3880   26.4090   74.3150 C.3       8 GLP5        0.0000 
     31 CA         23.3615   29.8520   69.4550 C.3       4 GLC5        0.0000 
     32 CA         24.8310   28.9670   70.9100 C.3      12 GLL5        0.0000 
     33 CA         21.8920   30.7370   68.0000 C.3       8 GLP5        0.0000 
     34 CA         22.1920   27.6040   74.6685 C.3       4 GLC5        0.0000 
     35 CA         23.0050   29.5090   74.0690 C.3      12 GLL5        0.0000 
     36 CA         21.3790   25.6990   75.2680 C.3       8 GLP5        0.0000 
     37 CA         24.3405   30.2895   76.9500 C.3       4 GLC5        0.0000 
     38 CA         23.0550   30.2120   75.3050 C.3      12 GLL5        0.0000 
     39 CA         25.6260   30.3670   78.5950 C.3       8 GLP5        0.0000 
     40 CA         22.0100   31.9650   75.5890 C.3       4 GLC5        0.0000 
     41 CA         20.9650   33.7180   75.8730 C.3       8 GLP5        0.0000 
     42 O          21.7135   30.8315   77.5165 O.2       1 ALC1        0.0000 
     43 O          22.0610   30.0800   76.2390 O.2       9 ALL1        0.0000 
     44 O          21.3660   31.5830   78.7940 O.2       5 ALP1        0.0000 
     45 CA         25.7565   29.4695   74.8555 C.3       4 GLC5        0.0000 
     46 CA         25.1140   31.2130   74.6850 C.3      12 GLL5        0.0000 
     47 CA         26.3990   27.7260   75.0260 C.3       8 GLP5        0.0000 
     48 CA         25.3700   30.7900   76.6400 C.3       4 GLC5        0.0000 
     49 CA         25.2795   33.3530   75.1610 C.3       4 GLC5        0.0000 
     50 CA         25.4450   35.4930   75.6370 C.3       8 GLP5        0.0000 
     51 CA         25.1825   32.6220   73.4150 C.3       4 GLC5        0.0000 
     52 CA         25.2510   34.0310   72.1450 C.3       8 GLP5        0.0000 
     53 CA         22.4310   27.3395   69.4158 C.3       4 GLC5        0.0000 
     54 CA         20.5530   27.8310   69.7480 C.3       8 GLP5        0.0000 
     55 CA         24.9840   28.7681   74.4920 C.3       4 GLC5        0.0000 
     56 CA         24.1080   29.7600   73.2290 C.3      12 GLL5        0.0000 
     57 CA         23.2755   31.3846   72.9260 C.3       4 GLC5        0.0000 
     58 CA         22.9820   32.9590   71.8940 C.3       8 GLP5        0.0000 
@<TRIPOS>BOND
@<TRIPOS>SUBSTRUCTURE
     1 ALC1       42 GROUP        1 X    ALC  0     ROOT ALC X 1
     2 SEC2        6 GROUP        1 X    SEC  0     **** SEC X 2
     3 ZIC7        1 GROUP        1 X    ZIC  0     **** ZIC X 5
     4 GLC5       17 GROUP        1 X    GLC  0     **** GLC X 6
     5 ALP1       44 GROUP        1 Y    ALP  0     ROOT ALP Y 8
     6 SEP2        8 GROUP        1 Y    SEP  0     **** SEP Y 9
     7 ZIP7        3 GROUP        1 Y    ZIP  0     **** ZIP Y 12
     8 GLP5       19 GROUP        1 Y    GLP  0     **** GLP Y 13
     9 ALL1       43 GROUP        1 Z    ALL  0     ROOT ALL Z 15
    10 SEL2        7 GROUP        1 Z    SEL  0     **** SEL Z 16
    11 ZIL7        2 GROUP        1 Z    ZIL  0     **** ZIL Z 19
    12 GLL5       18 GROUP        1 Z    GLL  0     **** GLL Z 20
@<TRIPOS>SET

