#    Name: 1i5a_ACP_1_ligand
#    Modification time : Tue Mar 25 06:40:37 2014

@<TRIPOS>MOLECULE
1i5a_ACP_1_ligand
   45    47     1     0     0
SMALL
NO_CHARGES


@<TRIPOS>ATOM
      1 PG         23.6900   20.0490   70.2050 P.3       1 ACP998      0.0000 
      2 O1G        23.6440   18.9770   69.1330 O.co2     1 ACP998      0.0000 
      3 O2G        22.4400   20.8800   70.1870 O.co2     1 ACP998      0.0000 
      4 O3G        24.1510   19.5750   71.5760 O.co2     1 ACP998      0.0000 
      5 PB         24.6960   22.6230   70.2370 P.3       1 ACP998      0.0000 
      6 O1B        25.9170   23.3600   69.7820 O.co2     1 ACP998      0.0000 
      7 O2B        24.3510   22.9800   71.6110 O.co2     1 ACP998      0.0000 
      8 C3B        25.0470   21.0710   69.9400 C.3       1 ACP998      0.0000 
      9 PA         22.2270   24.3120   69.4590 P.3       1 ACP998      0.0000 
     10 O1A        21.3950   23.9270   70.6680 O.co2     1 ACP998      0.0000 
     11 O2A        21.4580   24.3410   68.1700 O.co2     1 ACP998      0.0000 
     12 O3A        23.4950   23.3500   69.3350 O.3       1 ACP998      0.0000 
     13 O5'        22.9670   25.6290   69.9930 O.3       1 ACP998      0.0000 
     14 C5'        23.8580   26.2140   69.0150 C.3       1 ACP998      0.0000 
     15 C4'        24.7600   27.4820   69.1520 C.3       1 ACP998      0.0000 
     16 O4'        24.0590   28.5130   69.7980 O.3       1 ACP998      0.0000 
     17 C3'        25.6010   26.9150   70.2570 C.3       1 ACP998      0.0000 
     18 O3'        26.5960   26.0610   69.7340 O.3       1 ACP998      0.0000 
     19 C2'        26.0760   28.1690   70.9940 C.3       1 ACP998      0.0000 
     20 O2'        27.1620   28.7200   70.2810 O.3       1 ACP998      0.0000 
     21 C1'        24.8310   28.9670   70.9100 C.3       1 ACP998      0.0000 
     22 N9         23.8930   29.0200   72.1170 N.pl3     1 ACP998      0.0000 
     23 C8         22.7280   28.3920   72.3660 C.2       1 ACP998      0.0000 
     24 N7         22.1490   28.6560   73.5330 N.2       1 ACP998      0.0000 
     25 C5         23.0050   29.5090   74.0690 C.ar      1 ACP998      0.0000 
     26 C6         23.0550   30.2120   75.3050 C.ar      1 ACP998      0.0000 
     27 N6         22.0610   30.0800   76.2390 N.pl3     1 ACP998      0.0000 
     28 N1         24.1070   31.0560   75.5880 N.ar      1 ACP998      0.0000 
     29 C2         25.1140   31.2130   74.6850 C.ar      1 ACP998      0.0000 
     30 N3         25.1520   30.5810   73.4830 N.ar      1 ACP998      0.0000 
     31 C4         24.1080   29.7600   73.2290 C.ar      1 ACP998      0.0000 
     32 H          25.3134   20.9471   68.9180 H         1 ACP998      0.0000 
     33 H          25.8034   20.7346   70.6075 H         1 ACP998      0.0000 
     34 H          23.2599   26.3840   68.0134 H         1 ACP998      0.0000 
     35 H          24.5856   25.3756   68.6180 H         1 ACP998      0.0000 
     36 H          25.2779   27.6463   68.3486 H         1 ACP998      0.0000 
     37 H          24.9097   26.3994   70.9278 H         1 ACP998      0.0000 
     38 H          26.2677   27.8963   71.9822 H         1 ACP998      0.0000 
     39 H          25.1138   30.0317   70.6880 H         1 ACP998      0.0000 
     40 H          22.3172   27.7471   71.6870 H         1 ACP998      0.0000 
     41 H          22.1780   30.6034   77.0830 H         1 ACP998      0.0000 
     42 H          21.3057   29.4718   75.9949 H         1 ACP998      0.0000 
     43 H          25.9145   31.8668   74.9357 H         1 ACP998      0.0000 
     44 H          26.2176   25.1394   69.8207 H         1 ACP998      0.0000 
     45 H          27.3098   29.6205   70.6900 H         1 ACP998      0.0000 
@<TRIPOS>BOND
     1    2    1 ar   
     2    3    1 ar   
     3    4    1 ar   
     4    8    1 1    
     5    6    5 ar   
     6    7    5 ar   
     7    8    5 1    
     8   12    5 1    
     9   32    8 1    
    10   33    8 1    
    11   10    9 ar   
    12   11    9 ar   
    13   12    9 1    
    14   13    9 1    
    15   14   13 1    
    16   15   14 1    
    17   34   14 1    
    18   35   14 1    
    19   16   15 1    
    20   17   15 1    
    21   36   15 1    
    22   21   16 1    
    23   18   17 1    
    24   19   17 1    
    25   37   17 1    
    26   44   18 1    
    27   20   19 1    
    28   21   19 1    
    29   38   19 1    
    30   45   20 1    
    31   22   21 1    
    32   39   21 1    
    33   23   22 1    
    34   31   22 1    
    35   24   23 2    
    36   40   23 1    
    37   25   24 1    
    38   26   25 ar   
    39   31   25 ar   
    40   27   26 1    
    41   28   26 ar   
    42   41   27 1    
    43   42   27 1    
    44   29   28 ar   
    45   30   29 ar   
    46   43   29 1    
    47   31   30 ar   
@<TRIPOS>SUBSTRUCTURE
     1 ACP998      1 GROUP   
@<TRIPOS>SET

