#    Name: 4bgq_38R_1_INTS_M
#    Modification time : Tue Mar 25 07:44:30 2014

@<TRIPOS>MOLECULE
4bgq_38R_1_INTS_M
   55     0     6     0     0
SMALL
NO_CHARGES


@<TRIPOS>ATOM
      1 CA         46.8770   29.1815   53.7810 C.3       2 GLC5        0.0000 
      2 CA         47.4910   29.8590   51.8370 C.3       6 GLL5        0.0000 
      3 CA         46.2630   28.5040   55.7250 C.3       4 GLP5        0.0000 
      4 CA         53.2885   28.4720   57.0290 C.3       2 GLC5        0.0000 
      5 CA         51.2490   29.2890   57.0440 C.3       6 GLL5        0.0000 
      6 CA         55.3280   27.6550   57.0140 C.3       4 GLP5        0.0000 
      7 CA         49.5975   28.0240   56.6680 C.3       2 GLC5        0.0000 
      8 CA         47.9460   26.7590   56.2920 C.3       4 GLP5        0.0000 
      9 CA         53.3320   27.9960   55.7175 C.3       2 GLC5        0.0000 
     10 CA         51.6820   29.1880   55.6050 C.3       6 GLL5        0.0000 
     11 CA         54.9820   26.8040   55.8300 C.3       4 GLP5        0.0000 
     12 CA         48.3175   26.4940   52.9615 C.3       2 GLC5        0.0000 
     13 CA         49.3320   28.4890   52.9210 C.3       6 GLL5        0.0000 
     14 CA         47.3030   24.4990   53.0020 C.3       4 GLP5        0.0000 
     15 O          47.8620   27.5920   51.2960 O.2       1 ALC1        0.0000 
     16 O          48.2710   28.6710   52.0030 O.2       5 ALL1        0.0000 
     17 O          47.4530   26.5130   50.5890 O.2       3 ALP1        0.0000 
     18 CA         52.6930   32.6470   55.2070 C.3       2 GLC5        0.0000 
     19 CA         52.7050   31.1020   56.5610 C.3       6 GLL5        0.0000 
     20 CA         52.6810   34.1920   53.8530 C.3       4 GLP5        0.0000 
     21 CA         54.0250   32.7720   57.1285 C.3       2 GLC5        0.0000 
     22 CA         55.3450   34.4420   57.6960 C.3       4 GLP5        0.0000 
     23 CA         48.0145   32.2930   51.4140 C.3       2 GLC5        0.0000 
     24 CA         46.7820   31.9830   52.4120 C.3       6 GLL5        0.0000 
     25 CA         49.2470   32.6030   50.4160 C.3       4 GLP5        0.0000 
     26 CA         51.0250   35.9695   58.3845 C.3       2 GLC5        0.0000 
     27 CA         50.5460   33.9560   58.3650 C.3       6 GLL5        0.0000 
     28 CA         51.5040   37.9830   58.4040 C.3       4 GLP5        0.0000 
     29 CA         52.7705   31.3235   53.7290 C.3       2 GLC5        0.0000 
     30 CA         52.7020   30.2250   55.3770 C.3       6 GLL5        0.0000 
     31 CA         52.8390   32.4220   52.0810 C.3       4 GLP5        0.0000 
     32 CA         44.8303   29.1612   50.4952 C.3       2 GLC5        0.0000 
     33 CA         46.5970   29.8630   50.7670 C.3       6 GLL5        0.0000 
     34 CA         43.4590   27.9070   50.3360 C.3       4 GLP5        0.0000 
     35 CA         47.8360   31.5087   50.6690 C.3       2 GLC5        0.0000 
     36 CA         45.8060   30.9680   50.5420 C.3       6 GLL5        0.0000 
     37 CA         51.4117   27.2323   56.9597 C.3       2 GLC5        0.0000 
     38 CA         51.3580   25.2260   57.5950 C.3       4 GLP5        0.0000 
     39 CA         50.3593   29.1520   58.7313 C.3       2 GLC5        0.0000 
     40 CA         48.9650   28.5430   60.1060 C.3       4 GLP5        0.0000 
     41 CA         52.8805   29.0842   53.7335 C.3       2 GLC5        0.0000 
     42 CA         53.5690   28.4620   51.9760 C.3       4 GLP5        0.0000 
     43 CA         51.5738   28.6908   52.6910 C.3       2 GLC5        0.0000 
     44 CA         49.8250   29.3500   53.8910 C.3       6 GLL5        0.0000 
     45 CA         48.7622   27.8392   54.8490 C.3       2 GLC5        0.0000 
     46 CA         46.8697   30.3900   55.8798 C.3       2 GLC5        0.0000 
     47 CA         47.7570   32.3450   56.6600 C.3       6 GLL5        0.0000 
     48 CA         48.2669   31.4791   58.4038 C.3       2 GLC5        0.0000 
     49 CA         47.9240   29.6970   59.2220 C.3       4 GLP5        0.0000 
     50 CA         49.2000   33.1940   60.2635 C.3       2 GLC5        0.0000 
     51 CA         49.1020   33.6140   58.3410 C.3       6 GLL5        0.0000 
     52 CA         48.5760   32.6030   62.1740 C.3       4 GLP5        0.0000 
     53 CA         54.2369   29.6751   56.5460 C.3       2 GLC5        0.0000 
     54 CA         52.2580   30.2330   57.6690 C.3       6 GLL5        0.0000 
     55 CA         55.8820   28.9040   56.8460 C.3       4 GLP5        0.0000 
@<TRIPOS>BOND
@<TRIPOS>SUBSTRUCTURE
     1 ALC1       15 GROUP        1 X    ALC  0     ROOT ALC X 1
     2 GLC5        1 GROUP        1 X    GLC  0     **** GLC X 6
     3 ALP1       17 GROUP        1 Y    ALP  0     ROOT ALP Y 8
     4 GLP5        3 GROUP        1 Y    GLP  0     **** GLP Y 13
     5 ALL1       16 GROUP        1 Z    ALL  0     ROOT ALL Z 15
     6 GLL5        2 GROUP        1 Z    GLL  0     **** GLL Z 20
@<TRIPOS>SET

