#    Name: 4bgq_38R_1_ligand
#    Modification time : Tue Mar 25 07:44:30 2014

@<TRIPOS>MOLECULE
4bgq_38R_1_ligand
   48    51     1     0     0
SMALL
NO_CHARGES


@<TRIPOS>ATOM
      1 C4         47.4910   29.8590   51.8370 C.ar      1 38R1000     0.0000 
      2 C5         46.5970   29.8630   50.7670 C.ar      1 38R1000     0.0000 
      3 C6         45.8060   30.9680   50.5420 C.ar      1 38R1000     0.0000 
      4 N1         45.9360   32.0080   51.3830 N.ar      1 38R1000     0.0000 
      5 N3         47.5840   30.9160   52.6520 N.ar      1 38R1000     0.0000 
      6 C1U        51.2490   29.2890   57.0440 C.3       1 38R1000     0.0000 
      7 C1T        51.6820   29.1880   55.6050 C.3       1 38R1000     0.0000 
      8 C1R        50.8310   28.6600   54.5200 C.2       1 38R1000     0.0000 
      9 C1S        49.8250   29.3500   53.8910 C.2       1 38R1000     0.0000 
     10 N1Q        50.9230   27.4620   53.9570 N.2       1 38R1000     0.0000 
     11 N1P        50.0110   27.3570   52.9810 N.pl3     1 38R1000     0.0000 
     12 C1H        49.3320   28.4890   52.9210 C.2       1 38R1000     0.0000 
     13 N1G        48.2710   28.6710   52.0030 N.pl3     1 38R1000     0.0000 
     14 C1Y        52.7050   31.1020   56.5610 C.3       1 38R1000     0.0000 
     15 C2         46.7820   31.9830   52.4120 C.ar      1 38R1000     0.0000 
     16 N1I        46.8110   33.1560   53.1920 N.pl3     1 38R1000     0.0000 
     17 C1J        47.3770   33.2130   54.4860 C.ar      1 38R1000     0.0000 
     18 C1K        47.1960   32.2070   55.4090 C.ar      1 38R1000     0.0000 
     19 C1L        47.7570   32.3450   56.6600 C.ar      1 38R1000     0.0000 
     20 C1O        48.0830   34.3500   54.8090 C.ar      1 38R1000     0.0000 
     21 C1N        48.6540   34.4740   56.0630 C.ar      1 38R1000     0.0000 
     22 C1M        48.4780   33.4720   57.0000 C.ar      1 38R1000     0.0000 
     23 C1V        49.1020   33.6140   58.3410 C.3       1 38R1000     0.0000 
     24 C01        52.2580   30.2330   57.6690 C.3       1 38R1000     0.0000 
     25 C1Z        50.5460   33.9560   58.3650 C.1       1 38R1000     0.0000 
     26 C03        52.7020   30.2250   55.3770 C.3       1 38R1000     0.0000 
     27 N1A        51.6450   34.2730   58.3680 N.1       1 38R1000     0.0000 
     28 H          46.5341   29.0410   50.1530 H         1 38R1000     0.0000 
     29 H          45.1490   30.9808   49.7594 H         1 38R1000     0.0000 
     30 H          51.3098   28.3348   57.5138 H         1 38R1000     0.0000 
     31 H          50.2735   29.7129   57.1052 H         1 38R1000     0.0000 
     32 H          52.4968   28.2003   55.7635 H         1 38R1000     0.0000 
     33 H          49.5273   30.2184   54.0715 H         1 38R1000     0.0000 
     34 H          49.8795   26.5747   52.4177 H         1 38R1000     0.0000 
     35 H          48.0251   27.8504   51.3738 H         1 38R1000     0.0000 
     36 H          53.6978   31.4676   56.7532 H         1 38R1000     0.0000 
     37 H          52.0150   31.9156   56.4257 H         1 38R1000     0.0000 
     38 H          46.3939   34.0282   52.7959 H         1 38R1000     0.0000 
     39 H          46.6542   31.3711   55.1702 H         1 38R1000     0.0000 
     40 H          47.6356   31.5866   57.3618 H         1 38R1000     0.0000 
     41 H          48.1877   35.1094   54.1196 H         1 38R1000     0.0000 
     42 H          49.2078   35.3091   56.2977 H         1 38R1000     0.0000 
     43 H          48.9437   32.6635   58.9170 H         1 38R1000     0.0000 
     44 H          48.5352   34.3877   58.9245 H         1 38R1000     0.0000 
     45 H          53.0773   29.6644   58.0621 H         1 38R1000     0.0000 
     46 H          51.7764   30.8084   58.4345 H         1 38R1000     0.0000 
     47 H          52.4576   30.7999   54.4884 H         1 38R1000     0.0000 
     48 H          53.6786   29.7665   55.2507 H         1 38R1000     0.0000 
@<TRIPOS>BOND
     1    2    1 ar   
     2    5    1 ar   
     3   13    1 1    
     4    3    2 ar   
     5   28    2 1    
     6    4    3 ar   
     7   29    3 1    
     8   15    4 ar   
     9   15    5 ar   
    10    7    6 1    
    11   24    6 1    
    12   30    6 1    
    13   31    6 1    
    14    8    7 1    
    15   26    7 1    
    16   32    7 1    
    17    9    8 1    
    18   10    8 2    
    19   12    9 2    
    20   33    9 1    
    21   11   10 1    
    22   12   11 1    
    23   34   11 1    
    24   13   12 1    
    25   35   13 1    
    26   24   14 1    
    27   26   14 1    
    28   36   14 1    
    29   37   14 1    
    30   16   15 1    
    31   17   16 1    
    32   38   16 1    
    33   18   17 ar   
    34   20   17 ar   
    35   19   18 ar   
    36   39   18 1    
    37   22   19 ar   
    38   40   19 1    
    39   21   20 ar   
    40   41   20 1    
    41   22   21 ar   
    42   42   21 1    
    43   23   22 1    
    44   25   23 1    
    45   43   23 1    
    46   44   23 1    
    47   45   24 1    
    48   46   24 1    
    49   27   25 3    
    50   47   26 1    
    51   48   26 1    
@<TRIPOS>SUBSTRUCTURE
     1 38R1000     1 GROUP   
@<TRIPOS>SET

