#    Name: 2f4j_VX6_1_INTS_M
#    Modification time : Mon Apr  7 18:05:00 2014

@<TRIPOS>MOLECULE
2f4j_VX6_1_INTS_M
   73     0     6     0     0
SMALL
NO_CHARGES


@<TRIPOS>ATOM
      1 CA          5.2790   -8.0265  -28.9280 C.3       2 GLC5        0.0000 
      2 CA          4.7900   -6.1190  -29.9500 C.3       6 GLL5        0.0000 
      3 CA          5.7680   -9.9340  -27.9060 C.3       4 GLP5        0.0000 
      4 CA          1.4230   -5.6800  -29.4995 C.3       2 GLC5        0.0000 
      5 CA          2.4800   -6.9450  -30.7200 C.3       6 GLL5        0.0000 
      6 CA          0.3660   -4.4150  -28.2790 C.3       4 GLP5        0.0000 
      7 CA          4.3545   -8.3815  -28.0270 C.3       2 GLC5        0.0000 
      8 CA          2.9410   -6.8290  -28.1480 C.3       6 GLL5        0.0000 
      9 CA          0.2235   -6.2900  -25.3250 C.3       2 GLC5        0.0000 
     10 CA          1.4040   -7.7640  -26.4390 C.3       6 GLL5        0.0000 
     11 CA         -0.9570   -4.8160  -24.2110 C.3       4 GLP5        0.0000 
     12 CA          1.8330   -5.4555  -27.0730 C.3       2 GLC5        0.0000 
     13 CA          3.3000   -6.4960  -25.8670 C.3       6 GLL5        0.0000 
     14 O          -0.6280   -8.2675  -27.3635 O.2       1 ALC1        0.0000 
     15 O           0.2810   -8.4830  -26.1230 O.2       5 ALL1        0.0000 
     16 O          -1.5370   -8.0520  -28.6040 O.2       3 ALP1        0.0000 
     17 CA         -1.5515  -10.6390  -25.6375 C.3       2 GLC5        0.0000 
     18 CA         -0.3180   -8.9380  -24.8800 C.3       6 GLL5        0.0000 
     19 CA         -2.7850  -12.3400  -26.3950 C.3       4 GLP5        0.0000 
     20 CA         -2.0100   -8.2995  -25.8000 C.3       2 GLC5        0.0000 
     21 CA         -3.7020   -7.6610  -26.7200 C.3       4 GLP5        0.0000 
     22 CA          0.0560  -10.7030  -22.1575 C.3       2 GLC5        0.0000 
     23 CA         -0.7830   -9.2290  -21.2080 C.3       6 GLL5        0.0000 
     24 CA          0.8950  -12.1770  -23.1070 C.3       4 GLP5        0.0000 
     25 CA         -2.8900   -9.2630  -21.2990 C.3       2 GLC5        0.0000 
     26 CA         -4.9970   -9.2970  -21.3900 C.3       4 GLP5        0.0000 
     27 CA         -1.7795  -10.9625  -20.5545 C.3       2 GLC5        0.0000 
     28 CA         -2.7760  -12.6960  -19.9010 C.3       4 GLP5        0.0000 
     29 CA         -1.6410   -7.7790  -22.0520 C.3       2 GLC5        0.0000 
     30 CA         -2.4990   -6.3290  -22.8960 C.3       4 GLP5        0.0000 
     31 CA          6.0695   -5.3145  -24.8755 C.3       2 GLC5        0.0000 
     32 CA          4.2820   -5.7760  -24.5270 C.3       6 GLL5        0.0000 
     33 CA          7.8570   -4.8530  -25.2240 C.3       4 GLP5        0.0000 
     34 CA          5.0790   -4.5165  -23.3745 C.3       2 GLC5        0.0000 
     35 CA          5.8760   -3.2570  -22.2220 C.3       4 GLP5        0.0000 
     36 CA          0.9515   -5.0775  -23.2315 C.3       2 GLC5        0.0000 
     37 CA          2.8600   -5.3390  -22.2520 C.3       6 GLL5        0.0000 
     38 CA          5.0135   -8.2850  -24.1415 C.3       2 GLC5        0.0000 
     39 CA          3.7360   -7.5750  -22.6130 C.3       6 GLL5        0.0000 
     40 CA          6.2910   -8.9950  -25.6700 C.3       4 GLP5        0.0000 
     41 CA          5.0020   -6.1940  -21.4385 C.3       2 GLC5        0.0000 
     42 CA          6.2680   -4.8130  -20.2640 C.3       4 GLP5        0.0000 
     43 O           1.3170   -6.3385  -18.5755 O.2       1 ALC1        0.0000 
     44 O           1.7610   -7.5600  -19.3910 O.2       5 ALL1        0.0000 
     45 O           0.8730   -5.1170  -17.7600 O.2       3 ALP1        0.0000 
     46 CA          0.3210  -11.6395  -15.9045 C.3       2 GLC5        0.0000 
     47 CA          0.4870   -9.8100  -16.4320 C.3       6 GLL5        0.0000 
     48 CA          0.1550  -13.4690  -15.3770 C.3       4 GLP5        0.0000 
     49 CA          0.5507   -5.7557  -31.4378 C.3       2 GLC5        0.0000 
     50 CA         -1.4620   -5.0500  -31.5460 C.3       4 GLP5        0.0000 
     51 CA          2.9677   -9.1223  -26.5320 C.3       2 GLC5        0.0000 
     52 CA          1.7350   -7.6070  -27.8250 C.3       6 GLL5        0.0000 
     53 CA          4.3660  -10.5590  -25.9320 C.3       4 GLP5        0.0000 
     54 CA          1.1185   -5.9530  -27.7459 C.3       2 GLC5        0.0000 
     55 CA          5.0410   -7.5655  -25.4335 C.3       2 GLC5        0.0000 
     56 CA          0.3965  -10.4735  -23.6702 C.3       2 GLC5        0.0000 
     57 CA          0.1140   -8.6020  -23.5870 C.3       6 GLL5        0.0000 
     58 CA         -1.3005   -7.5495  -23.5648 C.3       2 GLC5        0.0000 
     59 CA          5.2818   -7.7477  -22.2255 C.3       2 GLC5        0.0000 
     60 CA          3.5870   -6.2600  -23.0170 C.3       6 GLL5        0.0000 
     61 CA          6.9020   -8.5780  -21.6360 C.3       4 GLP5        0.0000 
     62 CA          4.5024   -5.2989  -21.0491 C.3       2 GLC5        0.0000 
     63 CA          4.2860   -8.4718  -20.2560 C.3       2 GLC5        0.0000 
     64 CA          2.3780   -7.0940  -20.6020 C.3       6 GLL5        0.0000 
     65 CA          5.8240   -9.3850  -19.5210 C.3       4 GLP5        0.0000 
     66 CA          2.4860   -9.5672  -16.2145 C.3       2 GLC5        0.0000 
     67 CA          0.8850   -8.7370  -17.4500 C.3       6 GLL5        0.0000 
     68 CA          4.2860   -9.8610  -15.4880 C.3       4 GLP5        0.0000 
     69 CA         -1.4958  -10.0530  -15.6352 C.3       2 GLC5        0.0000 
     70 CA         -2.9340  -10.5680  -14.3600 C.3       4 GLP5        0.0000 
     71 CA         -1.1913  -11.0650  -17.6732 C.3       2 GLC5        0.0000 
     72 CA         -0.6020   -9.2660  -17.3890 C.3       6 GLL5        0.0000 
     73 CA         -2.3250  -12.5920  -18.4360 C.3       4 GLP5        0.0000 
@<TRIPOS>BOND
@<TRIPOS>SUBSTRUCTURE
     1 ALC1       14 GROUP        1 X    ALC  0     ROOT ALC X 1
     2 GLC5        1 GROUP        1 X    GLC  0     **** GLC X 6
     3 ALP1       16 GROUP        1 Y    ALP  0     ROOT ALP Y 8
     4 GLP5        3 GROUP        1 Y    GLP  0     **** GLP Y 13
     5 ALL1       15 GROUP        1 Z    ALL  0     ROOT ALL Z 15
     6 GLL5        2 GROUP        1 Z    GLL  0     **** GLL Z 20
@<TRIPOS>SET

