#    Name: 2f4j_VX6_1_ligand
#    Modification time : Mon Apr  7 18:05:00 2014

@<TRIPOS>MOLECULE
2f4j_VX6_1_ligand
   62    66     1     0     0
SMALL
NO_CHARGES


@<TRIPOS>ATOM
      1 N1          4.0480   -5.7010  -32.3330 N.4       1 VX6514      0.0000 
      2 C2          4.8630   -5.2040  -31.1770 C.3       1 VX6514      0.0000 
      3 C3          4.7900   -6.1190  -29.9500 C.3       1 VX6514      0.0000 
      4 N4          3.3730   -6.6210  -29.5090 N.3       1 VX6514      0.0000 
      5 C5          2.4800   -6.9450  -30.7200 C.3       1 VX6514      0.0000 
      6 C6          2.6470   -5.9780  -31.9390 C.3       1 VX6514      0.0000 
      7 C7          4.1610   -4.7620  -33.5150 C.3       1 VX6514      0.0000 
      8 C8          2.9410   -6.8290  -28.1480 C.ar      1 VX6514      0.0000 
      9 C9          1.7350   -7.6070  -27.8250 C.ar      1 VX6514      0.0000 
     10 C10         1.4040   -7.7640  -26.4390 C.ar      1 VX6514      0.0000 
     11 N11         2.2290   -7.1970  -25.5230 N.ar      1 VX6514      0.0000 
     12 C12         3.3000   -6.4960  -25.8670 C.ar      1 VX6514      0.0000 
     13 N13         3.6710   -6.2970  -27.1230 N.ar      1 VX6514      0.0000 
     14 N14         0.2810   -8.4830  -26.1230 N.pl3     1 VX6514      0.0000 
     15 C15        -0.3180   -8.9380  -24.8800 C.2       1 VX6514      0.0000 
     16 C17         0.1140   -8.6020  -23.5870 C.2       1 VX6514      0.0000 
     17 C18        -0.7650   -9.2460  -22.7200 C.2       1 VX6514      0.0000 
     18 N19        -1.7150   -9.9640  -23.4620 N.2       1 VX6514      0.0000 
     19 N20        -1.4390   -9.7740  -24.7750 N.pl3     1 VX6514      0.0000 
     20 C21        -0.7830   -9.2290  -21.2080 C.3       1 VX6514      0.0000 
     21 S23         4.2820   -5.7760  -24.5270 S.3       1 VX6514      0.0000 
     22 C24         3.5870   -6.2600  -23.0170 C.ar      1 VX6514      0.0000 
     23 C25         2.8600   -5.3390  -22.2520 C.ar      1 VX6514      0.0000 
     24 C26         2.2500   -5.7700  -21.0340 C.ar      1 VX6514      0.0000 
     25 C27         2.3780   -7.0940  -20.6020 C.ar      1 VX6514      0.0000 
     26 C28         3.1180   -8.0230  -21.3800 C.ar      1 VX6514      0.0000 
     27 C29         3.7360   -7.5750  -22.6130 C.ar      1 VX6514      0.0000 
     28 N30         1.7610   -7.5600  -19.3910 N.am      1 VX6514      0.0000 
     29 C31         1.7010   -8.7610  -18.7430 C.2       1 VX6514      0.0000 
     30 O32         2.2160   -9.8050  -19.1370 O.2       1 VX6514      0.0000 
     31 C33         0.8850   -8.7370  -17.4500 C.3       1 VX6514      0.0000 
     32 C34        -0.6020   -9.2660  -17.3890 C.3       1 VX6514      0.0000 
     33 C35         0.4870   -9.8100  -16.4320 C.3       1 VX6514      0.0000 
     34 H           4.5086   -6.6710  -32.6533 H         1 VX6514      0.0000 
     35 H           4.5190   -4.1995  -30.8835 H         1 VX6514      0.0000 
     36 H           5.9182   -5.1094  -31.4788 H         1 VX6514      0.0000 
     37 H           5.2494   -5.5969  -29.0805 H         1 VX6514      0.0000 
     38 H           5.4260   -7.0154  -30.1278 H         1 VX6514      0.0000 
     39 H           1.4244   -6.9225  -30.4067 H         1 VX6514      0.0000 
     40 H           2.6944   -7.9693  -31.0632 H         1 VX6514      0.0000 
     41 H           2.0863   -6.4205  -32.7871 H         1 VX6514      0.0000 
     42 H           2.1229   -5.0350  -31.6830 H         1 VX6514      0.0000 
     43 H           1.1861   -7.9990  -28.5477 H         1 VX6514      0.0000 
     44 H          -0.3340   -8.8061  -27.0110 H         1 VX6514      0.0000 
     45 H           0.8356   -8.0627  -23.3640 H         1 VX6514      0.0000 
     46 H          -1.9115  -10.1361  -25.5227 H         1 VX6514      0.0000 
     47 H           2.7603   -4.3734  -22.5487 H         1 VX6514      0.0000 
     48 H           1.7159   -5.0920  -20.4806 H         1 VX6514      0.0000 
     49 H           3.2202   -8.9822  -21.0915 H         1 VX6514      0.0000 
     50 H           4.2712   -8.2479  -23.1581 H         1 VX6514      0.0000 
     51 H           1.2014   -6.7243  -18.8700 H         1 VX6514      0.0000 
     52 H           0.7581   -7.8456  -16.8807 H         1 VX6514      0.0000 
     53 H          -0.6813   -9.8822  -18.0893 H         1 VX6514      0.0000 
     54 H          -1.0828   -8.6182  -16.9140 H         1 VX6514      0.0000 
     55 H           0.3621   -9.3832  -15.5978 H         1 VX6514      0.0000 
     56 H           0.7635  -10.6471  -16.7731 H         1 VX6514      0.0000 
     57 H           5.1057   -4.6752  -33.8314 H         1 VX6514      0.0000 
     58 H           3.6190   -5.0782  -34.2936 H         1 VX6514      0.0000 
     59 H           3.8415   -3.8415  -33.2899 H         1 VX6514      0.0000 
     60 H           0.0674   -9.5869  -20.8224 H         1 VX6514      0.0000 
     61 H          -0.9011   -8.3034  -20.8484 H         1 VX6514      0.0000 
     62 H          -1.5285   -9.7841  -20.8392 H         1 VX6514      0.0000 
@<TRIPOS>BOND
     1    2    1 1    
     2    6    1 1    
     3    7    1 1    
     4   34    1 1    
     5    3    2 1    
     6   35    2 1    
     7   36    2 1    
     8    4    3 1    
     9   37    3 1    
    10   38    3 1    
    11    5    4 1    
    12    8    4 1    
    13    6    5 1    
    14   39    5 1    
    15   40    5 1    
    16   41    6 1    
    17   42    6 1    
    18   57    7 1    
    19   58    7 1    
    20   59    7 1    
    21    9    8 ar   
    22   13    8 ar   
    23   10    9 ar   
    24   43    9 1    
    25   11   10 ar   
    26   14   10 1    
    27   12   11 ar   
    28   13   12 ar   
    29   21   12 1    
    30   15   14 1    
    31   44   14 1    
    32   16   15 2    
    33   19   15 1    
    34   17   16 1    
    35   45   16 1    
    36   18   17 2    
    37   20   17 1    
    38   19   18 1    
    39   46   19 1    
    40   60   20 1    
    41   61   20 1    
    42   62   20 1    
    43   22   21 1    
    44   23   22 ar   
    45   27   22 ar   
    46   24   23 ar   
    47   47   23 1    
    48   25   24 ar   
    49   48   24 1    
    50   26   25 ar   
    51   28   25 1    
    52   27   26 ar   
    53   49   26 1    
    54   50   27 1    
    55   29   28 am   
    56   51   28 1    
    57   30   29 2    
    58   31   29 1    
    59   32   31 1    
    60   33   31 1    
    61   52   31 1    
    62   33   32 1    
    63   53   32 1    
    64   54   32 1    
    65   55   33 1    
    66   56   33 1    
@<TRIPOS>SUBSTRUCTURE
     1 VX6514      1 GROUP   
@<TRIPOS>SET

