#    Name: 1ywr_LI9_1_INTS_M
#    Modification time : Mon Apr  7 16:18:38 2014

@<TRIPOS>MOLECULE
1ywr_LI9_1_INTS_M
   77     0    12     0     0
SMALL
NO_CHARGES


@<TRIPOS>ATOM
      1 CA          5.8820   -1.8845   20.2220 C.3       4 GLC5        0.0000 
      2 CA          5.4490   -0.5080   18.6240 C.3      12 GLL5        0.0000 
      3 CA          6.3150   -3.2610   21.8200 C.3       8 GLP5        0.0000 
      4 CA          4.4770   -1.3820   14.0895 C.3       4 GLC5        0.0000 
      5 CA          4.5650   -0.8100   16.0060 C.3      12 GLL5        0.0000 
      6 CA          4.3890   -1.9540   12.1730 C.3       8 GLP5        0.0000 
      7 CA          2.8510    0.2325   15.1690 C.3       4 GLC5        0.0000 
      8 CA          1.1370    1.2750   14.3320 C.3       8 GLP5        0.0000 
      9 CA          5.4940   -0.9085   13.7340 C.3       4 GLC5        0.0000 
     10 CA          6.5990    0.1370   15.2950 C.3      12 GLL5        0.0000 
     11 CA          7.0470    0.5340   13.2500 C.3       4 GLC5        0.0000 
     12 CA          7.4950    0.9310   11.2050 C.3       8 GLP5        0.0000 
     13 CA          8.0775    1.1780   15.3270 C.3       4 GLC5        0.0000 
     14 CA          9.5560    2.2190   15.3590 C.3       8 GLP5        0.0000 
     15 CA          5.8855    1.8405   15.5145 C.3       4 GLC5        0.0000 
     16 CA          5.1720    3.5440   15.7340 C.3       8 GLP5        0.0000 
     17 CA         -0.0090   -1.0140   21.5935 C.3       4 GLC5        0.0000 
     18 CA          1.5760   -1.6340   22.7780 C.3      12 GLL5        0.0000 
     19 CA         -1.5940   -0.3940   20.4090 C.3       8 GLP5        0.0000 
     20 N           3.5150   -4.6030   17.9700 N.am      2 SEC2        0.0000 
     21 N           3.0970   -3.8030   18.8770 N.am     10 SEL2        0.0000 
     22 N           3.9330   -5.4030   17.0630 N.am      6 SEP2        0.0000 
     23 CA          2.7885   -7.5770   22.2445 C.3       4 GLC5        0.0000 
     24 CA          1.5360   -6.6780   21.4960 C.3      12 GLL5        0.0000 
     25 CA          4.0410   -8.4760   22.9930 C.3       8 GLP5        0.0000 
     26 CA          3.8360   -6.2795   21.3215 C.3       4 GLC5        0.0000 
     27 CA          2.3150   -5.4200   21.1320 C.3      12 GLL5        0.0000 
     28 CA          5.3570   -7.1390   21.5110 C.3       8 GLP5        0.0000 
     29 CA         -0.7565   -2.3355   20.5845 C.3       4 GLC5        0.0000 
     30 CA          0.0810   -4.2770   20.7600 C.3      12 GLL5        0.0000 
     31 OD1        -0.6355   -6.7865   19.5115 O.co2     3 ASC3        0.0000 
     32 OD1         0.2420   -6.7070   20.8160 O.co2    11 ASL3        0.0000 
     33 OD1        -1.5130   -6.8660   18.2070 O.co2     7 ASP3        0.0000 
     34 CA          4.1810    4.6465   21.0780 C.3       4 GLC5        0.0000 
     35 CA          3.2290    2.8090   20.5140 C.3      12 GLL5        0.0000 
     36 CA          5.1330    6.4840   21.6420 C.3       8 GLP5        0.0000 
     37 CA          1.7885    4.2900   20.6395 C.3       4 GLC5        0.0000 
     38 CA          0.3480    5.7710   20.7650 C.3       8 GLP5        0.0000 
     39 O           2.9740    3.8425   24.4145 O.2       1 ALC1        0.0000 
     40 O           3.5370    2.4650   23.9890 O.2       9 ALL1        0.0000 
     41 O           2.4110    5.2200   24.8400 O.2       5 ALP1        0.0000 
     42 CA          5.0575    2.3260   21.8005 C.3       4 GLC5        0.0000 
     43 CA          3.3780    2.1050   22.6890 C.3      12 GLL5        0.0000 
     44 CA          6.7370    2.5470   20.9120 C.3       8 GLP5        0.0000 
     45 CA          4.7095    3.4300   23.4335 C.3       4 GLC5        0.0000 
     46 CA          6.0410    4.7550   24.1780 C.3       8 GLP5        0.0000 
     47 N           3.1380    4.5715   22.1295 N.am      2 SEC2        0.0000 
     48 N           3.3840    3.1140   21.8130 N.am     10 SEL2        0.0000 
     49 N           2.8920    6.0290   22.4460 N.am      6 SEP2        0.0000 
     50 CA          5.2325    1.7650   27.0055 C.3       4 GLC5        0.0000 
     51 CA          3.7960    2.3060   26.4050 C.3      12 GLL5        0.0000 
     52 CA          6.6690    1.2240   27.6060 C.3       8 GLP5        0.0000 
     53 CA          6.3020    1.1238   19.5085 C.3       4 GLC5        0.0000 
     54 CA          4.7698   -3.0245   17.2027 C.3       4 GLC5        0.0000 
     55 CA          5.3730   -5.0040   16.9480 C.3       8 GLP5        0.0000 
     56 CA          6.8782   -1.8061   17.7280 C.3       4 GLC5        0.0000 
     57 CA          7.9180   -3.3340   18.2590 C.3       8 GLP5        0.0000 
     58 CA          7.3353   -1.0720   14.8955 C.3       4 GLC5        0.0000 
     59 CA          5.8100   -0.2570   16.2890 C.3      12 GLL5        0.0000 
     60 CA          8.4660   -2.0840   13.9990 C.3       8 GLP5        0.0000 
     61 CA          4.7298   -2.2172   20.9585 C.3       4 GLC5        0.0000 
     62 CA          3.3810   -1.4790   19.5430 C.3      12 GLL5        0.0000 
     63 CA          4.9438    2.2314   20.7274 C.3       4 GLC5        0.0000 
     64 CA          3.9510    2.6157   18.7103 C.3       4 GLC5        0.0000 
     65 CA          4.7530    3.0700   17.1210 C.3       8 GLP5        0.0000 
     66 CA          4.8308    3.3453   24.9650 C.3       4 GLC5        0.0000 
     67 CA          3.4450    1.5650   25.0990 C.3      12 GLL5        0.0000 
     68 CA         -2.2410    0.1123   25.4600 C.3       4 GLC5        0.0000 
     69 CA         -0.2990    0.7500   24.9650 C.3      12 GLL5        0.0000 
     70 CA         -4.1690    0.0640   25.5900 C.3       8 GLP5        0.0000 
     71 CA          3.9715   -0.0959   25.9801 C.3       4 GLC5        0.0000 
     72 CA          2.0630   -0.3090   26.0290 C.3      12 GLL5        0.0000 
     73 CA          5.5240   -0.6500   26.3480 C.3       8 GLP5        0.0000 
     74 CA         -0.6427    2.3662   26.1275 C.3       4 GLC5        0.0000 
     75 CA          0.9180    1.4030   24.7670 C.3      12 GLL5        0.0000 
     76 CA         -1.5950    3.6560   27.3890 C.3       8 GLP5        0.0000 
     77 CA          4.8796    1.2051   17.2226 C.3       4 GLC5        0.0000 
@<TRIPOS>BOND
@<TRIPOS>SUBSTRUCTURE
     1 ALC1       39 GROUP        1 X    ALC  0     ROOT ALC X 1
     2 SEC2       20 GROUP        1 X    SEC  0     **** SEC X 2
     3 ASC3       31 GROUP        1 X    ASC  0     **** ASC X 3
     4 GLC5        1 GROUP        1 X    GLC  0     **** GLC X 6
     5 ALP1       41 GROUP        1 Y    ALP  0     ROOT ALP Y 8
     6 SEP2       22 GROUP        1 Y    SEP  0     **** SEP Y 9
     7 ASP3       33 GROUP        1 Y    ASP  0     **** ASP Y 10
     8 GLP5        3 GROUP        1 Y    GLP  0     **** GLP Y 13
     9 ALL1       40 GROUP        1 Z    ALL  0     ROOT ALL Z 15
    10 SEL2       21 GROUP        1 Z    SEL  0     **** SEL Z 16
    11 ASL3       32 GROUP        1 Z    ASL  0     **** ASL Z 17
    12 GLL5        2 GROUP        1 Z    GLL  0     **** GLL Z 20
@<TRIPOS>SET

