#    Name: 1ywr_LI9_1_ligand
#    Modification time : Mon Apr  7 16:18:38 2014

@<TRIPOS>MOLECULE
1ywr_LI9_1_ligand
   63    67     1     0     0
SMALL
NO_CHARGES


@<TRIPOS>ATOM
      1 C1          5.4490   -0.5080   18.6240 C.ar      1 LI9361      0.0000 
      2 C2          4.5650   -0.8100   16.0060 C.ar      1 LI9361      0.0000 
      3 C3          4.1820   -1.0730   18.3820 C.ar      1 LI9361      0.0000 
      4 C4          6.2850   -0.0910   17.5860 C.ar      1 LI9361      0.0000 
      5 C5          5.8100   -0.2570   16.2890 C.ar      1 LI9361      0.0000 
      6 C6          3.7370   -1.2240   17.0600 C.ar      1 LI9361      0.0000 
      7 C7          3.3810   -1.4790   19.5430 C.2       1 LI9361      0.0000 
      8 F9          6.5990    0.1370   15.2950 F         1 LI9361      0.0000 
      9 N10         2.1750   -2.9890   20.8490 N.am      1 LI9361      0.0000 
     10 C11         1.4800   -4.1590   21.3750 C.3       1 LI9361      0.0000 
     11 C12         1.5760   -1.6340   22.7780 C.3       1 LI9361      0.0000 
     12 C13         2.9080   -0.8680   20.6510 C.2       1 LI9361      0.0000 
     13 C14         3.0750    0.5310   21.0580 C.ar      1 LI9361      0.0000 
     14 O15         3.0970   -3.8030   18.8770 O.2       1 LI9361      0.0000 
     15 C16         2.8950   -2.9020   19.6670 C.2       1 LI9361      0.0000 
     16 N17         2.1780   -1.7310   21.4660 N.pl3     1 LI9361      0.0000 
     17 C18        -0.5900   -5.5720   21.2130 C.3       1 LI9361      0.0000 
     18 C19         1.5360   -6.6780   21.4960 C.3       1 LI9361      0.0000 
     19 C20         2.3150   -5.4200   21.1320 C.3       1 LI9361      0.0000 
     20 C21         0.0810   -4.2770   20.7600 C.3       1 LI9361      0.0000 
     21 N22         0.2420   -6.7070   20.8160 N.4       1 LI9361      0.0000 
     22 N23         3.2280    0.8200   22.3590 N.ar      1 LI9361      0.0000 
     23 C24         3.2290    2.8090   20.5140 C.ar      1 LI9361      0.0000 
     24 N25         3.5370    2.4650   23.9890 N.pl3     1 LI9361      0.0000 
     25 C26         3.0690    1.5140   20.0850 C.ar      1 LI9361      0.0000 
     26 C27         3.3780    2.1050   22.6890 C.ar      1 LI9361      0.0000 
     27 N28         3.3840    3.1140   21.8130 N.ar      1 LI9361      0.0000 
     28 C29         3.4450    1.5650   25.0990 C.3       1 LI9361      0.0000 
     29 C30         2.1050    0.8860   25.2920 C.ar      1 LI9361      0.0000 
     30 C31         3.7960    2.3060   26.4050 C.3       1 LI9361      0.0000 
     31 C32        -0.3270   -0.4290   25.6950 C.ar      1 LI9361      0.0000 
     32 C33         2.0630   -0.3090   26.0290 C.ar      1 LI9361      0.0000 
     33 C34         0.9180    1.4030   24.7670 C.ar      1 LI9361      0.0000 
     34 C35        -0.2990    0.7500   24.9650 C.ar      1 LI9361      0.0000 
     35 C36         0.8460   -0.9520   26.2220 C.ar      1 LI9361      0.0000 
     36 H           5.7672   -0.4001   19.6071 H         1 LI9361      0.0000 
     37 H           4.2511   -0.9161   15.0385 H         1 LI9361      0.0000 
     38 H           7.1886    0.3106   17.7703 H         1 LI9361      0.0000 
     39 H           2.8223   -1.6300   16.8677 H         1 LI9361      0.0000 
     40 H           1.3564   -4.0510   22.4580 H         1 LI9361      0.0000 
     41 H          -1.5746   -5.6288   20.7505 H         1 LI9361      0.0000 
     42 H          -0.7110   -5.5360   22.2950 H         1 LI9361      0.0000 
     43 H           1.4035   -6.6978   22.5851 H         1 LI9361      0.0000 
     44 H           2.1411   -7.5502   21.2179 H         1 LI9361      0.0000 
     45 H           3.2218   -5.3685   21.7359 H         1 LI9361      0.0000 
     46 H           2.5988   -5.4619   20.0797 H         1 LI9361      0.0000 
     47 H           0.1657   -4.2741   19.6772 H         1 LI9361      0.0000 
     48 H          -0.5203   -3.4294   21.0757 H         1 LI9361      0.0000 
     49 H           3.2283    3.5761   19.7932 H         1 LI9361      0.0000 
     50 H           3.7446    3.4762   24.2293 H         1 LI9361      0.0000 
     51 H           2.9524    1.2860   19.1081 H         1 LI9361      0.0000 
     52 H           4.2082    0.7652   25.0101 H         1 LI9361      0.0000 
     53 H          -1.2210   -0.9187   25.8470 H         1 LI9361      0.0000 
     54 H           2.9252   -0.6977   26.4180 H         1 LI9361      0.0000 
     55 H           0.9426    2.2819   24.2243 H         1 LI9361      0.0000 
     56 H          -1.1606    1.1402   24.5738 H         1 LI9361      0.0000 
     57 H           0.8147   -1.8319   26.7656 H         1 LI9361      0.0000 
     58 H           2.0330   -2.2269   23.4411 H         1 LI9361      0.0000 
     59 H           1.6199   -0.7024   23.1388 H         1 LI9361      0.0000 
     60 H           0.6116   -1.8980   22.7645 H         1 LI9361      0.0000 
     61 H           4.7237    2.6786   26.3828 H         1 LI9361      0.0000 
     62 H           3.1764    3.0722   26.5753 H         1 LI9361      0.0000 
     63 H           3.7415    1.7026   27.2005 H         1 LI9361      0.0000 
@<TRIPOS>BOND
     1    3    1 ar   
     2    4    1 ar   
     3   36    1 1    
     4    5    2 ar   
     5    6    2 ar   
     6   37    2 1    
     7    6    3 ar   
     8    7    3 1    
     9    5    4 ar   
    10   38    4 1    
    11    8    5 1    
    12   39    6 1    
    13   12    7 2    
    14   15    7 1    
    15   10    9 1    
    16   15    9 am   
    17   16    9 1    
    18   19   10 1    
    19   20   10 1    
    20   40   10 1    
    21   16   11 1    
    22   58   11 1    
    23   59   11 1    
    24   60   11 1    
    25   13   12 1    
    26   16   12 1    
    27   22   13 ar   
    28   25   13 ar   
    29   15   14 2    
    30   20   17 1    
    31   21   17 1    
    32   41   17 1    
    33   42   17 1    
    34   19   18 1    
    35   21   18 1    
    36   43   18 1    
    37   44   18 1    
    38   45   19 1    
    39   46   19 1    
    40   47   20 1    
    41   48   20 1    
    42   26   22 ar   
    43   25   23 ar   
    44   27   23 ar   
    45   49   23 1    
    46   26   24 1    
    47   28   24 1    
    48   50   24 1    
    49   51   25 1    
    50   27   26 ar   
    51   29   28 1    
    52   30   28 1    
    53   52   28 1    
    54   32   29 ar   
    55   33   29 ar   
    56   61   30 1    
    57   62   30 1    
    58   63   30 1    
    59   34   31 ar   
    60   35   31 ar   
    61   53   31 1    
    62   35   32 ar   
    63   54   32 1    
    64   34   33 ar   
    65   55   33 1    
    66   56   34 1    
    67   57   35 1    
@<TRIPOS>SUBSTRUCTURE
     1 LI9361      1 GROUP   
@<TRIPOS>SET

