#    Name: 1R5H_1_CAVITY_N1_6.mol2
#    Modification time : Tue Mar 11 05:17:36 2014

@<TRIPOS>MOLECULE
1R5H_1_CAVITY_N1_6.mol2
   82     0     6     0     0
SMALL
NO_CHARGES


@<TRIPOS>ATOM
      1 CA         21.0684   33.3849   16.2866 C.3       5 GLY6        0.0000 
      2 CA         20.8835   32.3646   17.3705 C.3       5 GLY6        0.0000 
      3 CA         19.8147   32.9027   15.6189 C.3       5 GLY6        0.0000 
      4 N          19.6299   31.8824   16.7028 N.2       1 ALA2        0.0000 
      5 N          18.8905   27.8013   21.0385 N.2       1 ALA2        0.0000 
      6 CA         18.5611   32.4204   14.9512 C.3       5 GLY6        0.0000 
      7 N          18.3762   31.4002   16.0351 N.2       1 ALA2        0.0000 
      8 N          18.1914   30.3799   17.1190 N.2       1 ALA2        0.0000 
      9 N          18.0065   29.3596   18.2030 N.2       1 ALA2        0.0000 
     10 N          17.8217   28.3394   19.2869 N.2       1 ALA2        0.0000 
     11 NZ         17.6368   27.3191   20.3708 N.2       3 LYS4        0.0000 
     12 N          16.5680   27.8571   18.6192 N.2       1 ALA2        0.0000 
     13 N          16.3832   26.8369   19.7031 N.2       1 ALA2        0.0000 
     14 CA         22.9398   31.8587   17.2449 C.3       5 GLY6        0.0000 
     15 CA         21.8710   32.3967   15.4933 C.3       5 GLY6        0.0000 
     16 CA         21.6862   31.3764   16.5772 C.3       5 GLY6        0.0000 
     17 CA         21.5013   30.3562   17.6612 C.3       5 GLY6        0.0000 
     18 CA         21.3165   29.3359   18.7451 C.3       5 GLY6        0.0000 
     19 N          21.1316   28.3156   19.8290 N.2       1 ALA2        0.0000 
     20 CA         20.6174   31.9145   14.8256 C.3       5 GLY6        0.0000 
     21 DU         20.4325   30.8942   15.9095 H         6 CUB7        0.0000 
     22 N          20.2477   29.8739   16.9935 N.2       1 ALA2        0.0000 
     23 N          20.0628   28.8537   18.0774 N.2       1 ALA2        0.0000 
     24 N          19.8780   27.8334   19.1613 N.2       1 ALA2        0.0000 
     25 CA         19.5486   32.4525   13.0740 C.3       5 GLY6        0.0000 
     26 CA         19.3637   31.4322   14.1579 C.3       5 GLY6        0.0000 
     27 CA         19.1789   30.4120   15.2418 C.3       5 GLY6        0.0000 
     28 N          18.9940   29.3917   16.3258 N.2       1 ALA2        0.0000 
     29 OD1        18.8092   28.3714   17.4097 O.3       2 ASP3        0.0000 
     30 NZ         18.6243   27.3512   18.4936 N.2       3 LYS4        0.0000 
     31 N          23.7424   30.8705   16.4517 N.2       1 ALA2        0.0000 
     32 CA         23.5576   29.8502   17.5356 C.3       5 GLY6        0.0000 
     33 NZ         23.3727   28.8299   18.6195 N.2       3 LYS4        0.0000 
     34 CA         22.6736   31.4085   14.7000 C.3       5 GLY6        0.0000 
     35 CZ         22.4888   30.3882   15.7840 C.ar      4 PHE5        0.0000 
     36 NZ         22.3039   29.3680   16.8679 N.2       3 LYS4        0.0000 
     37 NZ         22.1191   28.3477   17.9518 N.2       3 LYS4        0.0000 
     38 CZ         21.4200   30.9263   14.0323 C.ar      4 PHE5        0.0000 
     39 CZ         21.2351   29.9060   15.1163 C.ar      4 PHE5        0.0000 
     40 OD1        21.0503   28.8857   16.2002 O.3       2 ASP3        0.0000 
     41 OD1        20.8654   27.8655   17.2841 O.3       2 ASP3        0.0000 
     42 CZ         20.1663   30.4440   13.3646 C.ar      4 PHE5        0.0000 
     43 CA         19.9815   29.4238   14.4486 C.3       5 GLY6        0.0000 
     44 NZ         19.7966   28.4035   15.5325 N.2       3 LYS4        0.0000 
     45 OD1        21.8529   27.8976   15.4069 O.3       2 ASP3        0.0000 
     46 CZ         16.0497   33.7946   22.0438 C.ar      4 PHE5        0.0000 
     47 CA         15.8649   32.7744   23.1277 C.3       5 GLY6        0.0000 
     48 DU         14.6112   32.2921   22.4600 H         6 CUB7        0.0000 
     49 N          14.4264   31.2719   23.5439 N.2       1 ALA2        0.0000 
     50 O          16.8523   32.8064   21.2505 O.2       1 ALA2        0.0000 
     51 CA         16.6675   31.7862   22.3344 C.3       5 GLY6        0.0000 
     52 CA         16.4826   30.7659   23.4183 C.3       5 GLY6        0.0000 
     53 CZ         15.5987   32.3242   20.5828 C.ar      4 PHE5        0.0000 
     54 DU         15.4138   31.3039   21.6667 H         6 CUB7        0.0000 
     55 CA         15.2290   30.2837   22.7506 C.3       5 GLY6        0.0000 
     56 N          15.0441   29.2634   23.8346 N.2       1 ALA2        0.0000 
     57 DU         14.1602   30.8217   20.9990 H         6 CUB7        0.0000 
     58 N          13.9753   29.8015   22.0829 N.2       1 ALA2        0.0000 
     59 O          13.7905   28.7812   23.1669 O.2       1 ALA2        0.0000 
     60 DU         12.9065   30.3395   20.3313 H         6 CUB7        0.0000 
     61 N          12.7217   29.3192   21.4152 N.2       1 ALA2        0.0000 
     62 CA         17.2853   29.7777   22.6251 C.3       5 GLY6        0.0000 
     63 N          16.4013   31.3360   19.7895 N.2       1 ALA2        0.0000 
     64 N          16.2165   30.3158   20.8734 N.2       1 ALA2        0.0000 
     65 CA         16.0316   29.2955   21.9574 C.3       5 GLY6        0.0000 
     66 CA         15.8468   28.2752   23.0413 C.3       5 GLY6        0.0000 
     67 N          14.9628   29.8335   20.2057 N.2       1 ALA2        0.0000 
     68 N          14.7780   28.8133   21.2897 N.2       1 ALA2        0.0000 
     69 O          14.5931   27.7930   22.3736 O.2       1 ALA2        0.0000 
     70 O          13.7092   29.3513   19.5380 O.2       1 ALA2        0.0000 
     71 CA         20.2658   34.3731   17.0799 C.3       5 GLY6        0.0000 
     72 CZ         19.0121   33.8908   16.4122 C.ar      4 PHE5        0.0000 
     73 CZ         18.8273   32.8706   17.4961 C.ar      4 PHE5        0.0000 
     74 CA         18.0879   28.7895   21.8318 C.3       5 GLY6        0.0000 
     75 N          17.2039   30.3478   18.9962 N.2       1 ALA2        0.0000 
     76 N          17.0191   29.3276   20.0802 N.2       1 ALA2        0.0000 
     77 CA         16.8342   28.3073   21.1641 C.3       5 GLY6        0.0000 
     78 O          16.6494   27.2870   22.2480 O.2       1 ALA2        0.0000 
     79 N          15.7654   28.8453   19.4125 N.2       1 ALA2        0.0000 
     80 N          15.5806   27.8251   20.4964 N.2       1 ALA2        0.0000 
     81 N          14.5118   28.3631   18.7448 N.2       1 ALA2        0.0000 
     82 N          14.3269   27.3428   19.8287 N.2       1 ALA2        0.0000 
@<TRIPOS>BOND
@<TRIPOS>SUBSTRUCTURE
     1 ALA2        4 GROUP   
     2 ASP3       29 GROUP   
     3 LYS4       11 GROUP   
     4 PHE5       35 GROUP   
     5 GLY6        1 GROUP   
     6 CUB7       21 GROUP   
@<TRIPOS>SET

