#    Name: 1r5h_AO2_1_INTS_M
#    Modification time : Tue Mar 25 00:23:14 2014

@<TRIPOS>MOLECULE
1r5h_AO2_1_INTS_M
   54     0    12     0     0
SMALL
NO_CHARGES


@<TRIPOS>ATOM
      1 CA         19.3035   34.8840   17.2105 C.3       4 GLC5        0.0000 
      2 CA         20.2150   33.5960   16.0020 C.3      12 GLL5        0.0000 
      3 CA         18.3920   36.1720   18.4190 C.3       8 GLP5        0.0000 
      4 CA         18.0315   34.3825   17.3665 C.3       4 GLC5        0.0000 
      5 CA         18.6840   33.4570   15.8950 C.3      12 GLL5        0.0000 
      6 CA         17.3790   35.3080   18.8380 C.3       8 GLP5        0.0000 
      7 CA         22.4455   29.5590   14.8735 C.3       4 GLC5        0.0000 
      8 CA         21.1260   29.7950   16.5690 C.3      12 GLL5        0.0000 
      9 CA         23.7650   29.3230   13.1780 C.3       8 GLP5        0.0000 
     10 CA         22.1095   28.1990   14.8970 C.3       4 GLC5        0.0000 
     11 CA         20.4430   28.4390   16.3310 C.3      12 GLL5        0.0000 
     12 CA         23.7760   27.9590   13.4630 C.3       8 GLP5        0.0000 
     13 Zn         21.6000   26.6350   15.9400 Zn        3 ZIC7        0.0000 
     14 Zn         21.4470   27.7750   15.6210 Zn       11 ZIL7        0.0000 
     15 Zn         21.7530   25.4950   16.2590 Zn        7 ZIP7        0.0000 
     16 Zn         20.9105   25.8355   16.9300 Zn        3 ZIC7        0.0000 
     17 Zn         20.0680   26.1760   17.6010 Zn       11 ZIL7        0.0000 
     18 Zn         19.1560   25.7815   16.9675 Zn        3 ZIC7        0.0000 
     19 Zn         18.2440   25.3870   16.3340 Zn        7 ZIP7        0.0000 
     20 O          19.6590   25.3225   18.5145 O.2       1 ALC1        0.0000 
     21 O          20.0680   26.1760   17.6010 O.2       9 ALL1        0.0000 
     22 O          19.2500   24.4690   19.4280 O.2       5 ALP1        0.0000 
     23 N          19.2495   30.2295   19.3155 N.am      2 SEC2        0.0000 
     24 N          18.5400   29.3630   18.4610 N.am     10 SEL2        0.0000 
     25 N          19.9590   31.0960   20.1700 N.am      6 SEP2        0.0000 
     26 O          16.1615   26.6320   17.0480 O.2       1 ALC1        0.0000 
     27 O          16.2470   27.5620   18.4180 O.2       9 ALL1        0.0000 
     28 O          16.0760   25.7020   15.6780 O.2       5 ALP1        0.0000 
     29 CA         14.8945   26.2215   22.3995 C.3       4 GLC5        0.0000 
     30 CA         15.7860   28.2240   22.0560 C.3      12 GLL5        0.0000 
     31 CA         14.0030   24.2190   22.7430 C.3       8 GLP5        0.0000 
     32 CA         22.3340   33.5295   16.5750 C.3       4 GLC5        0.0000 
     33 CA         20.9010   32.3400   16.5720 C.3      12 GLL5        0.0000 
     34 CA         24.1100   34.0910   16.8630 C.3       8 GLP5        0.0000 
     35 CA         17.1827   33.6208   14.4505 C.3       4 GLC5        0.0000 
     36 CA         15.8950   34.4210   13.3830 C.3       8 GLP5        0.0000 
     37 CA         17.5195   31.3095   13.9168 C.3       4 GLC5        0.0000 
     38 CA         18.2570   32.1840   15.1410 C.3      12 GLL5        0.0000 
     39 CA         16.4490   31.0770   12.4260 C.3       8 GLP5        0.0000 
     40 CA         19.8751   33.7321   14.0004 C.3       4 GLC5        0.0000 
     41 CA         20.8970   34.6090   12.4560 C.3       8 GLP5        0.0000 
     42 CA         21.1064   31.0354   18.3349 C.3       4 GLC5        0.0000 
     43 CA         20.4660   31.0170   15.8890 C.3      12 GLL5        0.0000 
     44 CA         21.3080   31.3340   20.2700 C.3       8 GLP5        0.0000 
     45 CA         15.0350   26.9787   18.0942 C.3       4 GLC5        0.0000 
     46 CA         15.6510   28.0170   19.5800 C.3      12 GLL5        0.0000 
     47 CA         15.0560   25.5930   16.5920 C.3       8 GLP5        0.0000 
     48 CA         14.8220   28.7357   17.4912 C.3       4 GLC5        0.0000 
     49 CA         14.6300   29.1070   15.3860 C.3       8 GLP5        0.0000 
     50 CA         14.7957   27.8158   24.1018 C.3       4 GLC5        0.0000 
     51 CA         14.5210   28.9160   22.0850 C.3      12 GLL5        0.0000 
     52 CA         15.3720   26.4780   25.4690 C.3       8 GLP5        0.0000 
     53 CA         16.8747   28.1725   23.1805 C.3       4 GLC5        0.0000 
     54 CA         17.6840   28.3420   24.9170 C.3       8 GLP5        0.0000 
@<TRIPOS>BOND
@<TRIPOS>SUBSTRUCTURE
     1 ALC1       20 GROUP        1 X    ALC  0     ROOT ALC X 1
     2 SEC2       23 GROUP        1 X    SEC  0     **** SEC X 2
     3 ZIC7       13 GROUP        1 X    ZIC  0     **** ZIC X 5
     4 GLC5        1 GROUP        1 X    GLC  0     **** GLC X 6
     5 ALP1       22 GROUP        1 Y    ALP  0     ROOT ALP Y 8
     6 SEP2       25 GROUP        1 Y    SEP  0     **** SEP Y 9
     7 ZIP7       15 GROUP        1 Y    ZIP  0     **** ZIP Y 12
     8 GLP5        3 GROUP        1 Y    GLP  0     **** GLP Y 13
     9 ALL1       21 GROUP        1 Z    ALL  0     ROOT ALL Z 15
    10 SEL2       24 GROUP        1 Z    SEL  0     **** SEL Z 16
    11 ZIL7       14 GROUP        1 Z    ZIL  0     **** ZIL Z 19
    12 GLL5        2 GROUP        1 Z    GLL  0     **** GLL Z 20
@<TRIPOS>SET

