#    Name: 1r5h_AO2_1_ligand
#    Modification time : Tue Mar 25 00:23:14 2014

@<TRIPOS>MOLECULE
1r5h_AO2_1_ligand
   48    49     1     0     0
SMALL
NO_CHARGES


@<TRIPOS>ATOM
      1 C1         20.9010   32.3400   16.5720 C.3       1 AO2501      0.0000 
      2 C2         20.2150   33.5960   16.0020 C.3       1 AO2501      0.0000 
      3 C3         18.6840   33.4570   15.8950 C.3       1 AO2501      0.0000 
      4 C4         18.2570   32.1840   15.1410 C.3       1 AO2501      0.0000 
      5 C5         18.9230   30.9000   15.6740 C.3       1 AO2501      0.0000 
      6 C6         20.4660   31.0170   15.8890 C.3       1 AO2501      0.0000 
      7 C7         21.1260   29.7950   16.5690 C.3       1 AO2501      0.0000 
      8 C8         20.4430   28.4390   16.3310 C.3       1 AO2501      0.0000 
      9 N9         21.4470   27.7750   15.6210 N.3       1 AO2501      0.0000 
     10 C10        20.0640   27.6310   17.7040 C.3       1 AO2501      0.0000 
     11 O11        20.0680   26.1760   17.6010 O.3       1 AO2501      0.0000 
     12 C12        18.7110   28.2140   18.1190 C.2       1 AO2501      0.0000 
     13 O13        18.5400   29.3630   18.4610 O.2       1 AO2501      0.0000 
     14 N14        17.6320   27.2680   18.0740 N.am      1 AO2501      0.0000 
     15 N15        16.2470   27.5620   18.4180 N.pl3     1 AO2501      0.0000 
     16 C16        15.6510   28.0170   19.5800 C.ar      1 AO2501      0.0000 
     17 C17        14.3770   28.7120   19.6130 C.ar      1 AO2501      0.0000 
     18 C18        13.8220   29.1530   20.8440 C.ar      1 AO2501      0.0000 
     19 C19        14.5210   28.9160   22.0850 C.ar      1 AO2501      0.0000 
     20 C20        15.7860   28.2240   22.0560 C.ar      1 AO2501      0.0000 
     21 C21        16.3450   27.7820   20.8320 C.ar      1 AO2501      0.0000 
     22 C22        13.9180   29.3910   23.3840 C.3       1 AO2501      0.0000 
     23 H          20.6803   32.2683   17.6461 H         1 AO2501      0.0000 
     24 H          21.9894   32.4475   16.4654 H         1 AO2501      0.0000 
     25 H          20.6233   33.8029   15.0057 H         1 AO2501      0.0000 
     26 H          20.4497   34.4522   16.6453 H         1 AO2501      0.0000 
     27 H          18.2834   34.3309   15.3737 H         1 AO2501      0.0000 
     28 H          18.2580   33.4342   16.9019 H         1 AO2501      0.0000 
     29 H          18.5080   32.2988   14.0785 H         1 AO2501      0.0000 
     30 H          17.1672   32.0752   15.2153 H         1 AO2501      0.0000 
     31 H          18.7342   30.0778   14.9699 H         1 AO2501      0.0000 
     32 H          18.4609   30.6262   16.6326 H         1 AO2501      0.0000 
     33 H          20.9186   31.0633   14.8453 H         1 AO2501      0.0000 
     34 H          21.1713   29.9845   17.6607 H         1 AO2501      0.0000 
     35 H          22.1781   29.7294   16.2250 H         1 AO2501      0.0000 
     36 H          19.5693   28.5834   15.7686 H         1 AO2501      0.0000 
     37 H          20.7970   27.9956   18.4366 H         1 AO2501      0.0000 
     38 H          15.5562   27.3779   17.5686 H         1 AO2501      0.0000 
     39 H          13.8859   28.8788   18.7363 H         1 AO2501      0.0000 
     40 H          12.9290   29.6387   20.8622 H         1 AO2501      0.0000 
     41 H          16.2768   28.0557   22.9363 H         1 AO2501      0.0000 
     42 H          17.2380   27.2953   20.8149 H         1 AO2501      0.0000 
     43 H          22.1065   28.4140   15.2250 H         1 AO2501      0.0000 
     44 H          21.0734   27.2347   14.8670 H         1 AO2501      0.0000 
     45 H          14.4992   29.1682   24.1667 H         1 AO2501      0.0000 
     46 H          13.7842   30.3820   23.3909 H         1 AO2501      0.0000 
     47 H          13.0253   28.9735   23.5536 H         1 AO2501      0.0000 
     48 H          19.7299   25.8532   18.4850 H         1 AO2501      0.0000 
@<TRIPOS>BOND
     1    2    1 1    
     2    6    1 1    
     3   23    1 1    
     4   24    1 1    
     5    3    2 1    
     6   25    2 1    
     7   26    2 1    
     8    4    3 1    
     9   27    3 1    
    10   28    3 1    
    11    5    4 1    
    12   29    4 1    
    13   30    4 1    
    14    6    5 1    
    15   31    5 1    
    16   32    5 1    
    17    7    6 1    
    18   33    6 1    
    19    8    7 1    
    20   34    7 1    
    21   35    7 1    
    22    9    8 1    
    23   10    8 1    
    24   36    8 1    
    25   43    9 1    
    26   44    9 1    
    27   11   10 1    
    28   12   10 1    
    29   37   10 1    
    30   48   11 1    
    31   13   12 2    
    32   14   12 am   
    33   15   14 1    
    34   16   15 1    
    35   38   15 1    
    36   17   16 ar   
    37   21   16 ar   
    38   18   17 ar   
    39   39   17 1    
    40   19   18 ar   
    41   40   18 1    
    42   20   19 ar   
    43   22   19 1    
    44   21   20 ar   
    45   41   20 1    
    46   42   21 1    
    47   45   22 1    
    48   46   22 1    
    49   47   22 1    
@<TRIPOS>SUBSTRUCTURE
     1 AO2501      1 GROUP   
@<TRIPOS>SET

