#    Name: 3k5h_ATP_4_INTS_M
#    Modification time : Mon Mar 24 18:39:35 2014

@<TRIPOS>MOLECULE
3k5h_ATP_4_INTS_M
   69     0    15     0     0
SMALL
NO_CHARGES


@<TRIPOS>ATOM
      1 Zn        -16.6990   55.0760   97.5950 Zn        4 ZIC7        0.0000 
      2 Zn        -17.4500   54.1920   98.0490 Zn       14 ZIL7        0.0000 
      3 Zn        -15.9480   55.9600   97.1410 Zn        9 ZIP7        0.0000 
      4 N         -18.3220   52.8675  101.0050 N.am      2 SEC2        0.0000 
      5 N         -17.9850   52.6780   99.7740 N.am     12 SEL2        0.0000 
      6 N         -18.6590   53.0570  102.2360 N.am      7 SEP2        0.0000 
      7 Zn        -14.6990   53.1940   99.0580 Zn        4 ZIC7        0.0000 
      8 Zn        -15.5140   52.8550   99.2160 Zn       14 ZIL7        0.0000 
      9 Zn        -13.8840   53.5330   98.9000 Zn        9 ZIP7        0.0000 
     10 N         -17.0005   55.2710  102.8810 N.am      2 SEC2        0.0000 
     11 N         -15.8820   55.1240  102.4150 N.am     12 SEL2        0.0000 
     12 N         -18.1190   55.4180  103.3470 N.am      7 SEP2        0.0000 
     13 NZ        -13.2215   55.2465  100.7005 N.4       3 LYC4        0.0000 
     14 NZ        -14.2280   54.5430  100.5790 N.4      13 LYL4        0.0000 
     15 NZ        -12.2150   55.9500  100.8220 N.4       8 LYP4        0.0000 
     16 Zn        -14.0560   54.0380   99.7395 Zn        4 ZIC7        0.0000 
     17 Zn        -14.2280   54.5430  100.5790 Zn       14 ZIL7        0.0000 
     18 N         -13.2215   55.2465  100.7005 N.am      2 SEC2        0.0000 
     19 N         -14.2280   54.5430  100.5790 N.am     12 SEL2        0.0000 
     20 N         -12.2150   55.9500  100.8220 N.am      7 SEP2        0.0000 
     21 N         -17.4575   55.0975  101.8655 N.am      2 SEC2        0.0000 
     22 N         -16.7960   54.7770  100.3840 N.am     12 SEL2        0.0000 
     23 Zn        -15.8395   56.5850   97.8475 Zn        4 ZIC7        0.0000 
     24 Zn        -15.7310   57.2100   98.5540 Zn       14 ZIL7        0.0000 
     25 NZ        -12.8765   56.9765  100.0415 N.4       3 LYC4        0.0000 
     26 NZ        -13.5380   58.0030   99.2610 N.4      13 LYL4        0.0000 
     27 NZ        -12.8615   59.1095   99.8175 N.4       3 LYC4        0.0000 
     28 NZ        -12.1850   60.2160  100.3740 N.4       8 LYP4        0.0000 
     29 N         -12.8765   56.9765  100.0415 N.am      2 SEC2        0.0000 
     30 N         -13.5380   58.0030   99.2610 N.am     12 SEL2        0.0000 
     31 N         -12.8615   59.1095   99.8175 N.am      2 SEC2        0.0000 
     32 N         -12.1850   60.2160  100.3740 N.am      7 SEP2        0.0000 
     33 CA        -15.5055   60.3715   97.3075 C.3       5 GLC5        0.0000 
     34 CA        -17.2870   60.8970   98.4130 C.3      15 GLL5        0.0000 
     35 CA        -13.7240   59.8460   96.2020 C.3      10 GLP5        0.0000 
     36 O         -18.1510   60.8640   96.2320 O.2       1 ALC1        0.0000 
     37 O         -17.8660   60.0910   97.3730 O.2      11 ALL1        0.0000 
     38 O         -18.4360   61.6370   95.0910 O.2       6 ALP1        0.0000 
     39 CA        -17.6935   64.2215   97.4055 C.3       5 GLC5        0.0000 
     40 CA        -17.6330   62.3790   98.4750 C.3      15 GLL5        0.0000 
     41 CA        -17.7540   66.0640   96.3360 C.3      10 GLP5        0.0000 
     42 CA        -16.4705   63.0220   96.9525 C.3       5 GLC5        0.0000 
     43 CA        -15.3080   63.6650   95.4300 C.3      10 GLP5        0.0000 
     44 O         -19.7120   62.5475   97.0300 O.2       1 ALC1        0.0000 
     45 O         -19.0600   62.5180   98.4620 O.2      11 ALL1        0.0000 
     46 O         -20.3640   62.5770   95.5980 O.2       6 ALP1        0.0000 
     47 CA        -16.5855   63.4315  101.4285 C.3       5 GLC5        0.0000 
     48 CA        -17.0760   62.7330   99.8430 C.3      15 GLL5        0.0000 
     49 CA        -16.0950   64.1300  103.0140 C.3      10 GLP5        0.0000 
     50 N         -12.7960   61.5980  100.1775 N.am      2 SEC2        0.0000 
     51 N         -13.4070   62.9800   99.9810 N.am     12 SEL2        0.0000 
     52 CA        -12.8865   65.2680  101.7450 C.3       5 GLC5        0.0000 
     53 CA        -12.9780   65.4580   99.7840 C.3      15 GLL5        0.0000 
     54 CA        -12.7950   65.0780  103.7060 C.3      10 GLP5        0.0000 
     55 CA        -12.4400   67.5025  100.0455 C.3       5 GLC5        0.0000 
     56 CA        -11.9020   69.5470  100.3070 C.3      10 GLP5        0.0000 
     57 CA        -13.0790   66.3970   97.9505 C.3       5 GLC5        0.0000 
     58 CA        -13.1800   67.3360   96.1170 C.3      10 GLP5        0.0000 
     59 O         -10.8310   64.3545   99.6365 O.2       1 ALC1        0.0000 
     60 O         -11.7080   65.5750   99.7870 O.2      11 ALL1        0.0000 
     61 O          -9.9540   63.1340   99.4860 O.2       6 ALP1        0.0000 
     62 N         -13.3410   67.6140   98.9075 N.am      2 SEC2        0.0000 
     63 N         -13.9020   66.4480   99.6800 N.am     12 SEL2        0.0000 
     64 N         -12.7800   68.7800   98.1350 N.am      7 SEP2        0.0000 
     65 CA        -15.6875   65.3075  101.2895 C.3       5 GLC5        0.0000 
     66 CA        -15.2800   66.4850   99.5650 C.3      15 GLL5        0.0000 
     67 CA        -14.2300   66.9105   97.8410 C.3       5 GLC5        0.0000 
     68 CA        -15.2905   64.2310  101.3980 C.3       5 GLC5        0.0000 
     69 CA        -15.1790   64.3650   99.7410 C.3      15 GLL5        0.0000 
@<TRIPOS>BOND
@<TRIPOS>SUBSTRUCTURE
     1 ALC1       36 GROUP        1 X    ALC  0     ROOT ALC X 1
     2 SEC2        4 GROUP        1 X    SEC  0     **** SEC X 2
     3 LYC4       13 GROUP        1 X    LYC  0     **** LYC X 4
     4 ZIC7        1 GROUP        1 X    ZIC  0     **** ZIC X 5
     5 GLC5       33 GROUP        1 X    GLC  0     **** GLC X 6
     6 ALP1       38 GROUP        1 Y    ALP  0     ROOT ALP Y 8
     7 SEP2        6 GROUP        1 Y    SEP  0     **** SEP Y 9
     8 LYP4       15 GROUP        1 Y    LYP  0     **** LYP Y 11
     9 ZIP7        3 GROUP        1 Y    ZIP  0     **** ZIP Y 12
    10 GLP5       35 GROUP        1 Y    GLP  0     **** GLP Y 13
    11 ALL1       37 GROUP        1 Z    ALL  0     ROOT ALL Z 15
    12 SEL2        5 GROUP        1 Z    SEL  0     **** SEL Z 16
    13 LYL4       14 GROUP        1 Z    LYL  0     **** LYL Z 18
    14 ZIL7        2 GROUP        1 Z    ZIL  0     **** ZIL Z 19
    15 GLL5       34 GROUP        1 Z    GLL  0     **** GLL Z 20
@<TRIPOS>SET

