#    Name: 3k5h_ATP_4_ligand
#    Modification time : Mon Mar 24 18:39:35 2014

@<TRIPOS>MOLECULE
3k5h_ATP_4_ligand
   42    44     1     0     0
SMALL
NO_CHARGES


@<TRIPOS>ATOM
      1 PG        -16.9210   53.6190   99.3390 P.3       1 ATP400      0.0000 
      2 O1G       -17.4500   54.1920   98.0490 O.co2     1 ATP400      0.0000 
      3 O2G       -17.9850   52.6780   99.7740 O.co2     1 ATP400      0.0000 
      4 O3G       -15.5140   52.8550   99.2160 O.co2     1 ATP400      0.0000 
      5 PB        -15.4470   55.3190  100.9820 P.3       1 ATP400      0.0000 
      6 O1B       -15.8820   55.1240  102.4150 O.co2     1 ATP400      0.0000 
      7 O2B       -14.2280   54.5430  100.5790 O.co2     1 ATP400      0.0000 
      8 O3B       -16.7960   54.7770  100.3840 O.3       1 ATP400      0.0000 
      9 PA        -14.9660   57.8640   99.6740 P.3       1 ATP400      0.0000 
     10 O1A       -15.7310   57.2100   98.5540 O.co2     1 ATP400      0.0000 
     11 O2A       -13.5380   58.0030   99.2610 O.co2     1 ATP400      0.0000 
     12 O3A       -15.2240   56.8760  100.8830 O.3       1 ATP400      0.0000 
     13 O5'       -15.5610   59.3090  100.0760 O.3       1 ATP400      0.0000 
     14 C5'       -16.9990   59.2280  100.2300 C.3       1 ATP400      0.0000 
     15 C4'       -17.7110   60.5000   99.8160 C.3       1 ATP400      0.0000 
     16 O4'       -17.1820   61.5860  100.6260 O.3       1 ATP400      0.0000 
     17 C3'       -17.2870   60.8970   98.4130 C.3       1 ATP400      0.0000 
     18 O3'       -17.8660   60.0910   97.3730 O.3       1 ATP400      0.0000 
     19 C2'       -17.6330   62.3790   98.4750 C.3       1 ATP400      0.0000 
     20 O2'       -19.0600   62.5180   98.4620 O.3       1 ATP400      0.0000 
     21 C1'       -17.0760   62.7330   99.8430 C.3       1 ATP400      0.0000 
     22 N9        -15.6550   63.0750   99.8590 N.pl3     1 ATP400      0.0000 
     23 C8        -14.5530   62.2770  100.0070 C.2       1 ATP400      0.0000 
     24 N7        -13.4070   62.9800   99.9810 N.2       1 ATP400      0.0000 
     25 C5        -13.7930   64.2990   99.8230 C.ar      1 ATP400      0.0000 
     26 C6        -12.9780   65.4580   99.7840 C.ar      1 ATP400      0.0000 
     27 N6        -11.7080   65.5750   99.7870 N.pl3     1 ATP400      0.0000 
     28 N1        -13.9020   66.4480   99.6800 N.ar      1 ATP400      0.0000 
     29 C2        -15.2800   66.4850   99.5650 C.ar      1 ATP400      0.0000 
     30 N3        -16.0070   65.4200   99.6050 N.ar      1 ATP400      0.0000 
     31 C4        -15.1790   64.3650   99.7410 C.ar      1 ATP400      0.0000 
     32 H         -17.2685   59.0112  101.2831 H         1 ATP400      0.0000 
     33 H         -17.4109   58.3930   99.6286 H         1 ATP400      0.0000 
     34 H         -18.7307   60.4201   99.8824 H         1 ATP400      0.0000 
     35 H         -16.1856   60.8472   98.4288 H         1 ATP400      0.0000 
     36 H         -17.1235   62.8835   97.7415 H         1 ATP400      0.0000 
     37 H         -17.6591   63.5295  100.2621 H         1 ATP400      0.0000 
     38 H         -14.6069   61.2969  100.1194 H         1 ATP400      0.0000 
     39 H         -15.7186   67.4460   99.4403 H         1 ATP400      0.0000 
     40 H         -17.5933   60.5350   96.5195 H         1 ATP400      0.0000 
     41 H         -19.3135   62.4930   97.4950 H         1 ATP400      0.0000 
     42 H         -11.3617   64.6370   99.7749 H         1 ATP400      0.0000 
@<TRIPOS>BOND
     1    2    1 ar   
     2    3    1 ar   
     3    4    1 ar   
     4    8    1 1    
     5    6    5 ar   
     6    7    5 ar   
     7    8    5 1    
     8   12    5 1    
     9   10    9 ar   
    10   11    9 ar   
    11   12    9 1    
    12   13    9 1    
    13   14   13 1    
    14   15   14 1    
    15   32   14 1    
    16   33   14 1    
    17   16   15 1    
    18   17   15 1    
    19   34   15 1    
    20   21   16 1    
    21   18   17 1    
    22   19   17 1    
    23   35   17 1    
    24   40   18 1    
    25   20   19 1    
    26   21   19 1    
    27   36   19 1    
    28   41   20 1    
    29   22   21 1    
    30   37   21 1    
    31   23   22 1    
    32   31   22 1    
    33   24   23 2    
    34   38   23 1    
    35   25   24 1    
    36   26   25 ar   
    37   31   25 ar   
    38   27   26 1    
    39   28   26 ar   
    40   42   27 1    
    41   29   28 ar   
    42   30   29 ar   
    43   39   29 1    
    44   31   30 ar   
@<TRIPOS>SUBSTRUCTURE
     1 ATP400      1 GROUP   
@<TRIPOS>SET

