#    Name: 2vx0_7X7_1_INTS_M
#    Modification time : Tue Mar 25 03:13:15 2014

@<TRIPOS>MOLECULE
2vx0_7X7_1_INTS_M
   71     0     9     0     0
SMALL
NO_CHARGES


@<TRIPOS>ATOM
      1 CA          9.5675    1.8170    8.4860 C.3       3 GLC5        0.0000 
      2 CA          8.7820    3.2420    9.5940 C.3       9 GLL5        0.0000 
      3 CA         10.3530    0.3920    7.3780 C.3       6 GLP5        0.0000 
      4 CA          8.1315   -0.8365   13.4485 C.3       3 GLC5        0.0000 
      5 CA          7.9560    1.1520   12.9270 C.3       9 GLL5        0.0000 
      6 CA          8.3070   -2.8250   13.9700 C.3       6 GLP5        0.0000 
      7 CA          6.7820    2.5260   14.0780 C.3       3 GLC5        0.0000 
      8 CA          8.5420    1.9740   13.8680 C.3       9 GLL5        0.0000 
      9 CA          5.0220    3.0780   14.2880 C.3       6 GLP5        0.0000 
     10 CA         10.9890    3.9265   15.6325 C.3       3 GLC5        0.0000 
     11 CA          9.3990    2.8980   15.6520 C.3       9 GLL5        0.0000 
     12 CA         12.5790    4.9550   15.6130 C.3       6 GLP5        0.0000 
     13 CA          9.4885    3.9430   17.3750 C.3       3 GLC5        0.0000 
     14 CA          9.5780    4.9880   19.0980 C.3       6 GLP5        0.0000 
     15 CA          7.5200    3.5330   15.4290 C.3       3 GLC5        0.0000 
     16 CA          5.6410    4.1680   15.2060 C.3       6 GLP5        0.0000 
     17 CA         10.2525    1.2495   15.3560 C.3       3 GLC5        0.0000 
     18 CA         11.1060   -0.3990   15.0600 C.3       6 GLP5        0.0000 
     19 CA         10.8680    4.0495   14.5680 C.3       3 GLC5        0.0000 
     20 CA          9.1570    3.1440   13.5230 C.3       9 GLL5        0.0000 
     21 CA          7.3990    3.6560   14.3645 C.3       3 GLC5        0.0000 
     22 CA          7.1690    3.5065   12.5180 C.3       3 GLC5        0.0000 
     23 CA          9.2410    3.5700   12.2190 C.3       9 GLL5        0.0000 
     24 CA          5.0970    3.4430   12.8170 C.3       6 GLP5        0.0000 
     25 CA         10.6655    1.9175   11.8770 C.3       3 GLC5        0.0000 
     26 CA         12.0900    0.2650   11.5350 C.3       6 GLP5        0.0000 
     27 CA         10.1200    6.4355   13.2220 C.3       3 GLC5        0.0000 
     28 CA         11.2780    4.9530   12.0470 C.3       9 GLL5        0.0000 
     29 CA          8.9620    7.9180   14.3970 C.3       6 GLP5        0.0000 
     30 CA         15.1430    4.3530   13.6755 C.3       3 GLC5        0.0000 
     31 CA         13.3960    4.1330   12.5900 C.3       9 GLL5        0.0000 
     32 CA         16.8900    4.5730   14.7610 C.3       6 GLP5        0.0000 
     33 CA         14.9000    3.6850   11.3930 C.3       3 GLC5        0.0000 
     34 CA         16.4040    3.2370   10.1960 C.3       6 GLP5        0.0000 
     35 N          15.3935    5.2305   12.3215 N.am      2 SEC2        0.0000 
     36 N          13.9280    5.3100   12.2620 N.am      8 SEL2        0.0000 
     37 N          16.8590    5.1510   12.3810 N.am      5 SEP2        0.0000 
     38 CA         12.8425    5.6160   13.7315 C.3       3 GLC5        0.0000 
     39 CA         13.1060    6.2770   11.8500 C.3       9 GLL5        0.0000 
     40 CA         14.8255    5.5215   10.9160 C.3       3 GLC5        0.0000 
     41 CA         16.5450    4.7660    9.9820 C.3       6 GLP5        0.0000 
     42 CA         12.8140    4.7305   10.4050 C.3       3 GLC5        0.0000 
     43 CA         12.5220    3.1840    8.9600 C.3       6 GLP5        0.0000 
     44 O          15.1425    7.5505   11.1235 O.2       1 ALC1        0.0000 
     45 O          13.7660    7.4890   11.5210 O.2       7 ALL1        0.0000 
     46 O          16.5190    7.6120   10.7260 O.2       4 ALP1        0.0000 
     47 CA         10.3775    8.4095   12.8530 C.3       3 GLC5        0.0000 
     48 CA         11.7930    8.9010   11.3090 C.3       9 GLL5        0.0000 
     49 CA         16.9170   10.9440    8.9305 C.3       3 GLC5        0.0000 
     50 CA         15.6360   11.9280   10.2130 C.3       9 GLL5        0.0000 
     51 CA         18.1980    9.9600    7.6480 C.3       6 GLP5        0.0000 
     52 CA         15.0975   10.3940    8.9555 C.3       3 GLC5        0.0000 
     53 CA         14.5590    8.8600    7.6980 C.3       6 GLP5        0.0000 
     54 CA         10.6275    3.0892    9.6918 C.3       3 GLC5        0.0000 
     55 CA          6.6286    2.5471   12.4961 C.3       3 GLC5        0.0000 
     56 CA          8.6840    2.7470   11.2530 C.3       9 GLL5        0.0000 
     57 CA         10.1251    0.9581   11.8551 C.3       3 GLC5        0.0000 
     58 CA          8.0450    1.5540   11.5940 C.3       9 GLL5        0.0000 
     59 CA          9.9045    0.9772   14.2601 C.3       3 GLC5        0.0000 
     60 CA         12.4100    2.1385   12.0377 C.3       3 GLC5        0.0000 
     61 CA         12.0640    3.8910   12.4910 C.3       9 GLL5        0.0000 
     62 CA         12.5563    4.6163   14.0212 C.3       3 GLC5        0.0000 
     63 CA         12.5277    3.7308   10.6947 C.3       3 GLC5        0.0000 
     64 CA         12.4630    9.6035   12.9330 C.3       3 GLC5        0.0000 
     65 CA         13.1550    8.7250   11.2730 C.3       9 GLL5        0.0000 
     66 CA         12.4520   10.3940   14.5750 C.3       6 GLP5        0.0000 
     67 CA         12.0525   10.5393   12.7550 C.3       3 GLC5        0.0000 
     68 CA         12.0620   11.2180   10.7960 C.3       9 GLL5        0.0000 
     69 CA         13.0727   10.4127   12.7245 C.3       3 GLC5        0.0000 
     70 CA         13.4290   11.0540   10.7500 C.3       9 GLL5        0.0000 
     71 CA         14.0259    9.5102    9.3204 C.3       3 GLC5        0.0000 
@<TRIPOS>BOND
@<TRIPOS>SUBSTRUCTURE
     1 ALC1       44 GROUP        1 X    ALC  0     ROOT ALC X 1
     2 SEC2       35 GROUP        1 X    SEC  0     **** SEC X 2
     3 GLC5        1 GROUP        1 X    GLC  0     **** GLC X 6
     4 ALP1       46 GROUP        1 Y    ALP  0     ROOT ALP Y 8
     5 SEP2       37 GROUP        1 Y    SEP  0     **** SEP Y 9
     6 GLP5        3 GROUP        1 Y    GLP  0     **** GLP Y 13
     7 ALL1       45 GROUP        1 Z    ALL  0     ROOT ALL Z 15
     8 SEL2       36 GROUP        1 Z    SEL  0     **** SEL Z 16
     9 GLL5        2 GROUP        1 Z    GLL  0     **** GLL Z 20
@<TRIPOS>SET

