#    Name: 2vx0_7X7_1_ligand
#    Modification time : Tue Mar 25 03:13:15 2014

@<TRIPOS>MOLECULE
2vx0_7X7_1_ligand
   50    54     1     0     0
SMALL
NO_CHARGES


@<TRIPOS>ATOM
      1 CL1         8.7820    3.2420    9.5940 Cl        1 7X71889     0.0000 
      2 C1          8.6840    2.7470   11.2530 C.ar      1 7X71889     0.0000 
      3 C2          8.0450    1.5540   11.5940 C.ar      1 7X71889     0.0000 
      4 C3          7.9560    1.1520   12.9270 C.ar      1 7X71889     0.0000 
      5 C4          8.5420    1.9740   13.8680 C.ar      1 7X71889     0.0000 
      6 O1          8.5970    1.7850   15.2230 O.3       1 7X71889     0.0000 
      7 C5          9.3990    2.8980   15.6520 C.3       1 7X71889     0.0000 
      8 O2          9.6930    3.8150   14.5900 O.3       1 7X71889     0.0000 
      9 C6          9.1570    3.1440   13.5230 C.ar      1 7X71889     0.0000 
     10 C7          9.2410    3.5700   12.2190 C.ar      1 7X71889     0.0000 
     11 N1          9.8880    4.7770   11.9230 N.pl3     1 7X71889     0.0000 
     12 C8         11.2780    4.9530   12.0470 C.ar      1 7X71889     0.0000 
     13 C9         12.0640    3.8910   12.4910 C.ar      1 7X71889     0.0000 
     14 C10        13.3960    4.1330   12.5900 C.ar      1 7X71889     0.0000 
     15 N2         13.9280    5.3100   12.2620 N.ar      1 7X71889     0.0000 
     16 C11        13.1060    6.2770   11.8500 C.ar      1 7X71889     0.0000 
     17 N3         13.7660    7.4890   11.5210 N.pl3     1 7X71889     0.0000 
     18 C12        13.1550    8.7250   11.2730 C.ar      1 7X71889     0.0000 
     19 C13        11.7930    8.9010   11.3090 C.ar      1 7X71889     0.0000 
     20 C14        11.2440   10.1510   11.0740 C.ar      1 7X71889     0.0000 
     21 C15        12.0620   11.2180   10.7960 C.ar      1 7X71889     0.0000 
     22 C16        13.4290   11.0540   10.7500 C.ar      1 7X71889     0.0000 
     23 C17        13.9580    9.8090   10.9980 C.ar      1 7X71889     0.0000 
     24 N4         14.2400   12.1770   10.4660 N.3       1 7X71889     0.0000 
     25 C18        15.6360   11.9280   10.2130 C.3       1 7X71889     0.0000 
     26 C19        16.3550   13.2800   10.1270 C.3       1 7X71889     0.0000 
     27 O3         15.7430   14.1220    9.1440 O.3       1 7X71889     0.0000 
     28 C20        14.3950   14.3890    9.5440 C.3       1 7X71889     0.0000 
     29 C21        13.6260   13.0680    9.4760 C.3       1 7X71889     0.0000 
     30 N5         11.7730    6.1550   11.7350 N.ar      1 7X71889     0.0000 
     31 H           7.6352    0.9647   10.8541 H         1 7X71889     0.0000 
     32 H           7.4839    0.2992   13.1836 H         1 7X71889     0.0000 
     33 H          10.3510    2.5233   16.1027 H         1 7X71889     0.0000 
     34 H           8.8807    3.4360   16.4837 H         1 7X71889     0.0000 
     35 H           9.3127    5.5860   11.5944 H         1 7X71889     0.0000 
     36 H          11.6504    3.0021   12.7207 H         1 7X71889     0.0000 
     37 H          14.0226    3.3559   12.9397 H         1 7X71889     0.0000 
     38 H          14.8306    7.4482   11.4580 H         1 7X71889     0.0000 
     39 H          11.1709    8.1006   11.5118 H         1 7X71889     0.0000 
     40 H          10.2201   10.2743   11.1091 H         1 7X71889     0.0000 
     41 H          11.6510   12.1524   10.6196 H         1 7X71889     0.0000 
     42 H          14.9945    9.6820   10.9774 H         1 7X71889     0.0000 
     43 H          15.7880   11.4068    9.2707 H         1 7X71889     0.0000 
     44 H          16.0948   11.3546   11.0151 H         1 7X71889     0.0000 
     45 H          17.4102   13.0801    9.8898 H         1 7X71889     0.0000 
     46 H          16.3248   13.7361   11.1274 H         1 7X71889     0.0000 
     47 H          13.9062   15.0958    8.8797 H         1 7X71889     0.0000 
     48 H          14.3390   14.7571   10.5644 H         1 7X71889     0.0000 
     49 H          12.5919   13.2594    9.7122 H         1 7X71889     0.0000 
     50 H          13.7189   12.6667    8.4799 H         1 7X71889     0.0000 
@<TRIPOS>BOND
     1    2    1 1    
     2    3    2 ar   
     3   10    2 ar   
     4    4    3 ar   
     5   31    3 1    
     6    5    4 ar   
     7   32    4 1    
     8    6    5 1    
     9    9    5 ar   
    10    7    6 1    
    11    8    7 1    
    12   33    7 1    
    13   34    7 1    
    14    9    8 1    
    15   10    9 ar   
    16   11   10 1    
    17   12   11 1    
    18   35   11 1    
    19   13   12 ar   
    20   30   12 ar   
    21   14   13 ar   
    22   36   13 1    
    23   15   14 ar   
    24   37   14 1    
    25   16   15 ar   
    26   17   16 1    
    27   30   16 ar   
    28   18   17 1    
    29   38   17 1    
    30   19   18 ar   
    31   23   18 ar   
    32   20   19 ar   
    33   39   19 1    
    34   21   20 ar   
    35   40   20 1    
    36   22   21 ar   
    37   41   21 1    
    38   23   22 ar   
    39   24   22 1    
    40   42   23 1    
    41   25   24 1    
    42   29   24 1    
    43   26   25 1    
    44   43   25 1    
    45   44   25 1    
    46   27   26 1    
    47   45   26 1    
    48   46   26 1    
    49   28   27 1    
    50   29   28 1    
    51   47   28 1    
    52   48   28 1    
    53   49   29 1    
    54   50   29 1    
@<TRIPOS>SUBSTRUCTURE
     1 7X71889     1 GROUP   
@<TRIPOS>SET

