#    Name: 2ieb_ZID_1_INTS_M
#    Modification time : Tue Mar 25 17:43:28 2014

@<TRIPOS>MOLECULE
2ieb_ZID_1_INTS_M
  105     0     9     0     0
SMALL
NO_CHARGES


@<TRIPOS>ATOM
      1 N          -1.5545  -34.6005   10.5855 N.am      2 SEC2        0.0000 
      2 N          -0.3760  -34.0630   10.4390 N.am      8 SEL2        0.0000 
      3 N          -2.7330  -35.1380   10.7320 N.am      5 SEP2        0.0000 
      4 CA          0.9570  -31.6785   15.8985 C.3       3 GLC5        0.0000 
      5 CA         -0.0620  -31.5130   14.1170 C.3       9 GLL5        0.0000 
      6 CA          1.9760  -31.8440   17.6800 C.3       6 GLP5        0.0000 
      7 N           1.9185  -30.5980   15.6020 N.am      2 SEC2        0.0000 
      8 N           0.4050  -30.5360   15.0310 N.am      8 SEL2        0.0000 
      9 N           3.4320  -30.6600   16.1730 N.am      5 SEP2        0.0000 
     10 CA         -1.5540  -31.6640   15.8065 C.3       3 GLC5        0.0000 
     11 CA         -0.6970  -29.6720   15.2490 C.3       9 GLL5        0.0000 
     12 CA         -2.4110  -33.6560   16.3640 C.3       6 GLP5        0.0000 
     13 CA          0.6395  -30.7580   16.4645 C.3       3 GLC5        0.0000 
     14 CA         -2.5055  -25.2930   19.4670 C.3       3 GLC5        0.0000 
     15 CA         -0.8540  -25.8410   18.1180 C.3       9 GLL5        0.0000 
     16 CA         -4.1570  -24.7450   20.8160 C.3       6 GLP5        0.0000 
     17 CA          0.1325  -26.1645   19.9440 C.3       3 GLC5        0.0000 
     18 CA          1.1190  -26.4880   21.7700 C.3       6 GLP5        0.0000 
     19 O          -1.3170  -23.7680   19.2880 O.2       1 ALC1        0.0000 
     20 O          -0.4890  -24.5450   18.3480 O.2       7 ALL1        0.0000 
     21 O          -2.1450  -22.9910   20.2280 O.2       4 ALP1        0.0000 
     22 N          -1.8595  -25.9615   20.3940 N.am      2 SEC2        0.0000 
     23 N          -1.6210  -26.4750   19.0230 N.am      8 SEL2        0.0000 
     24 N          -2.0980  -25.4480   21.7650 N.am      5 SEP2        0.0000 
     25 CA         -3.2375  -27.4080   17.6960 C.3       3 GLC5        0.0000 
     26 CA         -2.0340  -27.7370   18.8640 C.3       9 GLL5        0.0000 
     27 CA         -4.4410  -27.0790   16.5280 C.3       6 GLP5        0.0000 
     28 CA         -3.0955  -26.2410   19.8400 C.3       3 GLC5        0.0000 
     29 CA         -1.1430  -27.3055   20.5240 C.3       3 GLC5        0.0000 
     30 CA         -0.2520  -26.8740   22.1840 C.3       6 GLP5        0.0000 
     31 CA         -1.3505  -29.2925   19.6605 C.3       3 GLC5        0.0000 
     32 CA         -0.6670  -30.8480   20.4570 C.3       6 GLP5        0.0000 
     33 N           2.9420  -35.9540    9.2870 N.am      2 SEC2        0.0000 
     34 N           3.8080  -35.3990   10.5380 N.am      8 SEL2        0.0000 
     35 N           2.0760  -36.5090    8.0360 N.am      5 SEP2        0.0000 
     36 N           0.8085  -37.3765   11.3590 N.am      2 SEC2        0.0000 
     37 N           1.5590  -36.1920   11.4800 N.am      8 SEL2        0.0000 
     38 N           0.0580  -38.5610   11.2380 N.am      5 SEP2        0.0000 
     39 N           1.8175  -36.3505    9.7580 N.am      2 SEC2        0.0000 
     40 CA          3.4435  -37.0945   12.9750 C.3       3 GLC5        0.0000 
     41 CA          2.6630  -35.3560   14.0800 C.3       9 GLL5        0.0000 
     42 CA          4.2240  -38.8330   11.8700 C.3       6 GLP5        0.0000 
     43 CA          1.5860  -35.9340   15.6455 C.3       3 GLC5        0.0000 
     44 CA          0.5090  -36.5120   17.2110 C.3       6 GLP5        0.0000 
     45 CA          2.7045  -35.5450   16.4315 C.3       3 GLC5        0.0000 
     46 CA          3.9140  -35.5130   14.9390 C.3       9 GLL5        0.0000 
     47 CA          1.4950  -35.5770   17.9240 C.3       6 GLP5        0.0000 
     48 CA          4.7355  -32.1735   15.3940 C.3       3 GLC5        0.0000 
     49 CA          4.7610  -34.2270   15.0150 C.3       9 GLL5        0.0000 
     50 CA          4.7100  -30.1200   15.7730 C.3       6 GLP5        0.0000 
     51 N           6.7705  -34.0350   16.7130 N.am      2 SEC2        0.0000 
     52 N           5.3790  -34.1230   16.3040 N.am      8 SEL2        0.0000 
     53 N           8.1620  -33.9470   17.1220 N.am      5 SEP2        0.0000 
     54 CA          7.6420  -34.2035   15.1875 C.3       3 GLC5        0.0000 
     55 CA          5.8430  -34.6030   14.0480 C.3       9 GLL5        0.0000 
     56 CA          9.4410  -33.8040   16.3270 C.3       6 GLP5        0.0000 
     57 N           7.5700  -33.8485   15.6635 N.am      2 SEC2        0.0000 
     58 N           6.9780  -33.7500   14.2050 N.am      8 SEL2        0.0000 
     59 CA          5.1125  -37.4765   13.1070 C.3       3 GLC5        0.0000 
     60 CA          6.0010  -36.1200   14.3440 C.3       9 GLL5        0.0000 
     61 O           6.8045  -37.6165    7.4550 O.2       1 ALC1        0.0000 
     62 O           7.8930  -37.3600    8.6900 O.2       7 ALL1        0.0000 
     63 O           5.7160  -37.8730    6.2200 O.2       4 ALP1        0.0000 
     64 CA          8.8430  -37.2655   15.8295 C.3       3 GLC5        0.0000 
     65 CA          8.0210  -37.0560   13.7910 C.3       9 GLL5        0.0000 
     66 CA          9.6650  -37.4750   17.8680 C.3       6 GLP5        0.0000 
     67 CA          8.7310  -35.4300   15.0590 C.3       3 GLC5        0.0000 
     68 CA         15.0420  -37.3390   10.2195 C.3       3 GLC5        0.0000 
     69 CA         13.2170  -38.4750   10.3660 C.3       9 GLL5        0.0000 
     70 CA         16.8670  -36.2030   10.0730 C.3       6 GLP5        0.0000 
     71 CA         12.5765  -39.8010    9.0435 C.3       3 GLC5        0.0000 
     72 CA         11.9360  -41.1270    7.7210 C.3       6 GLP5        0.0000 
     73 CA         14.0810  -38.3110    8.3500 C.3       3 GLC5        0.0000 
     74 CA         14.9450  -38.1470    6.3340 C.3       6 GLP5        0.0000 
     75 CA         14.9230  -36.1675   10.1095 C.3       3 GLC5        0.0000 
     76 CA         12.9790  -36.1320   10.1460 C.3       9 GLL5        0.0000 
     77 CA         -1.5315  -32.4340   15.0435 C.3       3 GLC5        0.0000 
     78 CA         -2.6448  -30.7540   12.2755 C.3       3 GLC5        0.0000 
     79 CA         -1.2420  -30.9110   13.3290 C.3       9 GLL5        0.0000 
     80 CA         -3.9620  -31.2850   10.9420 C.3       6 GLP5        0.0000 
     81 CA          0.5345  -28.3563   17.8510 C.3       3 GLC5        0.0000 
     82 CA         -0.9000  -27.8440   16.8670 C.3       9 GLL5        0.0000 
     83 CA          1.7460  -29.5150   18.7690 C.3       6 GLP5        0.0000 
     84 CA         -2.6090  -27.0495   16.8704 C.3       3 GLC5        0.0000 
     85 CA         -0.4540  -26.5510   16.9990 C.3       9 GLL5        0.0000 
     86 CA          1.2150  -26.8765   17.5359 C.3       3 GLC5        0.0000 
     87 CA          3.2070  -26.7330   17.8590 C.3       6 GLP5        0.0000 
     88 CA          5.5915  -37.7785   11.7067 C.3       3 GLC5        0.0000 
     89 CA          6.5220  -36.5150   12.0210 C.3       9 GLL5        0.0000 
     90 CA          8.4150  -39.4988   12.7220 C.3       3 GLC5        0.0000 
     91 CA          8.9370  -37.4930   12.9010 C.3       9 GLL5        0.0000 
     92 CA          8.0640  -41.5220   13.2070 C.3       6 GLP5        0.0000 
     93 CA         10.2692  -37.3234   13.3915 C.3       3 GLC5        0.0000 
     94 CA          8.5950  -37.4580   11.5730 C.3       9 GLL5        0.0000 
     95 CA         12.1450  -37.3810   13.7690 C.3       6 GLP5        0.0000 
     96 CA         12.3450  -37.9770   12.1050 C.3       3 GLC5        0.0000 
     97 CA         11.8730  -38.6710   10.5160 C.3       9 GLL5        0.0000 
     98 CA         11.8545  -40.4245   10.3550 C.3       3 GLC5        0.0000 
     99 CA         11.1640  -42.2760   10.2690 C.3       6 GLP5        0.0000 
    100 CA         10.6827  -38.9657    9.0938 C.3       3 GLC5        0.0000 
    101 CA          9.9000  -39.8140    7.6820 C.3       6 GLP5        0.0000 
    102 CA         12.1496  -36.9559   12.0174 C.3       3 GLC5        0.0000 
    103 CA         11.0580  -37.5640   10.4950 C.3       9 GLL5        0.0000 
    104 CA          5.0949  -36.3614   15.9363 C.3       3 GLC5        0.0000 
    105 CA          5.0600  -37.6070   17.2860 C.3       6 GLP5        0.0000 
@<TRIPOS>BOND
@<TRIPOS>SUBSTRUCTURE
     1 ALC1       19 GROUP        1 X    ALC  0     ROOT ALC X 1
     2 SEC2        1 GROUP        1 X    SEC  0     **** SEC X 2
     3 GLC5        4 GROUP        1 X    GLC  0     **** GLC X 6
     4 ALP1       21 GROUP        1 Y    ALP  0     ROOT ALP Y 8
     5 SEP2        3 GROUP        1 Y    SEP  0     **** SEP Y 9
     6 GLP5        6 GROUP        1 Y    GLP  0     **** GLP Y 13
     7 ALL1       20 GROUP        1 Z    ALL  0     ROOT ALL Z 15
     8 SEL2        2 GROUP        1 Z    SEL  0     **** SEL Z 16
     9 GLL5        5 GROUP        1 Z    GLL  0     **** GLL Z 20
@<TRIPOS>SET

