#    Name: 2ieb_ZID_1_ligand
#    Modification time : Tue Mar 25 17:43:28 2014

@<TRIPOS>MOLECULE
2ieb_ZID_1_ligand
   81    86     1     0     0
SMALL
NO_CHARGES


@<TRIPOS>ATOM
      1 PA          0.6270  -33.0720   10.8680 P.3       1 ZID300      0.0000 
      2 O1A         0.7920  -31.7360   10.2070 O.co2     1 ZID300      0.0000 
      3 O2A        -0.3760  -34.0630   10.4390 O.co2     1 ZID300      0.0000 
      4 O5B         0.4490  -32.9310   12.4450 O.3       1 ZID300      0.0000 
      5 C5B         1.0500  -31.8800   13.1630 C.3       1 ZID300      0.0000 
      6 C4B        -0.0620  -31.5130   14.1170 C.3       1 ZID300      0.0000 
      7 O4B         0.4050  -30.5360   15.0310 O.3       1 ZID300      0.0000 
      8 C3B        -1.2420  -30.9110   13.3290 C.3       1 ZID300      0.0000 
      9 O3B        -2.3440  -31.6650   13.7220 O.3       1 ZID300      0.0000 
     10 C2B        -1.4130  -29.5350   13.8890 C.3       1 ZID300      0.0000 
     11 O2B        -2.8050  -29.2080   14.0320 O.3       1 ZID300      0.0000 
     12 C1B        -0.6970  -29.6720   15.2490 C.3       1 ZID300      0.0000 
     13 N9A        -0.3870  -28.3140   15.7480 N.pl3     1 ZID300      0.0000 
     14 C8A         0.3430  -27.3610   15.1420 C.2       1 ZID300      0.0000 
     15 N7A         0.3170  -26.2680   15.9100 N.2       1 ZID300      0.0000 
     16 C5A        -0.4540  -26.5510   16.9990 C.ar      1 ZID300      0.0000 
     17 C6A        -0.8540  -25.8410   18.1180 C.ar      1 ZID300      0.0000 
     18 N6A        -0.4890  -24.5450   18.3480 N.pl3     1 ZID300      0.0000 
     19 N1A        -1.6210  -26.4750   19.0230 N.ar      1 ZID300      0.0000 
     20 C2A        -2.0340  -27.7370   18.8640 C.ar      1 ZID300      0.0000 
     21 N3A        -1.6790  -28.4390   17.7920 N.ar      1 ZID300      0.0000 
     22 C4A        -0.9000  -27.8440   16.8670 C.ar      1 ZID300      0.0000 
     23 O3          2.1180  -33.7170   10.8550 O.3       1 ZID300      0.0000 
     24 PN          2.6320  -35.1520   11.4160 P.3       1 ZID300      0.0000 
     25 O1N         3.8080  -35.3990   10.5380 O.co2     1 ZID300      0.0000 
     26 O2N         1.5590  -36.1920   11.4800 O.co2     1 ZID300      0.0000 
     27 O5D         3.1140  -34.7610   12.8710 O.3       1 ZID300      0.0000 
     28 C5D         2.6630  -35.3560   14.0800 C.3       1 ZID300      0.0000 
     29 C4D         3.9140  -35.5130   14.9390 C.3       1 ZID300      0.0000 
     30 O4D         4.6810  -36.5520   14.3000 O.3       1 ZID300      0.0000 
     31 C3D         4.7610  -34.2270   15.0150 C.3       1 ZID300      0.0000 
     32 O3D         5.3790  -34.1230   16.3040 O.3       1 ZID300      0.0000 
     33 C2D         5.8430  -34.6030   14.0480 C.3       1 ZID300      0.0000 
     34 O2D         6.9780  -33.7500   14.2050 O.3       1 ZID300      0.0000 
     35 C1D         6.0010  -36.1200   14.3440 C.3       1 ZID300      0.0000 
     36 N1N         6.8700  -36.6160   13.3170 N.pl3     1 ZID300      0.0000 
     37 C2N         6.5220  -36.5150   12.0210 C.ar      1 ZID300      0.0000 
     38 C3N         7.3960  -36.9330   11.0660 C.ar      1 ZID300      0.0000 
     39 C7N         7.0230  -36.9530    9.5960 C.2       1 ZID300      0.0000 
     40 O7N         5.8580  -36.7380    9.2250 O.2       1 ZID300      0.0000 
     41 N7N         7.8930  -37.3600    8.6900 N.am      1 ZID300      0.0000 
     42 C4N         8.5950  -37.4580   11.5730 C.ar      1 ZID300      0.0000 
     43 C5N         8.9370  -37.4930   12.9010 C.ar      1 ZID300      0.0000 
     44 C6N         8.0210  -37.0560   13.7910 C.ar      1 ZID300      0.0000 
     45 C7Z         9.5690  -37.6410   10.5490 C.2       1 ZID300      0.0000 
     46 O7Z         9.6450  -36.1010   10.6160 O.2       1 ZID300      0.0000 
     47 N1Z        13.7410  -37.2370   10.2190 N.ar      1 ZID300      0.0000 
     48 C2Z        13.2170  -38.4750   10.3660 C.ar      1 ZID300      0.0000 
     49 C3Z        11.8730  -38.6710   10.5160 C.ar      1 ZID300      0.0000 
     50 C4Z        11.0580  -37.5640   10.4950 C.ar      1 ZID300      0.0000 
     51 C5Z        11.6010  -36.2950   10.2760 C.ar      1 ZID300      0.0000 
     52 C6Z        12.9790  -36.1320   10.1460 C.ar      1 ZID300      0.0000 
     53 H           1.2669  -31.0329   12.5527 H         1 ZID300      0.0000 
     54 H           1.8943  -32.1973   13.7319 H         1 ZID300      0.0000 
     55 H          -0.4089  -32.3931   14.6120 H         1 ZID300      0.0000 
     56 H          -1.0296  -30.9035   12.3372 H         1 ZID300      0.0000 
     57 H          -0.8632  -28.8539   13.3005 H         1 ZID300      0.0000 
     58 H          -1.4355  -30.1418   15.9096 H         1 ZID300      0.0000 
     59 H           0.8044  -27.4553   14.2975 H         1 ZID300      0.0000 
     60 H          -0.8113  -24.1426   19.2048 H         1 ZID300      0.0000 
     61 H           0.0684  -24.1125   17.6393 H         1 ZID300      0.0000 
     62 H          -2.6471  -28.1766   19.5979 H         1 ZID300      0.0000 
     63 H           2.2393  -36.3359   13.9227 H         1 ZID300      0.0000 
     64 H           1.9672  -34.7267   14.6131 H         1 ZID300      0.0000 
     65 H           3.6250  -35.8094   15.9214 H         1 ZID300      0.0000 
     66 H           4.2363  -33.4351   14.6869 H         1 ZID300      0.0000 
     67 H           5.3915  -34.5324   13.0549 H         1 ZID300      0.0000 
     68 H           6.4308  -36.1726   15.3112 H         1 ZID300      0.0000 
     69 H           5.6031  -36.1254   11.7474 H         1 ZID300      0.0000 
     70 H           8.7972  -37.6160    9.0320 H         1 ZID300      0.0000 
     71 H           7.5687  -37.3752    7.7442 H         1 ZID300      0.0000 
     72 H           9.8518  -37.8382   13.1943 H         1 ZID300      0.0000 
     73 H           8.2263  -37.0711   14.8008 H         1 ZID300      0.0000 
     74 H          13.8533  -39.3100   10.3657 H         1 ZID300      0.0000 
     75 H          11.4838  -39.6052   10.6396 H         1 ZID300      0.0000 
     76 H          10.9789  -35.4781   10.2107 H         1 ZID300      0.0000 
     77 H          13.3697  -35.2036   10.0022 H         1 ZID300      0.0000 
     78 H          -3.0747  -30.9982   13.8686 H         1 ZID300      0.0000 
     79 H          -2.9701  -29.2056   15.0183 H         1 ZID300      0.0000 
     80 H           5.6077  -35.0628   16.5578 H         1 ZID300      0.0000 
     81 H           6.7606  -32.9300   13.6756 H         1 ZID300      0.0000 
@<TRIPOS>BOND
     1    2    1 ar   
     2    3    1 ar   
     3    4    1 1    
     4   23    1 1    
     5    5    4 1    
     6    6    5 1    
     7   53    5 1    
     8   54    5 1    
     9    7    6 1    
    10    8    6 1    
    11   55    6 1    
    12   12    7 1    
    13    9    8 1    
    14   10    8 1    
    15   56    8 1    
    16   78    9 1    
    17   11   10 1    
    18   12   10 1    
    19   57   10 1    
    20   79   11 1    
    21   13   12 1    
    22   58   12 1    
    23   14   13 1    
    24   22   13 1    
    25   15   14 2    
    26   59   14 1    
    27   16   15 1    
    28   17   16 ar   
    29   22   16 ar   
    30   18   17 1    
    31   19   17 ar   
    32   60   18 1    
    33   61   18 1    
    34   20   19 ar   
    35   21   20 ar   
    36   62   20 1    
    37   22   21 ar   
    38   24   23 1    
    39   25   24 ar   
    40   26   24 ar   
    41   27   24 1    
    42   28   27 1    
    43   29   28 1    
    44   63   28 1    
    45   64   28 1    
    46   30   29 1    
    47   31   29 1    
    48   65   29 1    
    49   35   30 1    
    50   32   31 1    
    51   33   31 1    
    52   66   31 1    
    53   80   32 1    
    54   34   33 1    
    55   35   33 1    
    56   67   33 1    
    57   81   34 1    
    58   36   35 1    
    59   68   35 1    
    60   37   36 ar   
    61   44   36 ar   
    62   38   37 ar   
    63   69   37 1    
    64   39   38 1    
    65   42   38 ar   
    66   40   39 2    
    67   41   39 am   
    68   70   41 1    
    69   71   41 1    
    70   43   42 ar   
    71   45   42 1    
    72   44   43 ar   
    73   72   43 1    
    74   73   44 1    
    75   46   45 2    
    76   50   45 1    
    77   48   47 ar   
    78   52   47 ar   
    79   49   48 ar   
    80   74   48 1    
    81   50   49 ar   
    82   75   49 1    
    83   51   50 ar   
    84   52   51 ar   
    85   76   51 1    
    86   77   52 1    
@<TRIPOS>SUBSTRUCTURE
     1 ZID300      1 GROUP   
@<TRIPOS>SET

