#    Name: 3mw1_MIH_1_INTS_M
#    Modification time : Mon Mar 24 23:54:51 2014

@<TRIPOS>MOLECULE
3mw1_MIH_1_INTS_M
   70     0     6     0     0
SMALL
NO_CHARGES


@<TRIPOS>ATOM
      1 CA         15.4755   14.0360   31.6840 C.3       2 GLC5        0.0000 
      2 CA         14.6320   12.2730   30.7310 C.3       6 GLL5        0.0000 
      3 CA         16.3190   15.7990   32.6370 C.3       4 GLP5        0.0000 
      4 CA         15.3530   11.7365   28.8800 C.3       2 GLC5        0.0000 
      5 CA         16.0740   11.2000   27.0290 C.3       4 GLP5        0.0000 
      6 CA         12.6840   11.3850   30.2425 C.3       2 GLC5        0.0000 
      7 CA         10.7360   10.4970   29.7540 C.3       4 GLP5        0.0000 
      8 CA         19.4250   11.0075   34.3500 C.3       2 GLC5        0.0000 
      9 CA         18.4770   10.8320   32.8670 C.3       6 GLL5        0.0000 
     10 CA         20.3730   11.1830   35.8330 C.3       4 GLP5        0.0000 
     11 CA         17.2335    9.9220   34.4980 C.3       2 GLC5        0.0000 
     12 CA         15.9900    9.0120   36.1290 C.3       4 GLP5        0.0000 
     13 CA         22.3210   12.3815   29.6140 C.3       2 GLC5        0.0000 
     14 CA         22.2700   10.9710   31.3360 C.3       6 GLL5        0.0000 
     15 CA         22.3720   13.7920   27.8920 C.3       4 GLP5        0.0000 
     16 CA         21.0935    6.4910   30.7455 C.3       2 GLC5        0.0000 
     17 CA         21.1240    8.6580   30.4360 C.3       6 GLL5        0.0000 
     18 CA         21.0630    4.3240   31.0550 C.3       4 GLP5        0.0000 
     19 CA         24.2320    9.5870   35.2420 C.3       2 GLC5        0.0000 
     20 CA         23.5270    8.5040   33.7500 C.3       6 GLL5        0.0000 
     21 CA         24.9370   10.6700   36.7340 C.3       4 GLP5        0.0000 
     22 CA         21.4430    8.2025   33.4545 C.3       2 GLC5        0.0000 
     23 CA         19.3590    7.9010   33.1590 C.3       4 GLP5        0.0000 
     24 CA         23.2155    6.7505   33.6770 C.3       2 GLC5        0.0000 
     25 CA         22.9040    4.9970   33.6040 C.3       4 GLP5        0.0000 
     26 CA         26.9770   11.6285   28.1840 C.3       2 GLC5        0.0000 
     27 CA         25.0630   11.1930   29.2060 C.3       6 GLL5        0.0000 
     28 CA         28.8910   12.0640   27.1620 C.3       4 GLP5        0.0000 
     29 CA         24.6835   10.2355   27.7560 C.3       2 GLC5        0.0000 
     30 CA         24.3040    9.2780   26.3060 C.3       4 GLP5        0.0000 
     31 CA         23.7175   12.4925   28.5490 C.3       2 GLC5        0.0000 
     32 N          23.1040    6.2350   30.1755 N.am      1 SEC2        0.0000 
     33 N          23.1690    7.4810   30.5010 N.am      5 SEL2        0.0000 
     34 N          23.0390    4.9890   29.8500 N.am      3 SEP2        0.0000 
     35 N          24.4215    6.6415   30.4730 N.am      1 SEC2        0.0000 
     36 N          25.6740    5.8020   30.4450 N.am      3 SEP2        0.0000 
     37 CA         22.7410   14.5515   29.5605 C.3       2 GLC5        0.0000 
     38 CA         23.1100   15.3110   31.2290 C.3       6 GLL5        0.0000 
     39 CA         13.7690   12.4880   31.7545 C.3       2 GLC5        0.0000 
     40 CA         15.9660   12.2870   30.7970 C.3       6 GLL5        0.0000 
     41 CA         12.2390   12.6960   32.7450 C.3       4 GLP5        0.0000 
     42 CA         16.7836   14.3077   31.4015 C.3       2 GLC5        0.0000 
     43 CA         16.7490   13.0010   29.8890 C.3       6 GLL5        0.0000 
     44 CA         16.6611   12.0083   28.5975 C.3       2 GLC5        0.0000 
     45 CA         18.7802    9.5460   32.7680 C.3       2 GLC5        0.0000 
     46 CA         17.9260   11.5500   31.8870 C.3       6 GLL5        0.0000 
     47 CA         16.6318    9.9715   30.5783 C.3       2 GLC5        0.0000 
     48 CA         16.1700    8.2060   29.5640 C.3       4 GLP5        0.0000 
     49 CA         14.2529   13.5412   29.5030 C.3       2 GLC5        0.0000 
     50 CA         13.0110   14.6240   28.4690 C.3       4 GLP5        0.0000 
     51 CA         16.8985   12.3279   33.6365 C.3       2 GLC5        0.0000 
     52 CA         15.9380   13.4620   34.9180 C.3       4 GLP5        0.0000 
     53 CA         20.9675   11.0880   28.8335 C.3       2 GLC5        0.0000 
     54 CA         20.3310    9.7920   30.5930 C.3       6 GLL5        0.0000 
     55 CA         21.3180   11.7920   26.8450 C.3       4 GLP5        0.0000 
     56 CA         21.8620   13.3887   29.8126 C.3       2 GLC5        0.0000 
     57 CA         22.1980   13.2450   31.9960 C.3       6 GLL5        0.0000 
     58 CA         20.1148    8.7110   31.8940 C.3       2 GLC5        0.0000 
     59 CA         20.9030   10.9760   31.0510 C.3       6 GLL5        0.0000 
     60 CA         28.0787    9.0735   30.7327 C.3       2 GLC5        0.0000 
     61 CA         26.7810   10.4150   31.1860 C.3       6 GLL5        0.0000 
     62 CA         29.2100    8.0280   29.6740 C.3       4 GLP5        0.0000 
     63 CA         25.2000    9.9605   34.8407 C.3       2 GLC5        0.0000 
     64 CA         26.1210    9.2430   33.1680 C.3       6 GLL5        0.0000 
     65 CA         26.2396    7.5475   32.0809 C.3       2 GLC5        0.0000 
     66 CA         24.8050    9.2590   32.7270 C.3       6 GLL5        0.0000 
     67 CA         26.7680    5.6990   31.4070 C.3       4 GLP5        0.0000 
     68 CA         21.1910   13.7601   33.9590 C.3       2 GLC5        0.0000 
     69 CA         22.9270   14.4410   32.4690 C.3       6 GLL5        0.0000 
     70 CA         20.1610   13.6650   35.7560 C.3       4 GLP5        0.0000 
@<TRIPOS>BOND
@<TRIPOS>SUBSTRUCTURE
     1 SEC2       32 GROUP        1 X    SEC  0     ROOT SEC X 2
     2 GLC5        1 GROUP        1 X    GLC  0     **** GLC X 6
     3 SEP2       34 GROUP        1 Y    SEP  0     ROOT SEP Y 9
     4 GLP5        3 GROUP        1 Y    GLP  0     **** GLP Y 13
     5 SEL2       33 GROUP        1 Z    SEL  0     ROOT SEL Z 16
     6 GLL5        2 GROUP        1 Z    GLL  0     **** GLL Z 20
@<TRIPOS>SET

