#    Name: 3mw1_MIH_1_ligand
#    Modification time : Mon Mar 24 23:54:51 2014

@<TRIPOS>MOLECULE
3mw1_MIH_1_ligand
   51    55     1     0     0
SMALL
NO_CHARGES


@<TRIPOS>ATOM
      1 CAA        15.9660   12.2870   30.7970 C.ar      1 MIH1        0.0000 
      2 CAB        16.7490   13.0010   29.8890 C.ar      1 MIH1        0.0000 
      3 CAC        18.1390   12.9890   29.9890 C.ar      1 MIH1        0.0000 
      4 CAD        18.7230   12.2390   30.9930 C.ar      1 MIH1        0.0000 
      5 CAE        17.9260   11.5500   31.8870 C.ar      1 MIH1        0.0000 
      6 CAF        16.5560   11.5610   31.7990 C.ar      1 MIH1        0.0000 
      7 FAG        14.6320   12.2730   30.7310 F         1 MIH1        0.0000 
      8 FAH        18.4770   10.8320   32.8670 F         1 MIH1        0.0000 
      9 CAI        20.1800   12.1580   31.2270 C.ar      1 MIH1        0.0000 
     10 CAJ        20.9030   10.9760   31.0510 C.ar      1 MIH1        0.0000 
     11 CAK        22.2700   10.9710   31.3360 C.ar      1 MIH1        0.0000 
     12 NAL        22.8780   12.0950   31.7890 N.ar      1 MIH1        0.0000 
     13 CAM        22.1980   13.2450   31.9960 C.ar      1 MIH1        0.0000 
     14 CAN        20.8320   13.2940   31.7140 C.ar      1 MIH1        0.0000 
     15 CAO        20.3310    9.7920   30.5930 C.ar      1 MIH1        0.0000 
     16 CAP        21.1240    8.6580   30.4360 C.ar      1 MIH1        0.0000 
     17 NAQ        22.4300    8.6820   30.7070 N.pl3     1 MIH1        0.0000 
     18 CAR        23.0270    9.8120   31.1420 C.ar      1 MIH1        0.0000 
     19 CAS        24.4740    9.8390   31.5080 C.ar      1 MIH1        0.0000 
     20 CAT        25.4640   10.4260   30.7560 C.ar      1 MIH1        0.0000 
     21 CAU        26.7810   10.4150   31.1860 C.ar      1 MIH1        0.0000 
     22 CAV        27.1140    9.8230   32.3970 C.ar      1 MIH1        0.0000 
     23 CAW        26.1210    9.2430   33.1680 C.ar      1 MIH1        0.0000 
     24 CAX        24.8050    9.2590   32.7270 C.ar      1 MIH1        0.0000 
     25 CLAY       23.5270    8.5040   33.7500 Cl        1 MIH1        0.0000 
     26 CLAZ       25.0630   11.1930   29.2060 Cl        1 MIH1        0.0000 
     27 OBA        23.1690    7.4810   30.5010 O.2       1 MIH1        0.0000 
     28 CBB        22.9270   14.4410   32.4690 C.3       1 MIH1        0.0000 
     29 CBC        24.2770   14.0460   33.0750 C.3       1 MIH1        0.0000 
     30 CBD        25.1710   15.2600   33.3220 C.3       1 MIH1        0.0000 
     31 NBE        25.2570   16.0940   32.1370 N.4       1 MIH1        0.0000 
     32 CBF        24.0520   16.4890   31.4340 C.3       1 MIH1        0.0000 
     33 CBG        23.1100   15.3110   31.2290 C.3       1 MIH1        0.0000 
     34 H          16.2946   13.5418   29.1381 H         1 MIH1        0.0000 
     35 H          18.7081   13.5232   29.3338 H         1 MIH1        0.0000 
     36 H          15.9857   11.0358   32.4706 H         1 MIH1        0.0000 
     37 H          20.3068   14.1621   31.8637 H         1 MIH1        0.0000 
     38 H          19.3302    9.7551   30.3722 H         1 MIH1        0.0000 
     39 H          20.6620    7.7819   30.0972 H         1 MIH1        0.0000 
     40 H          27.5159   10.8467   30.6069 H         1 MIH1        0.0000 
     41 H          28.0890    9.8163   32.7165 H         1 MIH1        0.0000 
     42 H          26.3565    8.8005   34.0665 H         1 MIH1        0.0000 
     43 H          22.3445   14.9707   33.1792 H         1 MIH1        0.0000 
     44 H          24.7856   13.3573   32.3949 H         1 MIH1        0.0000 
     45 H          24.1050   13.5274   34.0221 H         1 MIH1        0.0000 
     46 H          26.1633   14.8958   33.6212 H         1 MIH1        0.0000 
     47 H          24.7553   15.8210   34.1702 H         1 MIH1        0.0000 
     48 H          24.2933   16.9094   30.4445 H         1 MIH1        0.0000 
     49 H          23.5080   17.2680   31.9920 H         1 MIH1        0.0000 
     50 H          22.1243   15.6902   30.9104 H         1 MIH1        0.0000 
     51 H          23.4927   14.6837   30.4062 H         1 MIH1        0.0000 
@<TRIPOS>BOND
     1    2    1 ar   
     2    6    1 ar   
     3    7    1 1    
     4    3    2 ar   
     5   34    2 1    
     6    4    3 ar   
     7   35    3 1    
     8    5    4 ar   
     9    9    4 1    
    10    6    5 ar   
    11    8    5 1    
    12   36    6 1    
    13   10    9 ar   
    14   14    9 ar   
    15   11   10 ar   
    16   15   10 ar   
    17   12   11 ar   
    18   18   11 ar   
    19   13   12 ar   
    20   14   13 ar   
    21   28   13 1    
    22   37   14 1    
    23   16   15 ar   
    24   38   15 1    
    25   17   16 ar   
    26   39   16 1    
    27   18   17 ar   
    28   27   17 1    
    29   19   18 1    
    30   20   19 ar   
    31   24   19 ar   
    32   21   20 ar   
    33   26   20 1    
    34   22   21 ar   
    35   40   21 1    
    36   23   22 ar   
    37   41   22 1    
    38   24   23 ar   
    39   42   23 1    
    40   25   24 1    
    41   29   28 1    
    42   33   28 1    
    43   43   28 1    
    44   30   29 1    
    45   44   29 1    
    46   45   29 1    
    47   31   30 1    
    48   46   30 1    
    49   47   30 1    
    50   32   31 1    
    51   33   32 1    
    52   48   32 1    
    53   49   32 1    
    54   50   33 1    
    55   51   33 1    
@<TRIPOS>SUBSTRUCTURE
     1 MIH1        1 GROUP   
@<TRIPOS>SET

