#    Name: 2A8Y_8_CAVITY_N1_6.mol2
#    Modification time : Tue Mar 11 01:01:51 2014

@<TRIPOS>MOLECULE
2A8Y_8_CAVITY_N1_6.mol2
   42     0     6     0     0
SMALL
NO_CHARGES


@<TRIPOS>ATOM
      1 O          -9.0174  -62.8996   58.3364 O.2       2 ALA2        0.0000 
      2 N         -11.0996  -63.2014   58.0654 N.2       2 ALA2        0.0000 
      3 NZ         -8.6274  -64.7785   57.4322 N.2       3 LYS4        0.0000 
      4 CA        -12.6342  -64.0565   54.2035 C.3       5 GLY6        0.0000 
      5 CA        -11.3981  -64.8450   53.8869 C.3       5 GLY6        0.0000 
      6 CZ        -10.1620  -65.6336   53.5703 C.ar      4 PHE5        0.0000 
      7 CA        -13.4803  -65.1468   53.6159 C.3       5 GLY6        0.0000 
      8 N         -12.2442  -65.9354   53.2993 N.2       2 ALA2        0.0000 
      9 N         -11.0082  -66.7240   52.9828 N.2       2 ALA2        0.0000 
     10 CA        -10.9420  -61.8758   55.3787 C.3       5 GLY6        0.0000 
     11 CA        -11.7881  -62.9661   54.7911 C.3       5 GLY6        0.0000 
     12 CA        -10.5520  -63.7547   54.4745 C.3       5 GLY6        0.0000 
     13 CA        -13.1030  -62.8403   56.4510 C.3       5 GLY6        0.0000 
     14 N         -11.8669  -63.6289   56.1344 N.2       2 ALA2        0.0000 
     15 CZ        -10.6308  -64.4175   55.8178 C.ar      4 PHE5        0.0000 
     16 O         -13.9491  -63.9306   55.8634 O.2       2 ALA2        0.0000 
     17 DU        -12.7130  -64.7192   55.5468 H         6 CUB7        0.0000 
     18 DU        -11.4769  -65.5078   55.2303 H         6 CUB7        0.0000 
     19 CZ        -10.2408  -66.2964   54.9137 C.ar      4 PHE5        0.0000 
     20 CA        -14.7952  -65.0210   55.2758 C.3       5 GLY6        0.0000 
     21 OG        -13.5591  -65.8096   54.9593 O.2       1 SER1        0.0000 
     22 N         -12.3230  -66.5982   54.6427 N.2       2 ALA2        0.0000 
     23 CA        -11.0869  -67.3868   54.3261 C.3       5 GLY6        0.0000 
     24 CA         -9.8509  -68.1754   54.0095 C.3       5 GLY6        0.0000 
     25 N         -11.0208  -62.5386   56.7220 N.2       2 ALA2        0.0000 
     26 CZ         -9.7847  -63.3272   56.4054 C.ar      4 PHE5        0.0000 
     27 CA        -11.6345  -66.8334   57.9169 C.3       5 GLY6        0.0000 
     28 N         -14.4052  -66.8999   54.3717 N.2       2 ALA2        0.0000 
     29 N         -13.1691  -67.6885   54.0551 N.2       2 ALA2        0.0000 
     30 N         -11.9331  -68.4771   53.7385 N.2       2 ALA2        0.0000 
     31 CA        -10.7884  -65.7431   58.5045 C.3       5 GLY6        0.0000 
     32 OG        -14.8740  -65.6838   56.6192 O.2       1 SER1        0.0000 
     33 OG        -13.6379  -66.4724   56.3026 O.2       1 SER1        0.0000 
     34 OG        -12.4018  -67.2610   55.9860 O.2       1 SER1        0.0000 
     35 CA         -9.9297  -68.8381   55.3528 C.3       5 GLY6        0.0000 
     36 OG        -12.0118  -69.1399   55.0818 O.2       1 SER1        0.0000 
     37 CA        -10.7758  -69.9285   54.7652 C.3       5 GLY6        0.0000 
     38 N         -10.7096  -65.0803   57.1612 N.2       2 ALA2        0.0000 
     39 CA         -9.4735  -65.8689   56.8446 C.3       5 GLY6        0.0000 
     40 N         -12.7918  -65.3820   56.8902 N.2       2 ALA2        0.0000 
     41 CA        -11.5557  -66.1706   56.5736 C.3       5 GLY6        0.0000 
     42 CA        -10.3196  -66.9592   56.2570 C.3       5 GLY6        0.0000 
@<TRIPOS>BOND
@<TRIPOS>SUBSTRUCTURE
     1 SER1       21 GROUP   
     2 ALA2        1 GROUP   
     3 LYS4        3 GROUP   
     4 PHE5        6 GROUP   
     5 GLY6        4 GROUP   
     6 CUB7       17 GROUP   
@<TRIPOS>SET

