#    Name: 2a8y_MTA_8_INTS_M
#    Modification time : Mon Mar 24 18:43:14 2014

@<TRIPOS>MOLECULE
2a8y_MTA_8_INTS_M
   57     0     9     0     0
SMALL
NO_CHARGES


@<TRIPOS>ATOM
      1 CA        -12.7010  -69.7970   57.0200 C.3       3 GLC5        0.0000 
      2 CA        -11.1260  -69.9060   55.7370 C.3       9 GLL5        0.0000 
      3 CA        -14.2760  -69.6880   58.3030 C.3       6 GLP5        0.0000 
      4 CA        -10.4560  -69.0765   57.2845 C.3       3 GLC5        0.0000 
      5 CA         -9.7860  -68.2470   58.8320 C.3       6 GLP5        0.0000 
      6 CA        -10.4550  -71.6175   56.5780 C.3       3 GLC5        0.0000 
      7 CA         -9.7840  -73.3290   57.4190 C.3       6 GLP5        0.0000 
      8 CA         -8.1835  -69.4495   54.8450 C.3       3 GLC5        0.0000 
      9 CA         -9.9890  -68.7130   54.9850 C.3       9 GLL5        0.0000 
     10 CA         -6.3780  -70.1860   54.7050 C.3       6 GLP5        0.0000 
     11 CA         -9.1750  -68.6600   56.6885 C.3       3 GLC5        0.0000 
     12 CA         -8.3610  -68.6070   58.3920 C.3       6 GLP5        0.0000 
     13 CA        -12.8545  -62.2190   55.7925 C.3       3 GLC5        0.0000 
     14 CA        -12.6950  -64.3440   55.2020 C.3       9 GLL5        0.0000 
     15 CA        -13.0140  -60.0940   56.3830 C.3       6 GLP5        0.0000 
     16 CA        -13.4175  -63.1980   53.7555 C.3       3 GLC5        0.0000 
     17 CA        -14.1400  -62.0520   52.3090 C.3       6 GLP5        0.0000 
     18 N         -14.0945  -62.3175   55.0220 N.am      2 SEC2        0.0000 
     19 N         -13.9500  -63.6870   55.5620 N.am      8 SEL2        0.0000 
     20 N         -14.2390  -60.9480   54.4820 N.am      5 SEP2        0.0000 
     21 CA        -14.1415  -65.4760   52.7175 C.3       3 GLC5        0.0000 
     22 CA        -12.8690  -65.6560   54.3450 C.3       9 GLL5        0.0000 
     23 CA        -15.4140  -65.2960   51.0900 C.3       6 GLP5        0.0000 
     24 CA        -12.3710  -64.5110   52.8610 C.3       3 GLC5        0.0000 
     25 CA        -11.8730  -63.3660   51.3770 C.3       6 GLP5        0.0000 
     26 N         -14.2555  -67.3050   53.3665 N.am      2 SEC2        0.0000 
     27 N         -14.2550  -66.1190   54.3130 N.am      8 SEL2        0.0000 
     28 N         -14.2560  -68.4910   52.4200 N.am      5 SEP2        0.0000 
     29 N          -7.8985  -64.0100   58.8085 N.am      2 SEC2        0.0000 
     30 N          -8.7580  -63.5980   57.9620 N.am      8 SEL2        0.0000 
     31 N          -7.0390  -64.4220   59.6550 N.am      5 SEP2        0.0000 
     32 O          -6.1600  -62.1685   58.0700 O.2       1 ALC1        0.0000 
     33 O          -6.7770  -61.4660   56.9560 O.2       7 ALL1        0.0000 
     34 O          -5.5430  -62.8710   59.1840 O.2       4 ALP1        0.0000 
     35 O          -5.8160  -60.4955   56.4320 O.2       1 ALC1        0.0000 
     36 O          -4.8550  -59.5250   55.9080 O.2       4 ALP1        0.0000 
     37 CA         -9.5125  -60.1330   53.1545 C.3       3 GLC5        0.0000 
     38 CA         -9.6150  -61.2670   54.7480 C.3       9 GLL5        0.0000 
     39 CA         -9.4100  -58.9990   51.5610 C.3       6 GLP5        0.0000 
     40 CA         -9.6195  -59.3590   55.2580 C.3       3 GLC5        0.0000 
     41 CA         -9.6240  -57.4510   55.7680 C.3       6 GLP5        0.0000 
     42 CA        -11.3145  -60.6805   55.5655 C.3       3 GLC5        0.0000 
     43 CA         -9.8540  -62.1045   53.1355 C.3       3 GLC5        0.0000 
     44 CA        -10.0930  -62.9420   51.5230 C.3       6 GLP5        0.0000 
     45 CA        -11.5195  -61.4900   56.2965 C.3       3 GLC5        0.0000 
     46 CA        -10.0250  -62.8860   56.2100 C.3       9 GLL5        0.0000 
     47 CA        -10.7782  -70.7152   53.9155 C.3       3 GLC5        0.0000 
     48 CA        -10.9990  -72.1210   52.4700 C.3       6 GLP5        0.0000 
     49 CA         -8.8355  -67.0350   54.2272 C.3       3 GLC5        0.0000 
     50 CA         -7.1120  -65.9610   53.8520 C.3       6 GLP5        0.0000 
     51 CA        -10.5755  -68.3685   52.9222 C.3       3 GLC5        0.0000 
     52 CA        -10.5920  -68.6280   51.2420 C.3       6 GLP5        0.0000 
     53 CA         -8.1840  -61.6040   58.5288 C.3       3 GLC5        0.0000 
     54 CA         -8.8410  -62.7070   56.9010 C.3       9 GLL5        0.0000 
     55 CA         -7.9560  -60.9970   60.4030 C.3       6 GLP5        0.0000 
     56 CA         -8.3525  -60.2715   57.1977 C.3       3 GLC5        0.0000 
     57 CA         -8.2930  -58.3320   57.7410 C.3       6 GLP5        0.0000 
@<TRIPOS>BOND
@<TRIPOS>SUBSTRUCTURE
     1 ALC1       32 GROUP        1 X    ALC  0     ROOT ALC X 1
     2 SEC2       18 GROUP        1 X    SEC  0     **** SEC X 2
     3 GLC5        1 GROUP        1 X    GLC  0     **** GLC X 6
     4 ALP1       34 GROUP        1 Y    ALP  0     ROOT ALP Y 8
     5 SEP2       20 GROUP        1 Y    SEP  0     **** SEP Y 9
     6 GLP5        3 GROUP        1 Y    GLP  0     **** GLP Y 13
     7 ALL1       33 GROUP        1 Z    ALL  0     ROOT ALL Z 15
     8 SEL2       19 GROUP        1 Z    SEL  0     **** SEL Z 16
     9 GLL5        2 GROUP        1 Z    GLL  0     **** GLL Z 20
@<TRIPOS>SET

