#    Name: 2a8y_MTA_8_ligand
#    Modification time : Mon Mar 24 18:43:14 2014

@<TRIPOS>MOLECULE
2a8y_MTA_8_ligand
   35    37     1     0     0
SMALL
NO_CHARGES


@<TRIPOS>ATOM
      1 CS        -11.1260  -69.9060   55.7370 C.3       1 MTA4024     0.0000 
      2 S5'        -9.9890  -68.7130   54.9850 S.3       1 MTA4024     0.0000 
      3 C5'       -11.1290  -67.5050   54.2200 C.3       1 MTA4024     0.0000 
      4 C4'       -12.0550  -66.6760   55.1050 C.3       1 MTA4024     0.0000 
      5 O4'       -11.2830  -65.9640   56.0520 O.3       1 MTA4024     0.0000 
      6 C2'       -12.6950  -64.3440   55.2020 C.3       1 MTA4024     0.0000 
      7 O2'       -13.9500  -63.6870   55.5620 O.3       1 MTA4024     0.0000 
      8 C3'       -12.8690  -65.6560   54.3450 C.3       1 MTA4024     0.0000 
      9 O3'       -14.2550  -66.1190   54.3130 O.3       1 MTA4024     0.0000 
     10 C1'       -11.9070  -64.7000   56.5130 C.3       1 MTA4024     0.0000 
     11 N9        -10.6430  -63.9360   56.8270 N.pl3     1 MTA4024     0.0000 
     12 C8         -9.8270  -64.2940   57.8710 C.2       1 MTA4024     0.0000 
     13 N7         -8.7580  -63.5980   57.9620 N.2       1 MTA4024     0.0000 
     14 C5         -8.8410  -62.7070   56.9010 C.ar      1 MTA4024     0.0000 
     15 C6         -7.9830  -61.7150   56.4080 C.ar      1 MTA4024     0.0000 
     16 N6         -6.7770  -61.4660   56.9560 N.pl3     1 MTA4024     0.0000 
     17 N1         -8.4090  -60.9970   55.3090 N.ar      1 MTA4024     0.0000 
     18 C2         -9.6150  -61.2670   54.7480 C.ar      1 MTA4024     0.0000 
     19 N3        -10.4800  -62.2140   55.1310 N.ar      1 MTA4024     0.0000 
     20 C4        -10.0250  -62.8860   56.2100 C.ar      1 MTA4024     0.0000 
     21 H         -11.6750  -68.1419   53.5013 H         1 MTA4024     0.0000 
     22 H         -10.4304  -66.8870   53.6282 H         1 MTA4024     0.0000 
     23 H         -12.7393  -67.3495   55.6115 H         1 MTA4024     0.0000 
     24 H         -12.0512  -63.6723   54.6368 H         1 MTA4024     0.0000 
     25 H         -12.4487  -65.5005   53.4061 H         1 MTA4024     0.0000 
     26 H         -12.5057  -64.8776   57.2925 H         1 MTA4024     0.0000 
     27 H         -10.0921  -65.0509   58.4888 H         1 MTA4024     0.0000 
     28 H          -6.2302  -60.7559   56.5124 H         1 MTA4024     0.0000 
     29 H          -6.5363  -62.0135   57.7574 H         1 MTA4024     0.0000 
     30 H          -9.9014  -60.6465   53.9010 H         1 MTA4024     0.0000 
     31 H         -10.6434  -70.7082   56.0886 H         1 MTA4024     0.0000 
     32 H         -11.6291  -69.5072   56.5037 H         1 MTA4024     0.0000 
     33 H         -11.8048  -70.2364   55.0812 H         1 MTA4024     0.0000 
     34 H         -14.6596  -64.3682   55.3820 H         1 MTA4024     0.0000 
     35 H         -14.3096  -66.8212   55.0229 H         1 MTA4024     0.0000 
@<TRIPOS>BOND
     1    2    1 1    
     2   31    1 1    
     3   32    1 1    
     4   33    1 1    
     5    3    2 1    
     6    4    3 1    
     7   21    3 1    
     8   22    3 1    
     9    5    4 1    
    10    8    4 1    
    11   23    4 1    
    12   10    5 1    
    13    7    6 1    
    14    8    6 1    
    15   10    6 1    
    16   24    6 1    
    17   34    7 1    
    18    9    8 1    
    19   25    8 1    
    20   35    9 1    
    21   11   10 1    
    22   26   10 1    
    23   12   11 1    
    24   20   11 1    
    25   13   12 2    
    26   27   12 1    
    27   14   13 1    
    28   15   14 ar   
    29   20   14 ar   
    30   16   15 1    
    31   17   15 ar   
    32   28   16 1    
    33   29   16 1    
    34   18   17 ar   
    35   19   18 ar   
    36   30   18 1    
    37   20   19 ar   
@<TRIPOS>SUBSTRUCTURE
     1 MTA4024     1 GROUP   
@<TRIPOS>SET

