#    Name: 1t9c_1SM_1_INTS_M
#    Modification time : Tue Mar 25 04:34:53 2014

@<TRIPOS>MOLECULE
1t9c_1SM_1_INTS_M
   51     0     6     0     0
SMALL
NO_CHARGES


@<TRIPOS>ATOM
      1 CA         -6.3260  101.9525   54.0250 C.3       2 GLC5        0.0000 
      2 CA         -7.4640  101.8190   55.7180 C.3       6 GLL5        0.0000 
      3 CA         -5.1880  102.0860   52.3320 C.3       4 GLP5        0.0000 
      4 N          -9.5820  103.7860   57.5895 N.am      1 SEC2        0.0000 
      5 N          -9.9680  103.3860   56.2970 N.am      5 SEL2        0.0000 
      6 N          -9.1960  104.1860   58.8820 N.am      3 SEP2        0.0000 
      7 N         -10.3805  104.5365   57.2480 N.am      1 SEC2        0.0000 
      8 N         -10.7930  105.6870   58.1990 N.am      3 SEP2        0.0000 
      9 CA         -6.0555  103.7105   53.0870 C.3       2 GLC5        0.0000 
     10 CA         -6.9230  105.3350   53.8420 C.3       6 GLL5        0.0000 
     11 CA         -6.9100  104.9050   51.8770 C.3       2 GLC5        0.0000 
     12 CA         -6.8970  104.4750   49.9120 C.3       4 GLP5        0.0000 
     13 CA         -6.8240  105.8665   55.7420 C.3       2 GLC5        0.0000 
     14 CA         -6.7250  106.3980   57.6420 C.3       4 GLP5        0.0000 
     15 CA         -5.6165  107.0820   54.3860 C.3       2 GLC5        0.0000 
     16 CA         -4.3100  108.8290   54.9300 C.3       4 GLP5        0.0000 
     17 CA         -7.8545  101.9285   60.5725 C.3       2 GLC5        0.0000 
     18 CA         -6.3600  102.1370   59.3510 C.3       6 GLL5        0.0000 
     19 CA         -9.3490  101.7200   61.7940 C.3       4 GLP5        0.0000 
     20 CA         -7.8690  100.9265   58.6720 C.3       2 GLC5        0.0000 
     21 CA         -9.3780   99.7160   57.9930 C.3       4 GLP5        0.0000 
     22 CA         -6.0065  103.8340   58.6000 C.3       2 GLC5        0.0000 
     23 CA         -5.6530  105.5310   57.8490 C.3       4 GLP5        0.0000 
     24 CA         -4.7760  102.5845   60.5065 C.3       2 GLC5        0.0000 
     25 CA         -3.1920  103.0320   61.6620 C.3       4 GLP5        0.0000 
     26 CA         -3.1690   98.2880   55.1580 C.3       2 GLC5        0.0000 
     27 CA         -4.2590   99.8180   55.3860 C.3       6 GLL5        0.0000 
     28 CA         -2.0790   96.7580   54.9300 C.3       4 GLP5        0.0000 
     29 CA        -12.7310  108.4585   57.8825 C.3       2 GLC5        0.0000 
     30 CA        -11.7980  108.2500   55.7610 C.3       6 GLL5        0.0000 
     31 CA        -13.1300  109.1230   59.9340 C.3       4 GLP5        0.0000 
     32 CA        -13.1030  109.2320   54.6870 C.3       2 GLC5        0.0000 
     33 CA        -12.8660  107.3380   55.9010 C.3       6 GLL5        0.0000 
     34 CA        -13.8740  110.6700   53.5430 C.3       4 GLP5        0.0000 
     35 CA        -11.8040  107.7383   53.4078 C.3       2 GLC5        0.0000 
     36 CA        -12.3940  107.4270   51.3990 C.3       4 GLP5        0.0000 
     37 CA        -11.0540  109.9698   55.5173 C.3       2 GLC5        0.0000 
     38 CA        -10.6300  107.8490   55.0720 C.3       6 GLL5        0.0000 
     39 CA        -10.8940  111.8900   55.6180 C.3       4 GLP5        0.0000 
     40 CA         -9.6085  108.2692   56.7903 C.3       2 GLC5        0.0000 
     41 CA         -8.0030  108.4890   58.1640 C.3       4 GLP5        0.0000 
     42 CA         -9.6673  108.4980   53.6195 C.3       2 GLC5        0.0000 
     43 CA         -8.7810  109.7950   52.4510 C.3       4 GLP5        0.0000 
     44 CA        -12.1442  106.7471   53.1833 C.3       2 GLC5        0.0000 
     45 CA        -10.4770  106.5530   54.5040 C.3       6 GLL5        0.0000 
     46 CA         -5.8767   98.5775   55.7155 C.3       2 GLC5        0.0000 
     47 CA         -5.3270  100.6170   55.9870 C.3       6 GLL5        0.0000 
     48 CA         -7.1670   97.3870   56.3020 C.3       4 GLP5        0.0000 
     49 CA         -4.9905  101.1517   54.0093 C.3       2 GLC5        0.0000 
     50 CA         -3.5724   99.9394   57.5363 C.3       2 GLC5        0.0000 
     51 CA         -2.3720   99.5770   59.0270 C.3       4 GLP5        0.0000 
@<TRIPOS>BOND
@<TRIPOS>SUBSTRUCTURE
     1 SEC2        4 GROUP        1 X    SEC  0     ROOT SEC X 2
     2 GLC5        1 GROUP        1 X    GLC  0     **** GLC X 6
     3 SEP2        6 GROUP        1 Y    SEP  0     ROOT SEP Y 9
     4 GLP5        3 GROUP        1 Y    GLP  0     **** GLP Y 13
     5 SEL2        5 GROUP        1 Z    SEL  0     ROOT SEL Z 16
     6 GLL5        2 GROUP        1 Z    GLL  0     **** GLL Z 20
@<TRIPOS>SET

