#    Name: 1t9c_1SM_1_ligand
#    Modification time : Tue Mar 25 04:34:54 2014

@<TRIPOS>MOLECULE
1t9c_1SM_1_ligand
   41    42     1     0     0
SMALL
NO_CHARGES


@<TRIPOS>ATOM
      1 C4        -12.8660  107.3380   55.9010 C.ar      1 1SM695      0.0000 
      2 C5        -11.7980  108.2500   55.7610 C.ar      1 1SM695      0.0000 
      3 C6        -10.6300  107.8490   55.0720 C.ar      1 1SM695      0.0000 
      4 C1        -10.4770  106.5530   54.5040 C.ar      1 1SM695      0.0000 
      5 C2        -11.5810  105.6400   54.6600 C.ar      1 1SM695      0.0000 
      6 C3        -12.7600  106.0380   55.3530 C.ar      1 1SM695      0.0000 
      7 S7        -11.8840  103.9790   54.1660 S.o2      1 1SM695      0.0000 
      8 N8        -10.3910  103.1350   54.1050 N.am      1 1SM695      0.0000 
      9 C9         -9.6230  102.9350   55.1820 C.2       1 1SM695      0.0000 
     10 N10        -8.5020  102.2530   55.0390 N.am      1 1SM695      0.0000 
     11 C2'        -7.4640  101.8190   55.7180 C.ar      1 1SM695      0.0000 
     12 N1'        -6.4120  101.0390   55.1420 N.ar      1 1SM695      0.0000 
     13 C6'        -5.3270  100.6170   55.9870 C.ar      1 1SM695      0.0000 
     14 C5'        -5.2460  100.9540   57.4230 C.ar      1 1SM695      0.0000 
     15 C4'        -6.3700  101.7610   57.9350 C.ar      1 1SM695      0.0000 
     16 N3'        -7.4550  102.1810   57.0980 N.ar      1 1SM695      0.0000 
     17 O7A       -12.8370  103.1690   55.3320 O.2       1 1SM695      0.0000 
     18 O7B       -12.2900  103.9090   52.5130 O.2       1 1SM695      0.0000 
     19 O9         -9.9680  103.3860   56.2970 O.2       1 1SM695      0.0000 
     20 C11        -9.2820  106.0810   53.7790 C.2       1 1SM695      0.0000 
     21 O12        -8.0920  105.7920   54.5440 O.3       1 1SM695      0.0000 
     22 C13        -6.9230  105.3350   53.8420 C.3       1 1SM695      0.0000 
     23 O11        -9.3340  105.9480   52.5430 O.2       1 1SM695      0.0000 
     24 C8'        -6.3600  102.1370   59.3510 C.3       1 1SM695      0.0000 
     25 C7'        -4.2590   99.8180   55.3860 C.3       1 1SM695      0.0000 
     26 H         -13.7139  107.6144   56.3964 H         1 1SM695      0.0000 
     27 H         -11.8665  109.1859   56.1510 H         1 1SM695      0.0000 
     28 H          -9.8483  108.5264   54.9742 H         1 1SM695      0.0000 
     29 H         -13.5327  105.3765   55.4529 H         1 1SM695      0.0000 
     30 H         -10.2188  102.8365   53.1461 H         1 1SM695      0.0000 
     31 H          -8.3948  101.9112   53.8892 H         1 1SM695      0.0000 
     32 H          -4.5160  100.6687   57.9808 H         1 1SM695      0.0000 
     33 H          -6.6103  106.0032   53.1669 H         1 1SM695      0.0000 
     34 H          -6.1583  105.1669   54.4640 H         1 1SM695      0.0000 
     35 H          -7.0948  104.4808   53.3512 H         1 1SM695      0.0000 
     36 H          -6.3575  101.3349   59.9482 H         1 1SM695      0.0000 
     37 H          -5.5534  102.6796   59.5855 H         1 1SM695      0.0000 
     38 H          -7.1615  102.6824   59.5961 H         1 1SM695      0.0000 
     39 H          -3.8004  100.3084   54.6450 H         1 1SM695      0.0000 
     40 H          -3.5567   99.5738   56.0547 H         1 1SM695      0.0000 
     41 H          -4.6066   98.9632   55.0007 H         1 1SM695      0.0000 
@<TRIPOS>BOND
     1    2    1 ar   
     2    6    1 ar   
     3   26    1 1    
     4    3    2 ar   
     5   27    2 1    
     6    4    3 ar   
     7   28    3 1    
     8    5    4 ar   
     9   20    4 1    
    10    6    5 ar   
    11    7    5 1    
    12   29    6 1    
    13    8    7 1    
    14   17    7 2    
    15   18    7 2    
    16    9    8 am   
    17   30    8 1    
    18   10    9 am   
    19   19    9 2    
    20   11   10 1    
    21   31   10 1    
    22   12   11 ar   
    23   16   11 ar   
    24   13   12 ar   
    25   14   13 ar   
    26   25   13 1    
    27   15   14 ar   
    28   32   14 1    
    29   16   15 ar   
    30   24   15 1    
    31   21   20 1    
    32   23   20 2    
    33   22   21 1    
    34   33   22 1    
    35   34   22 1    
    36   35   22 1    
    37   36   24 1    
    38   37   24 1    
    39   38   24 1    
    40   39   25 1    
    41   40   25 1    
    42   41   25 1    
@<TRIPOS>SUBSTRUCTURE
     1 1SM695      1 GROUP   
@<TRIPOS>SET

