#    Name: 3baz_NAP_1_INTS_M
#    Modification time : Mon Mar 24 19:13:24 2014

@<TRIPOS>MOLECULE
3baz_NAP_1_INTS_M
   95     0    12     0     0
SMALL
NO_CHARGES


@<TRIPOS>ATOM
      1 NZ         38.8825   21.5285  -16.2385 N.4       3 LYC4        0.0000 
      2 NZ         39.5140   20.9370  -14.8570 N.4      11 LYL4        0.0000 
      3 NZ         38.2510   22.1200  -17.6200 N.4       7 LYP4        0.0000 
      4 N          39.1885   21.8660  -13.6730 N.am      2 SEC2        0.0000 
      5 N          39.5140   20.9370  -14.8570 N.am     10 SEL2        0.0000 
      6 N          38.8630   22.7950  -12.4890 N.am      6 SEP2        0.0000 
      7 CA         41.5425   20.0215  -11.6655 C.3       4 GLC5        0.0000 
      8 CA         42.5820   18.4550  -12.1220 C.3      12 GLL5        0.0000 
      9 CA         40.5030   21.5880  -11.2090 C.3       8 GLP5        0.0000 
     10 O          43.7345   18.5565   -9.8190 O.2       1 ALC1        0.0000 
     11 O          42.5730   19.1800  -10.9130 O.2       9 ALL1        0.0000 
     12 O          44.8960   17.9330   -8.7250 O.2       5 ALP1        0.0000 
     13 N          44.8830   17.7890  -10.0775 N.am      2 SEC2        0.0000 
     14 N          44.8700   17.6450  -11.4300 N.am     10 SEL2        0.0000 
     15 N          44.8960   17.9330   -8.7250 N.am      6 SEP2        0.0000 
     16 CA         42.0655   16.5835   -9.9360 C.3       4 GLC5        0.0000 
     17 CA         42.8870   16.2500  -11.5300 C.3      12 GLL5        0.0000 
     18 CA         41.2440   16.9170   -8.3420 C.3       8 GLP5        0.0000 
     19 CA         41.4430   14.8620  -11.0755 C.3       4 GLC5        0.0000 
     20 CA         39.9990   13.4740  -10.6210 C.3       8 GLP5        0.0000 
     21 CA         41.5650   15.2385  -12.6760 C.3       4 GLC5        0.0000 
     22 CA         40.2430   14.2270  -13.8220 C.3       8 GLP5        0.0000 
     23 CA         41.9060   13.7425  -10.9755 C.3       4 GLC5        0.0000 
     24 CA         43.8130   14.0110  -11.3300 C.3      12 GLL5        0.0000 
     25 N          38.0755   19.9795  -16.5615 N.am      2 SEC2        0.0000 
     26 N          38.0260   19.1360  -15.2580 N.am     10 SEL2        0.0000 
     27 N          38.1250   20.8230  -17.8650 N.am      6 SEP2        0.0000 
     28 NZ         37.0535   20.5850  -16.7075 N.4       3 LYC4        0.0000 
     29 NZ         35.9820   20.3470  -15.5500 N.4      11 LYL4        0.0000 
     30 N          36.7530   21.5515  -16.1250 N.am      2 SEC2        0.0000 
     31 N          35.9820   20.3470  -15.5500 N.am     10 SEL2        0.0000 
     32 N          37.5240   22.7560  -16.7000 N.am      6 SEP2        0.0000 
     33 N          37.0535   20.5850  -16.7075 N.am      2 SEC2        0.0000 
     34 N          36.4820   21.2630  -12.4570 N.am      2 SEC2        0.0000 
     35 N          36.7950   20.1520  -13.3510 N.am     10 SEL2        0.0000 
     36 N          36.1690   22.3740  -11.5630 N.am      6 SEP2        0.0000 
     37 CA         34.6300   18.5255  -13.4810 C.3       4 GLC5        0.0000 
     38 CA         36.1560   17.2050  -13.8260 C.3      12 GLL5        0.0000 
     39 CA         33.1040   19.8460  -13.1360 C.3       8 GLP5        0.0000 
     40 CA         33.0565   14.0390  -12.4475 C.3       4 GLC5        0.0000 
     41 CA         33.2550   15.2050  -13.9820 C.3      12 GLL5        0.0000 
     42 CA         32.8580   12.8730  -10.9130 C.3       8 GLP5        0.0000 
     43 CA         31.8260   14.1380  -12.2535 C.3       4 GLC5        0.0000 
     44 CA         30.7940   15.4030  -13.5940 C.3      12 GLL5        0.0000 
     45 O          29.5720   15.0835  -11.4395 O.2       1 ALC1        0.0000 
     46 O          28.2070   15.3420  -12.0490 O.2       9 ALL1        0.0000 
     47 O          30.9370   14.8250  -10.8300 O.2       5 ALP1        0.0000 
     48 O          26.9365   15.0605  -11.4675 O.2       1 ALC1        0.0000 
     49 O          25.6660   14.7790  -10.8860 O.2       5 ALP1        0.0000 
     50 CA         30.8260   19.5135  -15.9000 C.3       4 GLC5        0.0000 
     51 CA         30.7500   17.5990  -15.3120 C.3      12 GLL5        0.0000 
     52 CA         30.9020   21.4280  -16.4880 C.3       8 GLP5        0.0000 
     53 NZ         46.5930   15.9645  -13.8770 N.4       3 LYC4        0.0000 
     54 NZ         46.5930   17.2960  -13.1160 N.4      11 LYL4        0.0000 
     55 NZ         47.2480   13.6110  -14.1090 N.4       7 LYP4        0.0000 
     56 N          46.5930   15.9645  -13.8770 N.am      2 SEC2        0.0000 
     57 N          46.5930   17.2960  -13.1160 N.am     10 SEL2        0.0000 
     58 N          46.5930   14.6330  -14.6380 N.am      6 SEP2        0.0000 
     59 N          46.1250   17.8670   -9.8685 N.am      2 SEC2        0.0000 
     60 N          47.3540   17.8010  -11.0120 N.am     10 SEL2        0.0000 
     61 N          48.6075   17.4550  -10.0465 N.am      2 SEC2        0.0000 
     62 N          49.8610   17.1090   -9.0810 N.am      6 SEP2        0.0000 
     63 N          48.6010   18.6720  -10.9030 N.am      2 SEC2        0.0000 
     64 N          49.8480   19.5430  -10.7940 N.am      6 SEP2        0.0000 
     65 NZ         46.9855   14.6235  -11.9815 N.4       3 LYC4        0.0000 
     66 NZ         46.5300   15.6920  -11.1690 N.4      11 LYL4        0.0000 
     67 N          47.1660   15.5895  -10.0895 N.am      2 SEC2        0.0000 
     68 N          46.5300   15.6920  -11.1690 N.am     10 SEL2        0.0000 
     69 N          47.8020   15.4870   -9.0100 N.am      6 SEP2        0.0000 
     70 N          46.9855   14.6235  -11.9815 N.am      2 SEC2        0.0000 
     71 N          47.4410   13.5550  -12.7940 N.am      6 SEP2        0.0000 
     72 CA         40.6423   19.7178  -11.9805 C.3       4 GLC5        0.0000 
     73 CA         41.2480   17.7550  -12.1950 C.3      12 GLL5        0.0000 
     74 CA         39.8383   16.0987  -11.9800 C.3       4 GLC5        0.0000 
     75 CA         38.8950   14.3500  -11.2080 C.3       8 GLP5        0.0000 
     76 CA         40.5122   16.0373  -13.2870 C.3       4 GLC5        0.0000 
     77 CA         41.5795   17.5110  -10.2502 C.3       4 GLC5        0.0000 
     78 CA         46.3025   12.4410  -11.9913 C.3       4 GLC5        0.0000 
     79 CA         44.2060   12.9940  -12.1550 C.3      12 GLL5        0.0000 
     80 CA         48.1560   12.4730  -12.1250 C.3       8 GLP5        0.0000 
     81 CA         42.1263   13.8648  -12.7822 C.3       4 GLC5        0.0000 
     82 CA         43.3510   10.8900  -11.8092 C.3       4 GLC5        0.0000 
     83 CA         42.2530    9.3710  -11.7610 C.3       8 GLP5        0.0000 
     84 CA         36.7837   14.3900  -14.7822 C.3       4 GLC5        0.0000 
     85 CA         35.3520   15.9870  -14.0910 C.3      12 GLL5        0.0000 
     86 CA         38.3550   13.0040  -14.7580 C.3       8 GLP5        0.0000 
     87 CA         33.8237   16.6970  -16.5703 C.3       4 GLC5        0.0000 
     88 CA         35.0730   15.5650  -15.5220 C.3      12 GLL5        0.0000 
     89 CA         33.1700   18.2810  -17.7380 C.3       8 GLP5        0.0000 
     90 CA         34.3008   14.8500  -17.4518 C.3       4 GLC5        0.0000 
     91 CA         34.1240   14.5870  -19.5010 C.3       8 GLP5        0.0000 
     92 CA         32.2420   17.7732  -16.4522 C.3       4 GLC5        0.0000 
     93 CA         29.4436   18.5419  -13.8522 C.3       4 GLC5        0.0000 
     94 CA         28.7180   19.9880  -12.9050 C.3       8 GLP5        0.0000 
     95 CA         32.2090   18.5557  -14.1513 C.3       4 GLC5        0.0000 
@<TRIPOS>BOND
@<TRIPOS>SUBSTRUCTURE
     1 ALC1       10 GROUP        1 X    ALC  0     ROOT ALC X 1
     2 SEC2        4 GROUP        1 X    SEC  0     **** SEC X 2
     3 LYC4        1 GROUP        1 X    LYC  0     **** LYC X 4
     4 GLC5        7 GROUP        1 X    GLC  0     **** GLC X 6
     5 ALP1       12 GROUP        1 Y    ALP  0     ROOT ALP Y 8
     6 SEP2        6 GROUP        1 Y    SEP  0     **** SEP Y 9
     7 LYP4        3 GROUP        1 Y    LYP  0     **** LYP Y 11
     8 GLP5        9 GROUP        1 Y    GLP  0     **** GLP Y 13
     9 ALL1       11 GROUP        1 Z    ALL  0     ROOT ALL Z 15
    10 SEL2        5 GROUP        1 Z    SEL  0     **** SEL Z 16
    11 LYL4        2 GROUP        1 Z    LYL  0     **** LYL Z 18
    12 GLL5        8 GROUP        1 Z    GLL  0     **** GLL Z 20
@<TRIPOS>SET

