#    Name: 3baz_NAP_1_ligand
#    Modification time : Mon Mar 24 19:13:24 2014

@<TRIPOS>MOLECULE
3baz_NAP_1_ligand
   72    76     1     0     0
SMALL
NO_CHARGES


@<TRIPOS>ATOM
      1 PA         39.4800   19.5770  -14.8910 P.3       1 NAP500      0.0000 
      2 O1A        40.2570   18.8840  -15.7800 O.co2     1 NAP500      0.0000 
      3 O2A        39.5140   20.9370  -14.8570 O.co2     1 NAP500      0.0000 
      4 O5B        39.9070   19.1510  -13.5900 O.3       1 NAP500      0.0000 
      5 C5B        40.3150   17.9400  -13.3090 C.3       1 NAP500      0.0000 
      6 C4B        41.2480   17.7550  -12.1950 C.3       1 NAP500      0.0000 
      7 O4B        41.5190   16.4940  -11.8100 O.3       1 NAP500      0.0000 
      8 C3B        42.5820   18.4550  -12.1220 C.3       1 NAP500      0.0000 
      9 O3B        42.5730   19.1800  -10.9130 O.3       1 NAP500      0.0000 
     10 C2B        43.6430   17.3510  -12.1670 C.3       1 NAP500      0.0000 
     11 O2B        44.8700   17.6450  -11.4300 O.3       1 NAP500      0.0000 
     12 C1B        42.8870   16.2500  -11.5300 C.3       1 NAP500      0.0000 
     13 N9A        43.3970   14.9840  -12.0540 N.pl3     1 NAP500      0.0000 
     14 C8A        43.5370   14.5940  -13.3150 C.2       1 NAP500      0.0000 
     15 N7A        44.0180   13.4120  -13.3580 N.2       1 NAP500      0.0000 
     16 C5A        44.2060   12.9940  -12.1550 C.ar      1 NAP500      0.0000 
     17 C6A        44.6920   11.8240  -11.5600 C.ar      1 NAP500      0.0000 
     18 N6A        45.1320   10.7410  -12.1790 N.pl3     1 NAP500      0.0000 
     19 N1A        44.7280   11.7800  -10.2480 N.ar      1 NAP500      0.0000 
     20 C2A        44.3370   12.7800   -9.5060 C.ar      1 NAP500      0.0000 
     21 N3A        43.8910   13.9000  -10.0280 N.ar      1 NAP500      0.0000 
     22 C4A        43.8130   14.0110  -11.3300 C.ar      1 NAP500      0.0000 
     23 O3         38.0260   19.1360  -15.2580 O.3       1 NAP500      0.0000 
     24 PN         36.6680   19.5560  -14.6460 P.3       1 NAP500      0.0000 
     25 O1N        35.9820   20.3470  -15.5500 O.co2     1 NAP500      0.0000 
     26 O2N        36.7950   20.1520  -13.3510 O.co2     1 NAP500      0.0000 
     27 O5D        35.8890   18.2860  -14.6300 O.3       1 NAP500      0.0000 
     28 C5D        36.1560   17.2050  -13.8260 C.3       1 NAP500      0.0000 
     29 C4D        35.3520   15.9870  -14.0910 C.3       1 NAP500      0.0000 
     30 O4D        34.1000   16.1550  -13.5640 O.3       1 NAP500      0.0000 
     31 C3D        35.0730   15.5650  -15.5220 C.3       1 NAP500      0.0000 
     32 O3D        36.1480   14.9430  -16.1970 O.3       1 NAP500      0.0000 
     33 C2D        33.8820   14.6610  -15.2830 C.3       1 NAP500      0.0000 
     34 O2D        34.1890   13.3590  -15.2360 O.3       1 NAP500      0.0000 
     35 C1D        33.2550   15.2050  -13.9820 C.3       1 NAP500      0.0000 
     36 N1N        31.9450   15.8770  -14.1890 N.pl3     1 NAP500      0.0000 
     37 C2N        30.7940   15.4030  -13.5940 C.ar      1 NAP500      0.0000 
     38 C3N        29.5830   16.0440  -13.8420 C.ar      1 NAP500      0.0000 
     39 C7N        28.2220   15.7030  -13.2820 C.2       1 NAP500      0.0000 
     40 O7N        27.2670   16.0890  -13.9230 O.2       1 NAP500      0.0000 
     41 N7N        28.2070   15.3420  -12.0490 N.am      1 NAP500      0.0000 
     42 C4N        29.5940   17.1410  -14.7320 C.ar      1 NAP500      0.0000 
     43 C5N        30.7500   17.5990  -15.3120 C.ar      1 NAP500      0.0000 
     44 C6N        31.8780   16.9320  -15.0210 C.ar      1 NAP500      0.0000 
     45 P2B        46.3550   17.0670  -11.7440 P.3       1 NAP500      0.0000 
     46 O1X        46.5930   17.2960  -13.1160 O.co2     1 NAP500      0.0000 
     47 O2X        47.3540   17.8010  -11.0120 O.co2     1 NAP500      0.0000 
     48 O3X        46.5300   15.6920  -11.1690 O.co2     1 NAP500      0.0000 
     49 H          40.7999   17.4217  -14.2209 H         1 NAP500      0.0000 
     50 H          39.4339   17.2191  -13.1105 H         1 NAP500      0.0000 
     51 H          40.6911   18.2270  -11.2427 H         1 NAP500      0.0000 
     52 H          42.6785   19.0685  -12.9824 H         1 NAP500      0.0000 
     53 H          43.8090   17.1002  -13.1863 H         1 NAP500      0.0000 
     54 H          43.0769   16.3083  -10.4605 H         1 NAP500      0.0000 
     55 H          43.2937   15.1624  -14.0944 H         1 NAP500      0.0000 
     56 H          44.3794   12.6887   -8.4426 H         1 NAP500      0.0000 
     57 H          36.0236   17.4607  -12.7297 H         1 NAP500      0.0000 
     58 H          37.2472   16.9042  -13.8843 H         1 NAP500      0.0000 
     59 H          35.8277   15.1209  -13.5918 H         1 NAP500      0.0000 
     60 H          34.6841   16.4456  -16.0281 H         1 NAP500      0.0000 
     61 H          33.1517   14.9204  -16.0751 H         1 NAP500      0.0000 
     62 H          33.1573   14.4001  -13.2961 H         1 NAP500      0.0000 
     63 H          30.8240   14.5867  -12.9740 H         1 NAP500      0.0000 
     64 H          29.0854   15.3691  -11.5719 H         1 NAP500      0.0000 
     65 H          27.3183   15.0677  -11.6816 H         1 NAP500      0.0000 
     66 H          28.6850   17.6063  -14.9441 H         1 NAP500      0.0000 
     67 H          30.7378   18.4067  -15.9309 H         1 NAP500      0.0000 
     68 H          32.7897   17.2622  -15.4833 H         1 NAP500      0.0000 
     69 H          43.5080   19.1134  -10.5644 H         1 NAP500      0.0000 
     70 H          44.6430   10.7249  -13.0511 H         1 NAP500      0.0000 
     71 H          36.9563   15.4721  -15.9389 H         1 NAP500      0.0000 
     72 H          35.0961   13.2919  -15.6516 H         1 NAP500      0.0000 
@<TRIPOS>BOND
     1    2    1 ar   
     2    3    1 ar   
     3    4    1 1    
     4   23    1 1    
     5    5    4 1    
     6    6    5 1    
     7   49    5 1    
     8   50    5 1    
     9    7    6 1    
    10    8    6 1    
    11   51    6 1    
    12   12    7 1    
    13    9    8 1    
    14   10    8 1    
    15   52    8 1    
    16   69    9 1    
    17   11   10 1    
    18   12   10 1    
    19   53   10 1    
    20   45   11 1    
    21   13   12 1    
    22   54   12 1    
    23   14   13 1    
    24   22   13 1    
    25   15   14 2    
    26   55   14 1    
    27   16   15 1    
    28   17   16 ar   
    29   22   16 ar   
    30   18   17 1    
    31   19   17 ar   
    32   70   18 1    
    33   20   19 ar   
    34   21   20 ar   
    35   56   20 1    
    36   22   21 ar   
    37   24   23 1    
    38   25   24 ar   
    39   26   24 ar   
    40   27   24 1    
    41   28   27 1    
    42   29   28 1    
    43   57   28 1    
    44   58   28 1    
    45   30   29 1    
    46   31   29 1    
    47   59   29 1    
    48   35   30 1    
    49   32   31 1    
    50   33   31 1    
    51   60   31 1    
    52   71   32 1    
    53   34   33 1    
    54   35   33 1    
    55   61   33 1    
    56   72   34 1    
    57   36   35 1    
    58   62   35 1    
    59   37   36 ar   
    60   44   36 ar   
    61   38   37 ar   
    62   63   37 1    
    63   39   38 1    
    64   42   38 ar   
    65   40   39 2    
    66   41   39 am   
    67   64   41 1    
    68   65   41 1    
    69   43   42 ar   
    70   66   42 1    
    71   44   43 ar   
    72   67   43 1    
    73   68   44 1    
    74   46   45 ar   
    75   47   45 ar   
    76   48   45 ar   
@<TRIPOS>SUBSTRUCTURE
     1 NAP500      1 GROUP   
@<TRIPOS>SET

