#    Name: 1F2U_1_CAVITY_N1_6.mol2
#    Modification time : Mon Mar 10 22:05:12 2014

@<TRIPOS>MOLECULE
1F2U_1_CAVITY_N1_6.mol2
   86     0     7     0     0
SMALL
NO_CHARGES


@<TRIPOS>ATOM
      1 N           6.9322    6.3622   -9.4895 N.2       2 ALA2        0.0000 
      2 OD1         5.9267    6.4779   -8.3824 O.3       3 ASP3        0.0000 
      3 OG          4.9213    6.5936   -7.2753 O.2       1 SER1        0.0000 
      4 CA          4.8136    6.3663   -9.3817 C.3       6 GLY6        0.0000 
      5 CZ          3.8081    6.4820   -8.2746 C.ar      5 PHE5        0.0000 
      6 O           3.7005    6.2548  -10.3809 O.2       2 ALA2        0.0000 
      7 CZ          2.6950    6.3705   -9.2738 C.ar      5 PHE5        0.0000 
      8 CA          2.5874    6.1433  -11.3802 C.3       6 GLY6        0.0000 
      9 CZ          1.5819    6.2590  -10.2731 C.ar      5 PHE5        0.0000 
     10 CZ          0.5765    6.3747   -9.1660 C.ar      5 PHE5        0.0000 
     11 CA          0.4688    6.1474  -11.2724 C.3       6 GLY6        0.0000 
     12 CZ         -0.5367    6.2631  -10.1653 C.ar      5 PHE5        0.0000 
     13 N          -0.6443    6.0359  -12.2716 N.2       2 ALA2        0.0000 
     14 N          -2.6552    6.2673  -10.0574 N.2       2 ALA2        0.0000 
     15 N           5.9320    4.9865   -8.2218 N.2       2 ALA2        0.0000 
     16 NZ          4.9265    5.1022   -7.1147 N.2       4 LYS4        0.0000 
     17 CA          5.8243    4.7593  -10.3281 C.3       6 GLY6        0.0000 
     18 O           4.8189    4.8750   -9.2210 O.2       2 ALA2        0.0000 
     19 N           3.8134    4.9907   -8.1139 N.2       2 ALA2        0.0000 
     20 O           3.7057    4.7634  -10.2203 O.2       2 ALA2        0.0000 
     21 N           2.7003    4.8791   -9.1132 N.2       2 ALA2        0.0000 
     22 O           1.5872    4.7676  -10.1125 O.2       2 ALA2        0.0000 
     23 O           0.4740    4.6561  -11.1117 O.2       2 ALA2        0.0000 
     24 O          -0.5314    4.7718  -10.0046 O.2       2 ALA2        0.0000 
     25 CA         -0.6391    4.5445  -12.1110 C.3       6 GLY6        0.0000 
     26 N          -1.6445    4.6602  -11.0039 N.2       2 ALA2        0.0000 
     27 N           6.9427    3.3795   -9.1682 N.2       2 ALA2        0.0000 
     28 NZ          4.9318    3.6108   -6.9541 N.2       4 LYS4        0.0000 
     29 OG          5.8296    3.2679  -10.1675 O.2       1 SER1        0.0000 
     30 O           4.8241    3.3836   -9.0604 O.2       2 ALA2        0.0000 
     31 O           3.8186    3.4993   -7.9533 O.2       2 ALA2        0.0000 
     32 O           6.9479    1.8881   -9.0076 O.2       2 ALA2        0.0000 
     33 OG          5.8348    1.7765  -10.0069 O.2       1 SER1        0.0000 
     34 O           4.8293    1.8922   -8.8998 O.2       2 ALA2        0.0000 
     35 CA         -2.7839   12.0055  -12.8063 C.3       6 GLY6        0.0000 
     36 O          -3.7893   12.1212  -11.6992 O.2       2 ALA2        0.0000 
     37 N          -3.8970   11.8940  -13.8055 N.2       2 ALA2        0.0000 
     38 DU         -4.9024   12.0097  -12.6984 H         7 CUB7        0.0000 
     39 O           8.1372   11.1751   -6.8657 O.2       2 ALA2        0.0000 
     40 CA          8.0296   10.9478   -8.9721 C.3       6 GLY6        0.0000 
     41 CA         -2.6710   10.7414  -10.5393 C.3       6 GLY6        0.0000 
     42 O          -3.6764   10.8571   -9.4322 O.2       2 ALA2        0.0000 
     43 N          -2.7786   10.5142  -12.6457 N.2       2 ALA2        0.0000 
     44 DU         -3.7841   10.6299  -11.5386 H         7 CUB7        0.0000 
     45 O          -4.7895   10.7456  -10.4315 O.2       2 ALA2        0.0000 
     46 N          -3.8917   10.4026  -13.6449 N.2       2 ALA2        0.0000 
     47 N          -4.8972   10.5183  -12.5378 N.2       2 ALA2        0.0000 
     48 N          -5.9027   10.6340  -11.4307 N.2       2 ALA2        0.0000 
     49 N          -5.0049   10.2911  -14.6442 N.2       2 ALA2        0.0000 
     50 CA          8.1425    9.6837   -6.7051 C.3       6 GLY6        0.0000 
     51 O           7.0293    9.5722   -7.7044 O.2       2 ALA2        0.0000 
     52 N           6.9217    9.3449   -9.8107 N.2       2 ALA2        0.0000 
     53 CZ          5.9162    9.4606   -8.7036 C.ar      5 PHE5        0.0000 
     54 N           5.8086    9.2334  -10.8100 N.2       2 ALA2        0.0000 
     55 CZ          4.8031    9.3491   -9.7029 C.ar      5 PHE5        0.0000 
     56 CZ          3.6900    9.2375  -10.7022 C.ar      5 PHE5        0.0000 
     57 N           2.5769    9.1260  -11.7014 N.2       2 ALA2        0.0000 
     58 CA          0.4583    9.1302  -11.5936 C.3       6 GLY6        0.0000 
     59 O          -0.6548    9.0186  -12.5929 O.2       2 ALA2        0.0000 
     60 CZ         -1.6603    9.1343  -11.4858 C.ar      5 PHE5        0.0000 
     61 CZ         -2.6657    9.2500  -10.3787 C.ar      5 PHE5        0.0000 
     62 CZ         -3.6712    9.3657   -9.2716 C.ar      5 PHE5        0.0000 
     63 CA         -4.6766    9.4814   -8.1645 C.3       6 GLY6        0.0000 
     64 N          -2.7734    9.0228  -12.4850 N.2       2 ALA2        0.0000 
     65 N          -3.7788    9.1385  -11.3779 N.2       2 ALA2        0.0000 
     66 DU         -4.7843    9.2542  -10.2708 H         7 CUB7        0.0000 
     67 N          -3.8865    8.9113  -13.4843 N.2       2 ALA2        0.0000 
     68 N          -4.8920    9.0270  -12.3772 N.2       2 ALA2        0.0000 
     69 N          -5.8974    9.1427  -11.2701 N.2       2 ALA2        0.0000 
     70 CA          7.0346    8.0808   -7.5437 C.3       6 GLY6        0.0000 
     71 CA          6.9269    7.8536   -9.6501 C.3       6 GLY6        0.0000 
     72 CA          5.9215    7.9692   -8.5430 C.3       6 GLY6        0.0000 
     73 O           4.9160    8.0849   -7.4359 O.2       2 ALA2        0.0000 
     74 CA          5.8138    7.7420  -10.6494 C.3       6 GLY6        0.0000 
     75 DU          4.8084    7.8577   -9.5423 H         7 CUB7        0.0000 
     76 CZ          3.8029    7.9734   -8.4352 C.ar      5 PHE5        0.0000 
     77 O           3.6952    7.7462  -10.5415 O.2       2 ALA2        0.0000 
     78 N           2.5821    7.6346  -11.5408 N.2       2 ALA2        0.0000 
     79 CZ          1.5767    7.7503  -10.4337 C.ar      5 PHE5        0.0000 
     80 CA          1.4690    7.5231  -12.5401 C.3       6 GLY6        0.0000 
     81 CZ          0.4636    7.6388  -11.4330 C.ar      5 PHE5        0.0000 
     82 N          -0.6496    7.5273  -12.4323 N.2       2 ALA2        0.0000 
     83 N          -1.6550    7.6430  -11.3252 N.2       2 ALA2        0.0000 
     84 CZ         -2.6605    7.7587  -10.2181 C.ar      5 PHE5        0.0000 
     85 CZ         -3.6659    7.8744   -9.1110 C.ar      5 PHE5        0.0000 
     86 CA         -4.7791    7.7628  -10.1102 C.3       6 GLY6        0.0000 
@<TRIPOS>BOND
@<TRIPOS>SUBSTRUCTURE
     1 SER1        3 GROUP   
     2 ALA2        1 GROUP   
     3 ASP3        2 GROUP   
     4 LYS4       16 GROUP   
     5 PHE5        5 GROUP   
     6 GLY6        4 GROUP   
     7 CUB7       38 GROUP   
@<TRIPOS>SET

