#    Name: 1f2u_ATP_1_INTS_M
#    Modification time : Tue Mar 25 00:43:17 2014

@<TRIPOS>MOLECULE
1f2u_ATP_1_INTS_M
   91     0    15     0     0
SMALL
NO_CHARGES


@<TRIPOS>ATOM
      1 Zn          6.9475   -3.4515   -7.3065 Zn        4 ZIC7        0.0000 
      2 Zn          7.3610   -3.1140   -6.4270 Zn       14 ZIL7        0.0000 
      3 Zn          6.5340   -3.7890   -8.1860 Zn        9 ZIP7        0.0000 
      4 N           6.8895   -4.4190   -5.9910 N.am      2 SEC2        0.0000 
      5 N           7.3610   -3.1140   -6.4270 N.am     12 SEL2        0.0000 
      6 N           6.4180   -5.7240   -5.5550 N.am      7 SEP2        0.0000 
      7 N           9.1465   -1.6990   -3.8455 N.am      2 SEC2        0.0000 
      8 N           7.7390   -1.3110   -4.7410 N.am     12 SEL2        0.0000 
      9 N          10.5540   -2.0870   -2.9500 N.am      7 SEP2        0.0000 
     10 N           7.0315   -0.4095   -4.7105 N.am      2 SEC2        0.0000 
     11 N           6.3240    0.4920   -4.6800 N.am      7 SEP2        0.0000 
     12 N           6.9270   -1.8295   -3.7495 N.am      2 SEC2        0.0000 
     13 N           6.1150   -2.3480   -2.7580 N.am      7 SEP2        0.0000 
     14 NZ         10.5910   -3.2015   -6.5985 N.4       3 LYC4        0.0000 
     15 NZ          9.6020   -2.6870   -5.6090 N.4      13 LYL4        0.0000 
     16 NZ         11.5800   -3.7160   -7.5880 N.4       8 LYP4        0.0000 
     17 N          10.0780   -2.3870   -4.2795 N.am      2 SEC2        0.0000 
     18 N           9.6020   -2.6870   -5.6090 N.am     12 SEL2        0.0000 
     19 N          10.5910   -3.2015   -6.5985 N.am      2 SEC2        0.0000 
     20 N          11.5800   -3.7160   -7.5880 N.am      7 SEP2        0.0000 
     21 Zn          6.8595   -2.9325   -8.5990 Zn        4 ZIC7        0.0000 
     22 Zn          7.1850   -2.0760   -9.0120 Zn       14 ZIL7        0.0000 
     23 N           7.0270   -2.4600  -10.4630 N.am      2 SEC2        0.0000 
     24 N           7.1850   -2.0760   -9.0120 N.am     12 SEL2        0.0000 
     25 N           6.8690   -2.8440  -11.9140 N.am      7 SEP2        0.0000 
     26 N           9.2515    0.5790  -10.2825 N.am      2 SEC2        0.0000 
     27 N           9.1880   -0.5930   -9.4490 N.am     12 SEL2        0.0000 
     28 N           9.3150    1.7510  -11.1160 N.am      7 SEP2        0.0000 
     29 N           9.1610   -0.7080  -10.8090 N.am      2 SEC2        0.0000 
     30 N           9.1340   -0.8230  -12.1690 N.am      7 SEP2        0.0000 
     31 N           8.7855    0.4180   -6.4715 N.am      2 SEC2        0.0000 
     32 N           8.3450   -0.9130   -7.0170 N.am     12 SEL2        0.0000 
     33 N           9.2260    1.7490   -5.9260 N.am      7 SEP2        0.0000 
     34 N           7.3345   -0.2105   -5.8485 N.am      2 SEC2        0.0000 
     35 N           5.4740   -0.4680  -12.0935 N.am      2 SEC2        0.0000 
     36 N           5.9650    0.3040  -11.0900 N.am     12 SEL2        0.0000 
     37 N           4.9830   -1.2400  -13.0970 N.am      7 SEP2        0.0000 
     38 N           5.1530    0.9370  -11.7715 N.am      2 SEC2        0.0000 
     39 N           4.3410    1.5700  -12.4530 N.am      7 SEP2        0.0000 
     40 N           4.7945    1.7840  -11.0240 N.am      2 SEC2        0.0000 
     41 N           5.2480    1.9980   -9.5950 N.am     12 SEL2        0.0000 
     42 CA          6.0855    6.2200   -6.1360 C.3       5 GLC5        0.0000 
     43 CA          4.8750    4.6940   -7.2400 C.3      15 GLL5        0.0000 
     44 CA          7.2960    7.7460   -5.0320 C.3      10 GLP5        0.0000 
     45 N           7.1085    5.8005   -6.0815 N.am      2 SEC2        0.0000 
     46 N           6.0600    4.8970   -6.4760 N.am     12 SEL2        0.0000 
     47 N           8.1570    6.7040   -5.6870 N.am      7 SEP2        0.0000 
     48 N           4.9100    5.6385   -5.4185 N.am      2 SEC2        0.0000 
     49 N           3.7600    6.3800   -4.3610 N.am      7 SEP2        0.0000 
     50 O           5.4550    4.4365   -5.2755 O.2       1 ALC1        0.0000 
     51 O           6.0600    4.8970   -6.4760 O.2      11 ALL1        0.0000 
     52 O           4.8500    3.9760   -4.0750 O.2       6 ALP1        0.0000 
     53 O           6.5015    4.7540   -5.1700 O.2       1 ALC1        0.0000 
     54 O           6.9430    4.6110   -3.8640 O.2       6 ALP1        0.0000 
     55 O           4.1975    6.7540   -5.7405 O.2       1 ALC1        0.0000 
     56 O           4.6350    7.1280   -7.1200 O.2      11 ALL1        0.0000 
     57 O           3.7600    6.3800   -4.3610 O.2       6 ALP1        0.0000 
     58 CA          5.5385    5.9285  -10.8860 C.3       5 GLC5        0.0000 
     59 CA          4.2650    6.0290   -9.2530 C.3      15 GLL5        0.0000 
     60 CA          6.8120    5.8280  -12.5190 C.3      10 GLP5        0.0000 
     61 CA          0.6105    8.9435  -13.8010 C.3       5 GLC5        0.0000 
     62 CA          0.6410    8.1670  -11.8620 C.3      15 GLL5        0.0000 
     63 CA          0.5800    9.7200  -15.7400 C.3      10 GLP5        0.0000 
     64 CA          0.3775   10.0535  -11.5180 C.3       5 GLC5        0.0000 
     65 CA          0.1140   11.9400  -11.1740 C.3      10 GLP5        0.0000 
     66 O          -2.0545    7.1725  -12.4680 O.2       1 ALC1        0.0000 
     67 O          -0.6340    8.0740  -12.2260 O.2      11 ALL1        0.0000 
     68 O          -3.4750    6.2710  -12.7100 O.2       6 ALP1        0.0000 
     69 N           0.7690   10.3025  -13.1865 N.am      2 SEC2        0.0000 
     70 N           1.4050    9.1950  -12.3160 N.am     12 SEL2        0.0000 
     71 N           0.1330   11.4100  -14.0570 N.am      7 SEP2        0.0000 
     72 CA          2.4505    7.4310  -12.9955 C.3       5 GLC5        0.0000 
     73 CA          2.6940    9.2740  -11.9410 C.3      15 GLL5        0.0000 
     74 CA          2.2070    5.5880  -14.0500 C.3      10 GLP5        0.0000 
     75 CA          4.2735    7.9160  -12.7015 C.3       5 GLC5        0.0000 
     76 CA          5.8530    6.5580  -13.4620 C.3      10 GLP5        0.0000 
     77 CA          2.8545    9.8675  -13.8320 C.3       5 GLC5        0.0000 
     78 CA          3.0150   10.4610  -15.7230 C.3      10 GLP5        0.0000 
     79 CA          1.4040   10.6070  -11.5575 C.3       5 GLC5        0.0000 
     80 CA          4.2155    6.9655  -12.0840 C.3       5 GLC5        0.0000 
     81 CA          2.5780    7.3730  -10.7060 C.3      15 GLL5        0.0000 
     82 CA          6.8927    3.5137   -7.1787 C.3       5 GLC5        0.0000 
     83 CA          5.3140    4.0320   -8.4740 C.3      15 GLL5        0.0000 
     84 CA          8.8110    3.0140   -6.5050 C.3      10 GLP5        0.0000 
     85 CA          5.2587    2.3602   -6.8468 C.3       5 GLC5        0.0000 
     86 CA          5.5430    0.7070   -5.8410 C.3      10 GLP5        0.0000 
     87 CA          2.8750    7.1595   -7.7053 C.3       5 GLC5        0.0000 
     88 CA          4.1510    5.9390   -7.7040 C.3      15 GLL5        0.0000 
     89 CA          1.5420    8.3350   -6.9320 C.3      10 GLP5        0.0000 
     90 CA          1.9840    6.5544  -12.5641 C.3       5 GLC5        0.0000 
     91 CA          1.2470    7.1700  -11.0390 C.3      15 GLL5        0.0000 
@<TRIPOS>BOND
@<TRIPOS>SUBSTRUCTURE
     1 ALC1       50 GROUP        1 X    ALC  0     ROOT ALC X 1
     2 SEC2        4 GROUP        1 X    SEC  0     **** SEC X 2
     3 LYC4       14 GROUP        1 X    LYC  0     **** LYC X 4
     4 ZIC7        1 GROUP        1 X    ZIC  0     **** ZIC X 5
     5 GLC5       42 GROUP        1 X    GLC  0     **** GLC X 6
     6 ALP1       52 GROUP        1 Y    ALP  0     ROOT ALP Y 8
     7 SEP2        6 GROUP        1 Y    SEP  0     **** SEP Y 9
     8 LYP4       16 GROUP        1 Y    LYP  0     **** LYP Y 11
     9 ZIP7        3 GROUP        1 Y    ZIP  0     **** ZIP Y 12
    10 GLP5       44 GROUP        1 Y    GLP  0     **** GLP Y 13
    11 ALL1       51 GROUP        1 Z    ALL  0     ROOT ALL Z 15
    12 SEL2        5 GROUP        1 Z    SEL  0     **** SEL Z 16
    13 LYL4       15 GROUP        1 Z    LYL  0     **** LYL Z 18
    14 ZIL7        2 GROUP        1 Z    ZIL  0     **** ZIL Z 19
    15 GLL5       43 GROUP        1 Z    GLL  0     **** GLL Z 20
@<TRIPOS>SET

