#    Name: 1f2u_ATP_1_ligand
#    Modification time : Tue Mar 25 00:43:17 2014

@<TRIPOS>MOLECULE
1f2u_ATP_1_ligand
   43    45     1     0     0
SMALL
NO_CHARGES


@<TRIPOS>ATOM
      1 PG          8.2520   -2.0900   -5.8770 P.3       1 ATP901      0.0000 
      2 O1G         7.3610   -3.1140   -6.4270 O.co2     1 ATP901      0.0000 
      3 O2G         7.7390   -1.3110   -4.7410 O.co2     1 ATP901      0.0000 
      4 O3G         9.6020   -2.6870   -5.6090 O.co2     1 ATP901      0.0000 
      5 PB          7.9620   -0.8540   -8.6580 P.3       1 ATP901      0.0000 
      6 O1B         7.1850   -2.0760   -9.0120 O.co2     1 ATP901      0.0000 
      7 O2B         9.1880   -0.5930   -9.4490 O.co2     1 ATP901      0.0000 
      8 O3B         8.3450   -0.9130   -7.0170 O.3       1 ATP901      0.0000 
      9 PA          5.6080    0.5090   -9.7020 P.3       1 ATP901      0.0000 
     10 O1A         5.9650    0.3040  -11.0900 O.co2     1 ATP901      0.0000 
     11 O2A         4.5160   -0.2990   -9.1200 O.co2     1 ATP901      0.0000 
     12 O3A         6.9780    0.3480   -8.8820 O.3       1 ATP901      0.0000 
     13 O5'         5.2480    1.9980   -9.5950 O.3       1 ATP901      0.0000 
     14 C5'         4.8340    2.6340   -8.4560 C.3       1 ATP901      0.0000 
     15 C4'         5.3140    4.0320   -8.4740 C.3       1 ATP901      0.0000 
     16 O4'         4.7220    4.7190   -9.6250 O.3       1 ATP901      0.0000 
     17 C3'         4.8750    4.6940   -7.2400 C.3       1 ATP901      0.0000 
     18 O3'         6.0600    4.8970   -6.4760 O.3       1 ATP901      0.0000 
     19 C2'         4.1510    5.9390   -7.7040 C.3       1 ATP901      0.0000 
     20 O2'         4.6350    7.1280   -7.1200 O.3       1 ATP901      0.0000 
     21 C1'         4.2650    6.0290   -9.2530 C.3       1 ATP901      0.0000 
     22 N9          2.9250    6.3070   -9.8930 N.pl3     1 ATP901      0.0000 
     23 C8          1.7620    5.5790   -9.7820 C.2       1 ATP901      0.0000 
     24 N7          0.7340    6.0470  -10.4250 N.2       1 ATP901      0.0000 
     25 C5          1.2470    7.1700  -11.0390 C.ar      1 ATP901      0.0000 
     26 C6          0.6410    8.1670  -11.8620 C.ar      1 ATP901      0.0000 
     27 N6         -0.6340    8.0740  -12.2260 N.pl3     1 ATP901      0.0000 
     28 N1          1.4050    9.1950  -12.3160 N.ar      1 ATP901      0.0000 
     29 C2          2.6940    9.2740  -11.9410 C.ar      1 ATP901      0.0000 
     30 N3          3.3900    8.4120  -11.1560 N.ar      1 ATP901      0.0000 
     31 C4          2.5780    7.3730  -10.7060 C.ar      1 ATP901      0.0000 
     32 H           5.2200    2.1512   -7.5376 H         1 ATP901      0.0000 
     33 H           3.7314    2.6517   -8.3582 H         1 ATP901      0.0000 
     34 H           6.3794    4.0466   -8.5413 H         1 ATP901      0.0000 
     35 H           4.1782    4.0437   -6.7487 H         1 ATP901      0.0000 
     36 H           3.0816    5.7994   -7.4970 H         1 ATP901      0.0000 
     37 H           4.9703    6.7699   -9.4899 H         1 ATP901      0.0000 
     38 H           1.7471    4.7286   -9.2198 H         1 ATP901      0.0000 
     39 H          -0.9933    8.8335  -12.7684 H         1 ATP901      0.0000 
     40 H          -1.1189    7.2530  -11.9246 H         1 ATP901      0.0000 
     41 H           3.2563   10.1392  -12.3123 H         1 ATP901      0.0000 
     42 H           5.8291    4.5881   -5.5534 H         1 ATP901      0.0000 
     43 H           4.0471    7.2843   -6.3263 H         1 ATP901      0.0000 
@<TRIPOS>BOND
     1    2    1 ar   
     2    3    1 ar   
     3    4    1 ar   
     4    8    1 1    
     5    6    5 ar   
     6    7    5 ar   
     7    8    5 1    
     8   12    5 1    
     9   10    9 ar   
    10   11    9 ar   
    11   12    9 1    
    12   13    9 1    
    13   14   13 1    
    14   15   14 1    
    15   32   14 1    
    16   33   14 1    
    17   16   15 1    
    18   17   15 1    
    19   34   15 1    
    20   21   16 1    
    21   18   17 1    
    22   19   17 1    
    23   35   17 1    
    24   42   18 1    
    25   20   19 1    
    26   21   19 1    
    27   36   19 1    
    28   43   20 1    
    29   22   21 1    
    30   37   21 1    
    31   23   22 1    
    32   31   22 1    
    33   24   23 2    
    34   38   23 1    
    35   25   24 1    
    36   26   25 ar   
    37   31   25 ar   
    38   27   26 1    
    39   28   26 ar   
    40   39   27 1    
    41   40   27 1    
    42   29   28 ar   
    43   30   29 ar   
    44   41   29 1    
    45   31   30 ar   
@<TRIPOS>SUBSTRUCTURE
     1 ATP901      1 GROUP   
@<TRIPOS>SET

