#    Name: 3srw_Q27_1_INTS_M
#    Modification time : Mon Mar 24 18:09:01 2014

@<TRIPOS>MOLECULE
3srw_Q27_1_INTS_M
   77     0     9     0     0
SMALL
NO_CHARGES


@<TRIPOS>ATOM
      1 CA         -4.8170  -27.9640    2.0220 C.3       3 GLC5        0.0000 
      2 CA         -4.0920  -28.6630    3.8390 C.3       9 GLL5        0.0000 
      3 CA         -5.5420  -27.2650    0.2050 C.3       6 GLP5        0.0000 
      4 CA         -3.8180  -26.6630    3.8835 C.3       3 GLC5        0.0000 
      5 CA         -3.5440  -24.6630    3.9280 C.3       6 GLP5        0.0000 
      6 CA         -5.8615  -27.5220    2.3900 C.3       3 GLC5        0.0000 
      7 CA         -6.1810  -27.7790    4.5750 C.3       9 GLL5        0.0000 
      8 CA         -4.8625  -26.2210    4.2515 C.3       3 GLC5        0.0000 
      9 CA         -6.3255  -26.5735    6.1515 C.3       3 GLC5        0.0000 
     10 CA         -6.4700  -25.3680    7.7280 C.3       6 GLP5        0.0000 
     11 CA         -7.2085  -28.8270    3.6350 C.3       3 GLC5        0.0000 
     12 CA         -8.2360  -29.8750    2.6950 C.3       6 GLP5        0.0000 
     13 N          -7.6655  -28.6335    5.9900 N.am      2 SEC2        0.0000 
     14 N          -6.4600  -28.8560    5.3490 N.am      8 SEL2        0.0000 
     15 N          -8.8710  -28.4110    6.6310 N.am      5 SEP2        0.0000 
     16 CA         -7.7095  -31.7185    6.7715 C.3       3 GLC5        0.0000 
     17 CA         -5.9050  -31.0460    6.1750 C.3       9 GLL5        0.0000 
     18 CA         -9.5140  -32.3910    7.3680 C.3       6 GLP5        0.0000 
     19 O          -2.6490  -27.3610    2.5555 O.2       1 ALC1        0.0000 
     20 O          -2.9480  -28.5530    3.1460 O.2       7 ALL1        0.0000 
     21 O          -2.3500  -26.1690    1.9650 O.2       4 ALP1        0.0000 
     22 O          -1.7250  -29.2505    3.1320 O.2       1 ALC1        0.0000 
     23 O          -0.5020  -29.9480    3.1180 O.2       4 ALP1        0.0000 
     24 O          -8.3080  -26.6405    5.1560 O.2       1 ALC1        0.0000 
     25 O          -7.0950  -26.7620    4.5460 O.2       7 ALL1        0.0000 
     26 O          -9.5210  -26.5190    5.7660 O.2       4 ALP1        0.0000 
     27 O          -7.9830  -27.5865    5.5885 O.2       1 ALC1        0.0000 
     28 O          -8.8710  -28.4110    6.6310 O.2       4 ALP1        0.0000 
     29 O          -7.5395  -25.6175    3.5440 O.2       1 ALC1        0.0000 
     30 O          -7.9840  -24.4730    2.5420 O.2       4 ALP1        0.0000 
     31 CA         -0.9310  -33.3695    5.2940 C.3       3 GLC5        0.0000 
     32 CA         -2.7230  -33.2050    5.4580 C.3       9 GLL5        0.0000 
     33 CA          0.8610  -33.5340    5.1300 C.3       6 GLP5        0.0000 
     34 CA         -2.7645  -35.0275    5.6765 C.3       3 GLC5        0.0000 
     35 CA         -2.8060  -36.8500    5.8950 C.3       6 GLP5        0.0000 
     36 CA         -2.8930  -33.3720    3.7930 C.3       3 GLC5        0.0000 
     37 CA         -3.0630  -33.5390    2.1280 C.3       6 GLP5        0.0000 
     38 CA         -1.4400  -31.6840    5.8880 C.3       3 GLC5        0.0000 
     39 CA         -0.1570  -30.1630    6.3180 C.3       6 GLP5        0.0000 
     40 CA         -8.0025  -33.3305    2.9655 C.3       3 GLC5        0.0000 
     41 CA         -7.9260  -34.7400    4.6680 C.3       9 GLL5        0.0000 
     42 CA         -8.0790  -31.9210    1.2630 C.3       6 GLP5        0.0000 
     43 CA         -6.8280  -35.4220    3.0440 C.3       3 GLC5        0.0000 
     44 CA         -5.7300  -36.1040    1.4200 C.3       6 GLP5        0.0000 
     45 CA         -7.3765  -37.0825    3.9165 C.3       3 GLC5        0.0000 
     46 CA         -8.2150  -35.9410    5.3390 C.3       9 GLL5        0.0000 
     47 CA         -6.5380  -38.2240    2.4940 C.3       6 GLP5        0.0000 
     48 CA         -2.0355  -33.4145   11.5875 C.3       3 GLC5        0.0000 
     49 CA         -2.5500  -33.3470    9.5350 C.3       9 GLL5        0.0000 
     50 CA         -1.5210  -33.4820   13.6400 C.3       6 GLP5        0.0000 
     51 CA         -3.8350  -32.1620   10.1865 C.3       3 GLC5        0.0000 
     52 CA         -5.1200  -30.9770   10.8380 C.3       6 GLP5        0.0000 
     53 CA         -0.1635  -33.3240    7.0390 C.3       3 GLC5        0.0000 
     54 CA         -1.1880  -33.1140    8.9480 C.3       9 GLL5        0.0000 
     55 CA         -6.2280  -29.5735    3.4700 C.3       3 GLC5        0.0000 
     56 CA         -4.3480  -29.8810    4.6510 C.3       9 GLL5        0.0000 
     57 CA         -6.9948  -30.1782    4.2450 C.3       3 GLC5        0.0000 
     58 CA         -5.6020  -29.9170    5.4150 C.3       9 GLL5        0.0000 
     59 CA         -5.9675  -31.3357    8.1578 C.3       3 GLC5        0.0000 
     60 CA         -6.4960  -31.1010   10.1290 C.3       6 GLP5        0.0000 
     61 CA         -3.8508  -35.1893    6.7305 C.3       3 GLC5        0.0000 
     62 CA         -5.2530  -33.3320    6.9520 C.3       9 GLL5        0.0000 
     63 CA         -5.6886  -32.6724    9.1515 C.3       3 GLC5        0.0000 
     64 CA         -4.8670  -34.9590    8.7820 C.3       9 GLL5        0.0000 
     65 CA         -4.0840  -36.1123    7.2032 C.3       3 GLC5        0.0000 
     66 CA         -7.8392  -33.5102    7.1171 C.3       3 GLC5        0.0000 
     67 CA         -6.5660  -35.4840    7.0770 C.3       9 GLL5        0.0000 
     68 CA         -4.6128  -35.8505    6.3065 C.3       3 GLC5        0.0000 
     69 CA         -6.2730  -34.2180    6.3590 C.3       9 GLL5        0.0000 
     70 CA         -8.4765  -33.3510    6.1473 C.3       3 GLC5        0.0000 
     71 CA         -6.9520  -33.8820    5.1850 C.3       9 GLL5        0.0000 
     72 CA         -9.3980  -35.2193    7.0290 C.3       3 GLC5        0.0000 
     73 CA        -10.9140  -34.3130    8.1280 C.3       6 GLP5        0.0000 
     74 CA         -0.7425  -34.8413    9.4318 C.3       3 GLC5        0.0000 
     75 CA          0.3840  -36.4520    9.6220 C.3       6 GLP5        0.0000 
     76 CA         -0.3580  -32.2597    9.8453 C.3       3 GLC5        0.0000 
     77 CA          1.1530  -31.2890   10.4490 C.3       6 GLP5        0.0000 
@<TRIPOS>BOND
@<TRIPOS>SUBSTRUCTURE
     1 ALC1       19 GROUP        1 X    ALC  0     ROOT ALC X 1
     2 SEC2       13 GROUP        1 X    SEC  0     **** SEC X 2
     3 GLC5        1 GROUP        1 X    GLC  0     **** GLC X 6
     4 ALP1       21 GROUP        1 Y    ALP  0     ROOT ALP Y 8
     5 SEP2       15 GROUP        1 Y    SEP  0     **** SEP Y 9
     6 GLP5        3 GROUP        1 Y    GLP  0     **** GLP Y 13
     7 ALL1       20 GROUP        1 Z    ALL  0     ROOT ALL Z 15
     8 SEL2       14 GROUP        1 Z    SEL  0     **** SEL Z 16
     9 GLL5        2 GROUP        1 Z    GLL  0     **** GLL Z 20
@<TRIPOS>SET

